 
data_pvl511
 
_audit_creation_method            'SHELXL-2018/3'
_shelx_SHELXL_version_number      '2018/3'
_chemical_name_systematic         ?
_chemical_name_common             ?
_chemical_melting_point           ?
_chemical_formula_moiety          ?
_chemical_formula_sum
 'C18.67 H10.67 N10.67 O2.67 S1.33 Zn0.67' 
_chemical_formula_weight          513.37

loop_
 _atom_type_symbol
 _atom_type_description
 _atom_type_scat_dispersion_real
 _atom_type_scat_dispersion_imag
 _atom_type_scat_source
 'C'  'C'   0.0033   0.0016
 'International Tables Vol C Tables 4.2.6.8 and 6.1.1.4'
 'H'  'H'   0.0000   0.0000
 'International Tables Vol C Tables 4.2.6.8 and 6.1.1.4'
 'N'  'N'   0.0061   0.0033
 'International Tables Vol C Tables 4.2.6.8 and 6.1.1.4'
 'O'  'O'   0.0106   0.0060
 'International Tables Vol C Tables 4.2.6.8 and 6.1.1.4'
 'S'  'S'   0.1246   0.1234
 'International Tables Vol C Tables 4.2.6.8 and 6.1.1.4'
 'Zn'  'Zn'   0.2839   1.4301
 'International Tables Vol C Tables 4.2.6.8 and 6.1.1.4'
 
_space_group_crystal_system       triclinic
_space_group_IT_number            2
_space_group_name_H-M_alt         'P -1'
_space_group_name_Hall            '-P 1'
 
_shelx_space_group_comment
;
The symmetry employed for this shelxl refinement is uniquely defined
by the following loop, which should always be used as a source of
symmetry information in preference to the above space-group names.
They are only intended as comments.
;
 
loop_
 _space_group_symop_operation_xyz
 'x, y, z'
 '-x, -y, -z'
 
_cell_length_a                    10.0323(3)
_cell_length_b                    10.7897(4)
_cell_length_c                    13.4843(4)
_cell_angle_alpha                 90.787(3)
_cell_angle_beta                  92.773(2)
_cell_angle_gamma                 101.007(3)
_cell_volume                      1430.69(8)
_cell_formula_units_Z             3
_cell_measurement_temperature     140(2)
_cell_measurement_reflns_used     ?
_cell_measurement_theta_min       ?
_cell_measurement_theta_max       ?
 
_exptl_crystal_description        ?
_exptl_crystal_colour             ?
_exptl_crystal_density_meas       ?
_exptl_crystal_density_method     ?
_exptl_crystal_density_diffrn     1.788          
_exptl_crystal_F_000              780
_exptl_transmission_factor_min    ?
_exptl_transmission_factor_max    ?
_exptl_crystal_size_max           0.300
_exptl_crystal_size_mid           0.200
_exptl_crystal_size_min           0.200
_exptl_absorpt_coefficient_mu     1.076
_shelx_estimated_absorpt_T_min    0.738
_shelx_estimated_absorpt_T_max    0.814
_exptl_absorpt_correction_type    ?
_exptl_absorpt_correction_T_min   ?
_exptl_absorpt_correction_T_max   ?
_exptl_absorpt_process_details    ?
_exptl_absorpt_special_details    ?
_diffrn_ambient_temperature       140(2)
_diffrn_radiation_wavelength      0.71073
_diffrn_radiation_type            MoK\a
_diffrn_source                    ?
_diffrn_measurement_device_type   ?
_diffrn_measurement_method        ?
_diffrn_detector_area_resol_mean  ?
_diffrn_reflns_number             22623
_diffrn_reflns_av_unetI/netI      0.0251
_diffrn_reflns_av_R_equivalents   0.0233
_diffrn_reflns_limit_h_min        -13
_diffrn_reflns_limit_h_max        13
_diffrn_reflns_limit_k_min        -14
_diffrn_reflns_limit_k_max        14
_diffrn_reflns_limit_l_min        -18
_diffrn_reflns_limit_l_max        17
_diffrn_reflns_theta_min          1.923
_diffrn_reflns_theta_max          29.038
_diffrn_reflns_theta_full         25.242
_diffrn_measured_fraction_theta_max   0.871
_diffrn_measured_fraction_theta_full  1.000
_diffrn_reflns_Laue_measured_fraction_max    0.871
_diffrn_reflns_Laue_measured_fraction_full   1.000
_diffrn_reflns_point_group_measured_fraction_max   0.871
_diffrn_reflns_point_group_measured_fraction_full  1.000
_reflns_number_total              6653
_reflns_number_gt                 6034
_reflns_threshold_expression      'I > 2\s(I)'
_reflns_Friedel_coverage          0.000
_reflns_Friedel_fraction_max      .
_reflns_Friedel_fraction_full     .
 
_reflns_special_details
;
 Reflections were merged by SHELXL according to the crystal
 class for the calculation of statistics and refinement.
 
 _reflns_Friedel_fraction is defined as the number of unique
 Friedel pairs measured divided by the number that would be
 possible theoretically, ignoring centric projections and
 systematic absences.
;
 
_computing_data_collection        ?
_computing_cell_refinement        ?
_computing_data_reduction         ?
_computing_structure_solution     'SHELXT 2018/2 (Sheldrick, 2018)'
_computing_structure_refinement 'SHELXL-2018/3 (Sheldrick, 2018)'
_computing_molecular_graphics     ?
_computing_publication_material   ?
_refine_special_details           ?
_refine_ls_structure_factor_coef  Fsqd
_refine_ls_matrix_type            full
_refine_ls_weighting_scheme       calc
_refine_ls_weighting_details
'w=1/[\s^2^(Fo^2^)+(0.0232P)^2^+0.9875P] where P=(Fo^2^+2Fc^2^)/3'
_atom_sites_solution_primary      ?
_atom_sites_solution_secondary    ?
_atom_sites_solution_hydrogens    geom
_refine_ls_hydrogen_treatment     constr
_refine_ls_extinction_method      none
_refine_ls_extinction_coef        .
_refine_ls_number_reflns          6653
_refine_ls_number_parameters      460
_refine_ls_number_restraints      0
_refine_ls_R_factor_all           0.0309
_refine_ls_R_factor_gt            0.0266
_refine_ls_wR_factor_ref          0.0637
_refine_ls_wR_factor_gt           0.0621
_refine_ls_goodness_of_fit_ref    1.058
_refine_ls_restrained_S_all       1.058
_refine_ls_shift/su_max           0.001
_refine_ls_shift/su_mean          0.000
 
loop_
 _atom_site_label
 _atom_site_type_symbol
 _atom_site_fract_x
 _atom_site_fract_y
 _atom_site_fract_z
 _atom_site_U_iso_or_equiv
 _atom_site_adp_type
 _atom_site_occupancy
 _atom_site_site_symmetry_order  
 _atom_site_calc_flag
 _atom_site_refinement_flags_posn
 _atom_site_refinement_flags_adp
 _atom_site_refinement_flags_occupancy
 _atom_site_disorder_assembly
 _atom_site_disorder_group
S1_1 S -0.03470(4) 0.80861(4) 0.23935(3) 0.01760(9) Uani 1 1 d . . . . .
O1_1 O 0.60544(11) 0.43312(10) 0.45088(8) 0.0150(2) Uani 1 1 d . . . . .
C1_1 C 0.71685(18) 0.07998(17) 1.27949(13) 0.0229(4) Uani 1 1 d . . . . .
H1_1 H 0.726696 0.085010 1.349935 0.028 Uiso 1 1 calc R U . . .
Zn1_1 Zn 0.29912(2) 0.38433(2) 0.50935(2) 0.01172(5) Uani 1 1 d . . . . .
N1_1 N -0.12896(17) 0.87860(16) -0.18297(11) 0.0269(3) Uani 1 1 d . . . . .
O2_1 O 0.44546(11) 0.27906(11) 0.50250(9) 0.0164(2) Uani 1 1 d . . . . .
C2_1 C 0.73645(17) 0.02172(16) 1.13364(12) 0.0186(3) Uani 1 1 d . . . . .
H2_1 H 0.759544 -0.019456 1.075991 0.022 Uiso 1 1 calc R U . . .
N2 N -0.01638(14) 0.76070(13) -0.09473(10) 0.0153(3) Uani 1 1 d . . . . .
S2 S 0.67962(4) 0.05110(4) 0.79996(3) 0.01744(9) Uani 1 1 d . . . . .
C3 C 0.59599(16) 0.16558(15) 1.05242(12) 0.0154(3) Uani 1 1 d . . . . .
N3 N 0.00040(15) 0.72865(14) -0.19101(10) 0.0202(3) Uani 1 1 d . . . . .
O3 O 1.09056(11) 0.39457(11) 0.51867(9) 0.0179(2) Uani 1 1 d . . . . .
C4 C 0.61509(15) 0.13245(15) 0.95232(12) 0.0138(3) Uani 1 1 d . . . . .
N4 N -0.04926(14) 0.81121(13) 0.11955(10) 0.0161(3) Uani 1 1 d . . . . .
O4 O 1.13813(11) 0.20648(11) 0.49244(9) 0.0187(2) Uani 1 1 d . . . . .
C5 C 0.51258(18) 0.24884(17) 1.06902(12) 0.0202(4) Uani 1 1 d . . . . .
H5 H 0.499140 0.271883 1.135520 0.024 Uiso 1 1 calc R U . . .
N5 N 0.05955(14) 0.70410(13) 0.25402(10) 0.0171(3) Uani 1 1 d . . . . .
C6 C 0.54659(16) 0.18619(15) 0.87277(11) 0.0145(3) Uani 1 1 d . . . . .
N6 N 0.23370(13) 0.51833(13) 0.21700(10) 0.0143(3) Uani 1 1 d . . . . .
C7 C 0.45945(16) 0.27204(15) 0.89350(12) 0.0161(3) Uani 1 1 d . . . . .
N7 N 0.33918(14) 0.45912(14) 0.19589(10) 0.0199(3) Uani 1 1 d . . . . .
C8 C 0.44524(18) 0.30221(17) 0.99039(12) 0.0203(4) Uani 1 1 d . . . . .
H8 H 0.388752 0.360492 1.005607 0.024 Uiso 1 1 calc R U . . .
N8 N 0.28851(13) 0.43633(13) 0.35632(10) 0.0154(3) Uani 1 1 d . . . . .
C9 C 0.38114(16) 0.29409(15) 0.71746(12) 0.0162(3) Uani 1 1 d . . . . .
H9 H 0.417534 0.228212 0.687922 0.019 Uiso 1 1 calc R U . . .
N9 N 0.31306(13) 0.36973(13) 0.66916(10) 0.0161(3) Uani 1 1 d . . . . .
C10 C 0.28260(17) 0.44660(16) 0.74194(12) 0.0188(3) Uani 1 1 d . . . . .
H10 H 0.233236 0.511945 0.728675 0.023 Uiso 1 1 calc R U . . .
N10 N 0.32650(15) 0.42383(14) 0.83200(11) 0.0197(3) Uani 1 1 d . . . . .
C11 C 0.56794(15) 0.32629(15) 0.48622(11) 0.0125(3) Uani 1 1 d . . . . .
N11 N 0.39110(14) 0.32460(13) 0.81500(10) 0.0157(3) Uani 1 1 d . . . . .
C12 C 0.67210(15) 0.24587(15) 0.50780(11) 0.0123(3) Uani 1 1 d . . . . .
N12 N 0.57602(14) 0.14714(13) 0.78283(10) 0.0170(3) Uani 1 1 d . . . . .
C13 C 0.80931(15) 0.29465(15) 0.49611(11) 0.0125(3) Uani 1 1 d . . . . .
H13 H 0.836953 0.379328 0.476011 0.015 Uiso 1 1 calc R U . . .
N13 N 0.69440(14) 0.05377(13) 0.92016(10) 0.0156(3) Uani 1 1 d . . . . .
C14 C 0.90586(15) 0.21941(15) 0.51384(11) 0.0124(3) Uani 1 1 d . . . . .
N14 N 0.66127(14) 0.11266(13) 1.13288(10) 0.0157(3) Uani 1 1 d . . . . .
C15 C 1.05393(15) 0.27639(15) 0.50734(11) 0.0131(3) Uani 1 1 d . . . . .
N15 N 0.64790(16) 0.15171(15) 1.22841(10) 0.0230(3) Uani 1 1 d . . . . .
C16 C 0.86492(15) 0.09390(15) 0.54017(11) 0.0130(3) Uani 1 1 d . . . . .
H16 H 0.930537 0.041676 0.549540 0.016 Uiso 1 1 calc R U . . .
N16 N 0.77346(15) -0.00219(14) 1.22512(10) 0.0203(3) Uani 1 1 d . . . . .
C17 C 0.72827(16) 0.04487(15) 0.55276(11) 0.0147(3) Uani 1 1 d . . . . .
H17 H 0.700396 -0.040583 0.570902 0.018 Uiso 1 1 calc R U . . .
C18 C 0.63271(15) 0.12189(15) 0.53859(11) 0.0138(3) Uani 1 1 d . . . . .
H18 H 0.539906 0.089785 0.549963 0.017 Uiso 1 1 calc R U . . .
C19 C 0.36761(17) 0.41265(17) 0.28200(12) 0.0191(3) Uani 1 1 d . . . . .
H19 H 0.438225 0.365919 0.291696 0.023 Uiso 1 1 calc R U . . .
C20 C 0.20472(16) 0.50247(15) 0.31283(11) 0.0150(3) Uani 1 1 d . . . . .
H20 H 0.134917 0.533860 0.344455 0.018 Uiso 1 1 calc R U . . .
C21 C 0.19203(16) 0.55856(15) 0.04240(12) 0.0160(3) Uani 1 1 d . . . . .
H21 H 0.249578 0.501793 0.025760 0.019 Uiso 1 1 calc R U . . .
C22 C 0.17060(16) 0.57924(15) 0.13990(12) 0.0141(3) Uani 1 1 d . . . . .
C23 C 0.08641(16) 0.66650(15) 0.16313(11) 0.0142(3) Uani 1 1 d . . . . .
C24 C 0.02359(15) 0.72863(15) 0.08502(11) 0.0138(3) Uani 1 1 d . . . . .
C25 C 0.04648(16) 0.70236(15) -0.01581(11) 0.0143(3) Uani 1 1 d . . . . .
C26 C 0.13052(16) 0.61972(15) -0.03460(12) 0.0159(3) Uani 1 1 d . . . . .
H26 H 0.148208 0.602780 -0.101521 0.019 Uiso 1 1 calc R U . . .
C27 C -0.06928(18) 0.80235(16) -0.23999(12) 0.0204(3) Uani 1 1 d . . . . .
H27 H -0.077178 0.802084 -0.310488 0.024 Uiso 1 1 calc R U . . .
C28 C -0.0928(2) 0.84976(19) -0.09259(13) 0.0266(4) Uani 1 1 d . . . . .
H28 H -0.117412 0.887032 -0.033663 0.032 Uiso 1 1 calc R U . . .
 
loop_
 _atom_site_aniso_label
 _atom_site_aniso_U_11
 _atom_site_aniso_U_22
 _atom_site_aniso_U_33
 _atom_site_aniso_U_23
 _atom_site_aniso_U_13
 _atom_site_aniso_U_12
S1_1 0.0216(2) 0.0206(2) 0.01307(18) 0.00116(15) 0.00239(16) 0.00984(17)
O1_1 0.0133(5) 0.0123(5) 0.0195(6) 0.0019(4) -0.0003(4) 0.0025(4)
C1_1 0.0268(9) 0.0283(10) 0.0146(8) 0.0006(7) -0.0015(7) 0.0083(8)
Zn1_1 0.00803(9) 0.01325(10) 0.01438(9) 0.00203(6) 0.00023(7) 0.00328(7)
N1_1 0.0336(9) 0.0326(9) 0.0182(7) 0.0022(6) -0.0024(7) 0.0165(7)
O2_1 0.0099(5) 0.0154(6) 0.0248(6) 0.0032(4) 0.0026(5) 0.0040(4)
C2_1 0.0202(8) 0.0192(8) 0.0172(8) 0.0015(6) 0.0003(7) 0.0062(7)
N2 0.0182(7) 0.0159(7) 0.0118(6) -0.0007(5) 0.0013(5) 0.0033(6)
S2 0.0199(2) 0.0220(2) 0.01302(18) -0.00008(15) 0.00021(15) 0.01068(17)
C3 0.0156(7) 0.0167(8) 0.0137(7) 0.0013(6) -0.0011(6) 0.0031(6)
N3 0.0289(8) 0.0206(8) 0.0117(6) -0.0008(5) -0.0004(6) 0.0068(6)
O3 0.0110(5) 0.0148(6) 0.0276(6) 0.0027(5) 0.0000(5) 0.0021(4)
C4 0.0118(7) 0.0134(8) 0.0161(8) 0.0013(6) 0.0006(6) 0.0017(6)
N4 0.0161(6) 0.0178(7) 0.0149(6) 0.0011(5) 0.0010(5) 0.0045(6)
O4 0.0108(5) 0.0201(6) 0.0262(6) -0.0012(5) 0.0022(5) 0.0057(5)
C5 0.0237(9) 0.0243(9) 0.0147(8) 0.0000(6) 0.0024(7) 0.0091(7)
N5 0.0192(7) 0.0182(7) 0.0154(7) 0.0013(5) 0.0014(6) 0.0069(6)
C6 0.0136(7) 0.0154(8) 0.0145(7) 0.0011(6) 0.0012(6) 0.0024(6)
N6 0.0140(6) 0.0153(7) 0.0145(6) 0.0007(5) -0.0001(5) 0.0049(5)
C7 0.0157(7) 0.0169(8) 0.0165(8) 0.0030(6) 0.0001(6) 0.0052(6)
N7 0.0160(7) 0.0277(8) 0.0191(7) 0.0027(6) 0.0020(6) 0.0114(6)
C8 0.0236(8) 0.0227(9) 0.0180(8) 0.0008(7) 0.0025(7) 0.0129(7)
N8 0.0141(6) 0.0163(7) 0.0160(7) 0.0010(5) -0.0006(5) 0.0036(5)
C9 0.0169(8) 0.0162(8) 0.0161(8) 0.0024(6) 0.0006(6) 0.0045(6)
N9 0.0142(6) 0.0160(7) 0.0185(7) 0.0035(5) 0.0001(5) 0.0041(5)
C10 0.0187(8) 0.0199(8) 0.0198(8) 0.0037(6) 0.0016(7) 0.0085(7)
N10 0.0210(7) 0.0202(7) 0.0212(7) 0.0014(6) 0.0017(6) 0.0119(6)
C11 0.0114(7) 0.0145(8) 0.0117(7) -0.0020(6) -0.0004(6) 0.0031(6)
N11 0.0164(6) 0.0171(7) 0.0153(6) 0.0017(5) 0.0013(5) 0.0075(6)
C12 0.0112(7) 0.0140(8) 0.0123(7) -0.0012(6) 0.0001(6) 0.0038(6)
N12 0.0176(7) 0.0201(7) 0.0151(7) 0.0009(5) -0.0001(5) 0.0080(6)
C13 0.0115(7) 0.0129(7) 0.0132(7) -0.0003(6) 0.0008(6) 0.0026(6)
N13 0.0158(6) 0.0169(7) 0.0144(6) 0.0003(5) 0.0001(5) 0.0047(5)
C14 0.0108(7) 0.0160(8) 0.0105(7) -0.0017(6) 0.0005(6) 0.0032(6)
N14 0.0177(7) 0.0180(7) 0.0121(6) -0.0007(5) 0.0020(5) 0.0047(6)
C15 0.0112(7) 0.0176(8) 0.0107(7) 0.0016(6) -0.0013(6) 0.0040(6)
N15 0.0279(8) 0.0302(8) 0.0134(7) -0.0018(6) -0.0003(6) 0.0122(7)
C16 0.0126(7) 0.0149(8) 0.0127(7) -0.0014(6) -0.0009(6) 0.0059(6)
N16 0.0222(7) 0.0224(8) 0.0172(7) 0.0029(6) -0.0008(6) 0.0067(6)
C17 0.0167(7) 0.0121(7) 0.0153(7) 0.0001(6) 0.0016(6) 0.0025(6)
C18 0.0104(7) 0.0154(8) 0.0155(7) -0.0013(6) 0.0017(6) 0.0019(6)
C19 0.0176(8) 0.0243(9) 0.0176(8) 0.0021(6) 0.0004(7) 0.0095(7)
C20 0.0159(7) 0.0154(8) 0.0144(7) 0.0001(6) 0.0003(6) 0.0045(6)
C21 0.0156(7) 0.0156(8) 0.0173(8) -0.0008(6) -0.0004(6) 0.0046(6)
C22 0.0129(7) 0.0138(8) 0.0154(7) 0.0019(6) -0.0011(6) 0.0021(6)
C23 0.0134(7) 0.0139(8) 0.0143(7) 0.0013(6) 0.0003(6) 0.0007(6)
C24 0.0124(7) 0.0136(8) 0.0153(7) 0.0013(6) 0.0001(6) 0.0020(6)
C25 0.0146(7) 0.0139(8) 0.0136(7) 0.0013(6) -0.0013(6) 0.0014(6)
C26 0.0175(8) 0.0169(8) 0.0132(7) -0.0007(6) 0.0014(6) 0.0029(6)
C27 0.0253(9) 0.0204(9) 0.0148(8) 0.0013(6) -0.0017(7) 0.0034(7)
C28 0.0342(10) 0.0344(11) 0.0170(8) 0.0013(7) -0.0001(8) 0.0212(9)
 
_geom_special_details
;
 All esds (except the esd in the dihedral angle between two l.s. planes)
 are estimated using the full covariance matrix.  The cell esds are taken
 into account individually in the estimation of esds in distances, angles
 and torsion angles; correlations between esds in cell parameters are only
 used when they are defined by crystal symmetry.  An approximate (isotropic)
 treatment of cell esds is used for estimating esds involving l.s. planes.
;
 
loop_
 _geom_bond_atom_site_label_1
 _geom_bond_atom_site_label_2
 _geom_bond_distance
 _geom_bond_site_symmetry_2
 _geom_bond_publ_flag
S1_1 N5 1.6125(14) . ?
S1_1 N4 1.6161(14) . ?
O1_1 C11 1.2506(19) . ?
O1_1 Zn1_1 2.0701(11) 2_666 ?
C1_1 N15 1.313(2) . ?
C1_1 N16 1.364(2) . ?
C1_1 H1_1 0.9500 . ?
Zn1_1 O2_1 2.0251(11) . ?
Zn1_1 O3 2.1258(11) 1_455 ?
Zn1_1 N8 2.1488(13) . ?
Zn1_1 N9 2.1626(14) . ?
Zn1_1 O4 2.2609(12) 1_455 ?
Zn1_1 C15 2.5113(15) 1_455 ?
N1_1 C28 1.313(2) . ?
N1_1 C27 1.357(2) . ?
O2_1 C11 1.2680(19) . ?
C2_1 N16 1.314(2) . ?
C2_1 N14 1.347(2) . ?
C2_1 H2_1 0.9500 . ?
N2 C28 1.339(2) . ?
N2 N3 1.3656(19) . ?
N2 C25 1.425(2) . ?
S2 N12 1.6130(14) . ?
S2 N13 1.6198(14) . ?
C3 C5 1.363(2) . ?
C3 N14 1.422(2) . ?
C3 C4 1.423(2) . ?
N3 C27 1.319(2) . ?
O3 C15 1.263(2) . ?
C4 N13 1.350(2) . ?
C4 C6 1.434(2) . ?
N4 C24 1.347(2) . ?
O4 C15 1.2563(19) . ?
C5 C8 1.417(2) . ?
C5 H5 0.9500 . ?
N5 C23 1.341(2) . ?
C6 N12 1.343(2) . ?
C6 C7 1.423(2) . ?
N6 C20 1.344(2) . ?
N6 N7 1.3752(19) . ?
N6 C22 1.4238(19) . ?
C7 C8 1.363(2) . ?
C7 N11 1.417(2) . ?
N7 C19 1.311(2) . ?
C8 H8 0.9500 . ?
N8 C20 1.324(2) . ?
N8 C19 1.359(2) . ?
C9 N9 1.320(2) . ?
C9 N11 1.346(2) . ?
C9 H9 0.9500 . ?
N9 C10 1.359(2) . ?
C10 N10 1.314(2) . ?
C10 H10 0.9500 . ?
N10 N11 1.3753(19) . ?
C11 C12 1.501(2) . ?
C12 C13 1.394(2) . ?
C12 C18 1.395(2) . ?
C13 C14 1.392(2) . ?
C13 H13 0.9500 . ?
C14 C16 1.394(2) . ?
C14 C15 1.503(2) . ?
N14 N15 1.3705(19) . ?
C16 C17 1.391(2) . ?
C16 H16 0.9500 . ?
C17 C18 1.392(2) . ?
C17 H17 0.9500 . ?
C18 H18 0.9500 . ?
C19 H19 0.9500 . ?
C20 H20 0.9500 . ?
C21 C22 1.365(2) . ?
C21 C26 1.417(2) . ?
C21 H21 0.9500 . ?
C22 C23 1.421(2) . ?
C23 C24 1.440(2) . ?
C24 C25 1.423(2) . ?
C25 C26 1.368(2) . ?
C26 H26 0.9500 . ?
C27 H27 0.9500 . ?
C28 H28 0.9500 . ?
 
loop_
 _geom_angle_atom_site_label_1
 _geom_angle_atom_site_label_2
 _geom_angle_atom_site_label_3
 _geom_angle
 _geom_angle_site_symmetry_1
 _geom_angle_site_symmetry_3
 _geom_angle_publ_flag
N5 S1_1 N4 100.52(7) . . ?
C11 O1_1 Zn1_1 141.99(10) . 2_666 ?
N15 C1_1 N16 115.86(15) . . ?
N15 C1_1 H1_1 122.1 . . ?
N16 C1_1 H1_1 122.1 . . ?
O2_1 Zn1_1 O1_1 107.32(4) . 2_666 ?
O2_1 Zn1_1 O3 149.51(5) . 1_455 ?
O1_1 Zn1_1 O3 101.90(4) 2_666 1_455 ?
O2_1 Zn1_1 N8 98.84(5) . . ?
O1_1 Zn1_1 N8 90.21(5) 2_666 . ?
O3 Zn1_1 N8 89.43(5) 1_455 . ?
O2_1 Zn1_1 N9 88.16(5) . . ?
O1_1 Zn1_1 N9 79.77(5) 2_666 . ?
O3 Zn1_1 N9 88.64(5) 1_455 . ?
N8 Zn1_1 N9 169.16(5) . . ?
O2_1 Zn1_1 O4 89.75(4) . 1_455 ?
O1_1 Zn1_1 O4 160.71(4) 2_666 1_455 ?
O3 Zn1_1 O4 60.09(4) 1_455 1_455 ?
N8 Zn1_1 O4 96.09(5) . 1_455 ?
N9 Zn1_1 O4 92.18(5) . 1_455 ?
O2_1 Zn1_1 C15 119.49(5) . 1_455 ?
O1_1 Zn1_1 C15 131.60(5) 2_666 1_455 ?
O3 Zn1_1 C15 30.17(5) 1_455 1_455 ?
N8 Zn1_1 C15 93.98(5) . 1_455 ?
N9 Zn1_1 C15 89.69(5) . 1_455 ?
O4 Zn1_1 C15 29.94(5) 1_455 1_455 ?
C28 N1_1 C27 102.39(15) . . ?
C11 O2_1 Zn1_1 122.70(10) . . ?
N16 C2_1 N14 110.64(15) . . ?
N16 C2_1 H2_1 124.7 . . ?
N14 C2_1 H2_1 124.7 . . ?
C28 N2 N3 109.52(13) . . ?
C28 N2 C25 130.53(14) . . ?
N3 N2 C25 119.93(13) . . ?
N12 S2 N13 100.19(7) . . ?
C5 C3 N14 120.93(14) . . ?
C5 C3 C4 118.08(14) . . ?
N14 C3 C4 120.99(14) . . ?
C27 N3 N2 101.71(14) . . ?
C15 O3 Zn1_1 92.05(9) . 1_655 ?
N13 C4 C3 127.32(14) . . ?
N13 C4 C6 112.97(14) . . ?
C3 C4 C6 119.71(14) . . ?
C24 N4 S1_1 106.71(11) . . ?
C15 O4 Zn1_1 86.13(9) . 1_655 ?
C3 C5 C8 122.19(15) . . ?
C3 C5 H5 118.9 . . ?
C8 C5 H5 118.9 . . ?
C23 N5 S1_1 107.12(11) . . ?
N12 C6 C7 126.91(14) . . ?
N12 C6 C4 112.72(14) . . ?
C7 C6 C4 120.36(14) . . ?
C20 N6 N7 109.80(13) . . ?
C20 N6 C22 130.59(14) . . ?
N7 N6 C22 119.56(13) . . ?
C8 C7 N11 121.61(15) . . ?
C8 C7 C6 117.98(14) . . ?
N11 C7 C6 120.40(14) . . ?
C19 N7 N6 102.18(13) . . ?
C7 C8 C5 121.67(16) . . ?
C7 C8 H8 119.2 . . ?
C5 C8 H8 119.2 . . ?
C20 N8 C19 103.54(13) . . ?
C20 N8 Zn1_1 127.77(11) . . ?
C19 N8 Zn1_1 128.67(11) . . ?
N9 C9 N11 109.54(14) . . ?
N9 C9 H9 125.2 . . ?
N11 C9 H9 125.2 . . ?
C9 N9 C10 103.59(13) . . ?
C9 N9 Zn1_1 124.59(11) . . ?
C10 N9 Zn1_1 130.59(11) . . ?
N10 C10 N9 115.03(15) . . ?
N10 C10 H10 122.5 . . ?
N9 C10 H10 122.5 . . ?
C10 N10 N11 101.96(13) . . ?
O1_1 C11 O2_1 123.99(14) . . ?
O1_1 C11 C12 118.81(14) . . ?
O2_1 C11 C12 117.16(14) . . ?
C9 N11 N10 109.88(13) . . ?
C9 N11 C7 128.95(14) . . ?
N10 N11 C7 121.13(13) . . ?
C13 C12 C18 119.52(14) . . ?
C13 C12 C11 119.91(14) . . ?
C18 C12 C11 120.56(14) . . ?
C6 N12 S2 107.38(11) . . ?
C14 C13 C12 120.07(15) . . ?
C14 C13 H13 120.0 . . ?
C12 C13 H13 120.0 . . ?
C4 N13 S2 106.74(11) . . ?
C13 C14 C16 119.98(14) . . ?
C13 C14 C15 119.17(14) . . ?
C16 C14 C15 120.83(13) . . ?
C2_1 N14 N15 109.53(13) . . ?
C2_1 N14 C3 130.53(14) . . ?
N15 N14 C3 119.91(13) . . ?
O4 C15 O3 121.65(14) . . ?
O4 C15 C14 119.94(14) . . ?
O3 C15 C14 118.40(13) . . ?
O4 C15 Zn1_1 63.93(8) . 1_655 ?
O3 C15 Zn1_1 57.78(8) . 1_655 ?
C14 C15 Zn1_1 174.88(11) . 1_655 ?
C1_1 N15 N14 101.67(14) . . ?
C17 C16 C14 120.23(14) . . ?
C17 C16 H16 119.9 . . ?
C14 C16 H16 119.9 . . ?
C2_1 N16 C1_1 102.31(14) . . ?
C16 C17 C18 119.54(15) . . ?
C16 C17 H17 120.2 . . ?
C18 C17 H17 120.2 . . ?
C17 C18 C12 120.55(14) . . ?
C17 C18 H18 119.7 . . ?
C12 C18 H18 119.7 . . ?
N7 C19 N8 114.99(15) . . ?
N7 C19 H19 122.5 . . ?
N8 C19 H19 122.5 . . ?
N8 C20 N6 109.47(14) . . ?
N8 C20 H20 125.3 . . ?
N6 C20 H20 125.3 . . ?
C22 C21 C26 121.57(15) . . ?
C22 C21 H21 119.2 . . ?
C26 C21 H21 119.2 . . ?
C21 C22 C23 118.23(14) . . ?
C21 C22 N6 121.30(14) . . ?
C23 C22 N6 120.45(14) . . ?
N5 C23 C22 126.88(14) . . ?
N5 C23 C24 112.78(14) . . ?
C22 C23 C24 120.30(14) . . ?
N4 C24 C25 127.48(14) . . ?
N4 C24 C23 112.87(14) . . ?
C25 C24 C23 119.61(14) . . ?
C26 C25 C24 118.07(14) . . ?
C26 C25 N2 121.10(14) . . ?
C24 C25 N2 120.83(14) . . ?
C25 C26 C21 122.20(15) . . ?
C25 C26 H26 118.9 . . ?
C21 C26 H26 118.9 . . ?
N3 C27 N1_1 115.54(15) . . ?
N3 C27 H27 122.2 . . ?
N1_1 C27 H27 122.2 . . ?
N1_1 C28 N2 110.83(16) . . ?
N1_1 C28 H28 124.6 . . ?
N2 C28 H28 124.6 . . ?
 
_refine_diff_density_max    0.373
_refine_diff_density_min   -0.337
_refine_diff_density_rms    0.062

_shelx_res_file
;
TITL pvl511_auto_a.res in P-1
    pvl511.res
    created by SHELXL-2018/3 at 15:56:29 on 21-Jun-2023
REM Old TITL pvl511_auto in P-1
REM SHELXT solution in P-1: R1 0.077, Rweak 0.005, Alpha 0.033
REM <I/s>   0.000 for    0 systematic absences,  Orientation as input
REM Formula found by SHELXT:  C35 N8 O5 S2 Zn
CELL  0.71073  10.0323  10.7897  13.4843   90.787   92.773  101.007
ZERR    3.000   0.0003   0.0004   0.0004    0.003    0.002    0.003
LATT  1
SFAC C H N O S ZN
UNIT 56 32 32 8 4 2

ACTA
TEMP -133
L.S. 10
BOND $H
LIST 4
SIZE 0.3 0.2 0.2
FMAP 2
PLAN 20
OMIT 0
BOND $H
WGHT    0.023200    0.987500
FVAR       0.25827
RESI 1 M001
S1    5   -0.034697    0.808613    0.239347    11.00000    0.02164    0.02057 =
         0.01307    0.00116    0.00239    0.00984
O1    4    0.605441    0.433118    0.450885    11.00000    0.01326    0.01230 =
         0.01950    0.00186   -0.00028    0.00251
C1    1    0.716852    0.079979    1.279489    11.00000    0.02684    0.02835 =
         0.01458    0.00057   -0.00154    0.00834
AFIX  43
H1    2    0.726696    0.085010    1.349935    11.00000   -1.20000
AFIX   0
ZN1   6    0.299118    0.384332    0.509348    11.00000    0.00803    0.01325 =
         0.01438    0.00203    0.00023    0.00328
N1    3   -0.128961    0.878600   -0.182974    11.00000    0.03364    0.03260 =
         0.01824    0.00218   -0.00236    0.01651
O2    4    0.445456    0.279062    0.502500    11.00000    0.00989    0.01537 =
         0.02481    0.00321    0.00256    0.00402
C2    1    0.736451    0.021721    1.133635    11.00000    0.02021    0.01921 =
         0.01722    0.00145    0.00033    0.00621
AFIX  43
H2    2    0.759544   -0.019456    1.075991    11.00000   -1.20000
RESI 0
AFIX   0
N2    3   -0.016384    0.760699   -0.094726    11.00000    0.01819    0.01591 =
         0.01182   -0.00073    0.00130    0.00331
S2    5    0.679617    0.051095    0.799959    11.00000    0.01986    0.02200 =
         0.01302   -0.00008    0.00021    0.01068
C3    1    0.595994    0.165577    1.052415    11.00000    0.01556    0.01668 =
         0.01372    0.00129   -0.00106    0.00306
N3    3    0.000397    0.728653   -0.191015    11.00000    0.02893    0.02060 =
         0.01169   -0.00078   -0.00042    0.00677
O3    4    1.090558    0.394575    0.518670    11.00000    0.01101    0.01482 =
         0.02760    0.00273    0.00001    0.00208
C4    1    0.615095    0.132447    0.952316    11.00000    0.01180    0.01338 =
         0.01608    0.00132    0.00064    0.00169
N4    3   -0.049262    0.811208    0.119548    11.00000    0.01608    0.01776 =
         0.01485    0.00113    0.00097    0.00453
O4    4    1.138129    0.206482    0.492444    11.00000    0.01084    0.02013 =
         0.02616   -0.00116    0.00220    0.00574
C5    1    0.512585    0.248844    1.069018    11.00000    0.02367    0.02426 =
         0.01471    0.00002    0.00240    0.00910
AFIX  43
H5    2    0.499140    0.271883    1.135520    11.00000   -1.20000
AFIX   0
N5    3    0.059552    0.704096    0.254018    11.00000    0.01922    0.01818 =
         0.01537    0.00126    0.00137    0.00686
C6    1    0.546594    0.186190    0.872774    11.00000    0.01356    0.01541 =
         0.01452    0.00111    0.00123    0.00239
N6    3    0.233700    0.518333    0.216997    11.00000    0.01402    0.01526 =
         0.01448    0.00074   -0.00011    0.00494
C7    1    0.459446    0.272041    0.893502    11.00000    0.01567    0.01694 =
         0.01648    0.00296    0.00011    0.00519
N7    3    0.339178    0.459121    0.195893    11.00000    0.01602    0.02775 =
         0.01907    0.00265    0.00204    0.01143
C8    1    0.445238    0.302209    0.990391    11.00000    0.02362    0.02266 =
         0.01803    0.00079    0.00245    0.01286
AFIX  43
H8    2    0.388752    0.360492    1.005607    11.00000   -1.20000
AFIX   0
N8    3    0.288507    0.436333    0.356320    11.00000    0.01408    0.01634 =
         0.01601    0.00103   -0.00059    0.00357
C9    1    0.381145    0.294086    0.717463    11.00000    0.01688    0.01621 =
         0.01613    0.00240    0.00064    0.00445
AFIX  43
H9    2    0.417534    0.228212    0.687922    11.00000   -1.20000
AFIX   0
N9    3    0.313064    0.369734    0.669160    11.00000    0.01425    0.01602 =
         0.01854    0.00352    0.00013    0.00413
C10   1    0.282601    0.446604    0.741937    11.00000    0.01867    0.01990 =
         0.01981    0.00371    0.00157    0.00851
AFIX  43
H10   2    0.233236    0.511945    0.728675    11.00000   -1.20000
AFIX   0
N10   3    0.326502    0.423830    0.832002    11.00000    0.02102    0.02018 =
         0.02121    0.00135    0.00169    0.01190
C11   1    0.567935    0.326291    0.486217    11.00000    0.01138    0.01451 =
         0.01170   -0.00196   -0.00039    0.00312
N11   3    0.391102    0.324598    0.814999    11.00000    0.01635    0.01708 =
         0.01532    0.00166    0.00133    0.00747
C12   1    0.672097    0.245871    0.507805    11.00000    0.01122    0.01398 =
         0.01229   -0.00118    0.00010    0.00379
N12   3    0.576023    0.147136    0.782832    11.00000    0.01755    0.02008 =
         0.01513    0.00086   -0.00010    0.00796
C13   1    0.809309    0.294646    0.496108    11.00000    0.01154    0.01289 =
         0.01316   -0.00031    0.00084    0.00256
AFIX  43
H13   2    0.836953    0.379328    0.476011    11.00000   -1.20000
AFIX   0
N13   3    0.694403    0.053771    0.920163    11.00000    0.01584    0.01694 =
         0.01443    0.00029    0.00009    0.00466
C14   1    0.905857    0.219408    0.513842    11.00000    0.01078    0.01603 =
         0.01053   -0.00174    0.00051    0.00317
N14   3    0.661269    0.112657    1.132882    11.00000    0.01768    0.01801 =
         0.01207   -0.00075    0.00202    0.00475
C15   1    1.053934    0.276390    0.507344    11.00000    0.01124    0.01759 =
         0.01067    0.00157   -0.00127    0.00398
N15   3    0.647900    0.151708    1.228409    11.00000    0.02786    0.03017 =
         0.01341   -0.00178   -0.00035    0.01222
C16   1    0.864917    0.093904    0.540166    11.00000    0.01258    0.01495 =
         0.01272   -0.00142   -0.00094    0.00594
AFIX  43
H16   2    0.930537    0.041676    0.549540    11.00000   -1.20000
AFIX   0
N16   3    0.773460   -0.002193    1.225120    11.00000    0.02216    0.02237 =
         0.01724    0.00289   -0.00085    0.00674
C17   1    0.728269    0.044869    0.552759    11.00000    0.01669    0.01210 =
         0.01535    0.00011    0.00165    0.00250
AFIX  43
H17   2    0.700396   -0.040583    0.570902    11.00000   -1.20000
AFIX   0
C18   1    0.632712    0.121885    0.538587    11.00000    0.01043    0.01536 =
         0.01547   -0.00126    0.00166    0.00187
AFIX  43
H18   2    0.539906    0.089785    0.549963    11.00000   -1.20000
AFIX   0
C19   1    0.367608    0.412651    0.281995    11.00000    0.01760    0.02429 =
         0.01765    0.00210    0.00040    0.00951
AFIX  43
H19   2    0.438225    0.365919    0.291696    11.00000   -1.20000
AFIX   0
C20   1    0.204723    0.502468    0.312831    11.00000    0.01588    0.01538 =
         0.01438    0.00013    0.00027    0.00453
AFIX  43
H20   2    0.134917    0.533860    0.344455    11.00000   -1.20000
AFIX   0
C21   1    0.192034    0.558557    0.042396    11.00000    0.01561    0.01561 =
         0.01733   -0.00076   -0.00036    0.00461
AFIX  43
H21   2    0.249578    0.501793    0.025760    11.00000   -1.20000
AFIX   0
C22   1    0.170601    0.579236    0.139903    11.00000    0.01293    0.01376 =
         0.01536    0.00187   -0.00109    0.00210
C23   1    0.086411    0.666505    0.163134    11.00000    0.01343    0.01395 =
         0.01432    0.00126    0.00034    0.00072
C24   1    0.023588    0.728633    0.085022    11.00000    0.01238    0.01355 =
         0.01530    0.00133    0.00014    0.00202
C25   1    0.046484    0.702365   -0.015811    11.00000    0.01459    0.01395 =
         0.01363    0.00131   -0.00126    0.00144
C26   1    0.130518    0.619718   -0.034602    11.00000    0.01748    0.01686 =
         0.01320   -0.00068    0.00139    0.00288
AFIX  43
H26   2    0.148208    0.602780   -0.101521    11.00000   -1.20000
AFIX   0
C27   1   -0.069284    0.802353   -0.239990    11.00000    0.02531    0.02044 =
         0.01477    0.00128   -0.00173    0.00339
AFIX  43
H27   2   -0.077178    0.802084   -0.310488    11.00000   -1.20000
AFIX   0
C28   1   -0.092759    0.849760   -0.092590    11.00000    0.03417    0.03444 =
         0.01700    0.00128   -0.00005    0.02117
AFIX  43
H28   2   -0.117412    0.887032   -0.033663    11.00000   -1.20000
REM #####
REM #####
AFIX   0
HKLF 4




REM  pvl511_auto_a.res in P-1
REM wR2 = 0.0637, GooF = S = 1.058, Restrained GooF = 1.058 for all data
REM R1 = 0.0266 for 6034 Fo > 4sig(Fo) and 0.0309 for all 6653 data
REM 460 parameters refined using 0 restraints

END

WGHT      0.0232      0.9875

REM Highest difference peak  0.373,  deepest hole -0.337,  1-sigma level  0.062
Q1    1   0.6201  0.2823  0.5012  11.00000  0.05    0.37
Q2    1   0.0565  0.6952  0.1174  11.00000  0.05    0.36
Q3    1   0.0374  0.7210  0.0335  11.00000  0.05    0.36
Q4    1   0.8789  0.1641  0.5327  11.00000  0.05    0.30
Q5    1   0.8641  0.2570  0.5118  11.00000  0.05    0.29
Q6    1   0.4326  0.3076  0.8603  11.00000  0.05    0.29
Q7    1   0.9727  0.2436  0.5173  11.00000  0.05    0.29
Q8    1   0.1642  0.5996  0.0111  11.00000  0.05    0.29
Q9    1   0.7347  0.2775  0.5033  11.00000  0.05    0.28
Q10   1   0.1181  0.6856 -0.0179  11.00000  0.05    0.28
Q11   1   0.4741  0.2631  1.0172  11.00000  0.05    0.27
Q12   1   0.4327  0.2683  0.9408  11.00000  0.05    0.27
Q13   1   0.0212  0.7354 -0.0540  11.00000  0.05    0.27
Q14   1  -0.0055  0.7443 -0.1347  11.00000  0.05    0.27
Q15   1   0.5131  0.2432  0.8790  11.00000  0.05    0.27
Q16   1   0.3054  0.3778  0.6108  11.00000  0.05    0.26
Q17   1   0.8028  0.0793  0.5673  11.00000  0.05    0.26
Q18   1   0.5251  0.1812  1.0503  11.00000  0.05    0.26
Q19   1   0.6596  0.1927  0.5360  11.00000  0.05    0.26
Q20   1   0.6017  0.1775  0.9149  11.00000  0.05    0.26
;
_shelx_res_checksum   40150

_shelx_hkl_file
;
   0   0  -2  193.47    3.36
   0   0   2  198.97    3.37
   0   0  -2  193.79    3.43
   0   0  -2  195.64    3.46
   0   0   2  192.59    3.43
   0   0   3 3496.21   54.73
   0   0  -3 3570.53   54.97
   0   0   3 3583.26   54.97
   0   0   3 3525.22   55.08
   0   0  -3 3384.69   55.11
   0   0  -3 3617.55   55.10
   0   0  -4 2263.56   35.79
   0   0   4 2187.63   35.12
   0   0   4 2274.84   35.45
   0   0  -4 2283.11   35.45
   0   0  -4 2234.59   35.65
   0   0  -4 2321.47   35.62
   0   0   4 2244.66   35.60
   0   0   5  609.02   10.05
   0   0  -5  627.13   10.86
   0   0  -5  618.13   10.42
   0   0   5  626.12   10.44
   0   0   5  615.39   10.63
   0   0  -5  615.83   10.69
   0   0  -5  619.39   10.62
   0   0  -6  348.22    6.82
   0   0   6  331.37    5.89
   0   0   6  336.71    6.86
   0   0  -6  346.74    6.34
   0   0   6  343.70    6.33
   0   0  -6  360.70    6.68
   0   0   6  342.81    6.54
   0   0  -6  343.42    6.54
   0   0   7  844.54   14.09
   0   0  -7  913.03   15.36
   0   0   7  830.07   15.30
   0   0   7  879.74   14.68
   0   0  -7  867.04   14.65
   0   0  -7  878.82   15.07
   0   0   7  878.75   14.97
   0   0  -7  872.15   14.93
   0   0   8  205.24    4.05
   0   0  -8  234.55    5.29
   0   0   8  217.23    5.25
   0   0  -8  214.82    4.62
   0   0   8  220.02    4.65
   0   0  -8  212.74    4.85
   0   0  -8  219.20    5.00
   0   0   8  212.89    4.87
   0   0  -9   32.38    1.73
   0   0   9   31.86    1.09
   0   0   9   30.57    1.75
   0   0  -9   30.44    1.39
   0   0   9   32.08    1.43
   0   0   9   32.20    1.59
   0   0  -9   31.57    1.55
   0   0  -9   30.28    1.58
   0   0  10  123.63    2.77
   0   0  10  117.93    3.95
   0   0  10  130.88    3.44
   0   0 -10  123.51    3.37
   0   0 -10  137.76    3.89
   0   0 -10  121.39    3.59
   0   0  11   83.44    2.10
   0   0  11   80.13    3.26
   0   0 -11   82.14    2.71
   0   0  11   82.13    2.70
   0   0 -11   80.18    2.91
   0   0  12   27.57    1.07
   0   0  12   26.81    1.89
   0   0  12   28.69    1.56
   0   0 -12   26.92    1.71
   0   0 -12   29.12    1.56
   0   0 -12   26.66    1.67
   0   0  13   60.96    3.07
   0   0  13   64.73    1.73
   0   0 -13   62.31    2.82
   0   0 -13   64.50    2.53
   0   0 -13   65.34    2.79
   0   0  14   27.43    2.12
   0   0 -14   26.05    1.85
   0   0 -14   29.19    1.92
   0   0  15   16.65    1.76
   0   0 -15   17.02    1.57
   0   0 -15   18.76    1.62
   0   0  16   36.72    2.65
   0   0 -16   36.78    2.42
   0   0 -16   35.83    2.33
   0   0 -17   10.23    1.35
   0   0 -17    8.60    1.25
   0   0 -18    0.51    0.67
   0   0 -18    1.57    0.65
   0   1 -18   -0.66    0.68
   0  -1  17    1.16    0.82
   0   1 -17   -0.41    0.55
   0  -1  16   10.72    1.50
   0   1 -16    8.04    1.16
   0   1 -16   10.78    1.35
   0  -1  15   20.84    1.94
   0   1 -15   19.61    1.70
   0   1 -15   18.41    1.61
   0  -1  14    4.58    1.03
   0   1 -14    4.44    0.82
   0   1 -14    3.84    0.80
   0  -1  13    0.34    0.52
   0  -1  13    0.24    0.16
   0   1 -13   -0.05    0.39
   0   1 -13    0.16    0.41
   0   1 -13    0.47    0.43
   0  -1  12    6.52    0.47
   0  -1  12    6.63    0.46
   0  -1  12    6.85    0.96
   0   1 -12    8.80    0.92
   0   1 -12    6.31    0.83
   0   1 -12    7.20    0.95
   0  -1  11    0.54    0.15
   0  -1  11    0.68    0.51
   0  -1  11    1.07    0.23
   0   1 -11    0.60    0.32
   0  -1  11    1.21    0.43
   0   1 -11    1.07    0.51
   0   1 -11    0.21    0.41
   0   1 -11    0.64    0.38
   0  -1  10    6.69    0.46
   0  -1  10    7.09    0.48
   0  -1  10    4.73    0.76
   0   1 -10    6.37    0.70
   0   1 -10    8.11    0.85
   0  -1  10    7.24    0.81
   0   1 -10    6.68    0.77
   0   1 -10    6.95    0.81
   0  -1   9   15.36    0.70
   0   1  -9   17.58    1.28
   0  -1   9   16.18    0.70
   0  -1   9   15.21    1.22
   0   1  -9   14.69    1.10
   0   1  -9   16.62    1.04
   0   1  -9   14.39    1.06
   0  -1   9   14.56    1.05
   0   1  -9   15.53    1.10
   0  -1   8    0.76    0.19
   0  -1   8    0.91    0.38
   0  -1   8    0.98    0.19
   0   1  -8    1.00    0.30
   0  -1   8    0.98    0.33
   0   1  -8    0.70    0.36
   0   1  -8    0.95    0.36
   0   1  -8    0.82    0.36
   0  -1   7    2.50    0.27
   0  -1   7    2.79    0.52
   0   1  -7    2.46    0.39
   0  -1   7    2.80    0.46
   0   1  -7    2.32    0.45
   0   1  -7    2.65    0.44
   0   1  -7    2.56    0.46
   0  -1   6  176.43    4.09
   0   1  -6  178.69    4.02
   0   1  -6  176.16    3.80
   0  -1   6  182.59    3.86
   0   1  -6  175.99    3.89
   0  -1   6  183.11    3.93
   0   1  -6  176.45    3.91
   0  -1   6  176.25    3.92
   0  -1   5   55.38    1.75
   0  -1   5   53.86    1.28
   0   1  -5   55.48    1.60
   0   1  -5   54.08    1.71
   0   1  -5   53.83    1.65
   0   1  -5   51.34    1.58
   0  -1   5   51.43    1.62
   0  -1   5   54.18    1.64
   0  -1   4    6.04    0.34
   0   1  -4    6.03    0.47
   0   1  -4    6.05    0.51
   0  -1   4    5.40    0.46
   0   1  -4    5.35    0.44
   0   1  -4    5.43    0.51
   0  -1   4    5.17    0.47
   0  -1   3    0.24    0.15
   0   1  -3    0.58    0.23
   0  -1   3    0.46    0.22
   0   1  -3    0.03    0.24
   0   1  -3    0.58    0.28
   0  -1   3    0.44    0.22
   0   1  -3    0.65    0.20
   0  -1   2  205.27    3.55
   0   1  -2  206.94    3.55
   0  -1   2  202.27    3.76
   0   1  -2  211.26    3.79
   0   1  -2  208.75    3.62
   0  -1   2  211.79    3.62
   0  -1   2  208.70    3.72
   0  -1   1   22.25    0.68
   0   1  -1   23.33    0.68
   0   1  -1   23.43    0.63
   0  -1   1   23.99    0.63
   0  -1   0  117.82    2.18
   0   1   0  120.92    2.17
   0   1   1 1203.49   19.05
   0  -1  -1 1222.03   19.06
   0   1   1 1213.23   19.06
   0  -1  -1 1198.19   19.06
   0  -1  -2  143.07    2.74
   0   1   2  139.73    2.62
   0   1   2  141.97    2.75
   0  -1  -2  141.45    2.63
   0  -1  -2  140.53    2.59
   0   1   2  140.68    2.59
   0  -1  -3   54.80    1.52
   0  -1  -3   55.42    1.32
   0   1   3   56.25    1.33
   0   1   3   55.74    1.54
   0  -1  -3   56.39    1.34
   0   1   3   57.54    1.36
   0  -1  -4  436.39    7.78
   0  -1  -4  434.50    7.32
   0   1   4  428.56    7.34
   0   1   4  436.02    7.80
   0   1   4  434.03    7.42
   0  -1  -4  435.11    7.43
   0  -1  -4  442.95    7.67
   0  -1  -5  254.68    5.14
   0   1   5  250.58    4.60
   0  -1  -5  249.56    4.56
   0  -1  -5  257.06    4.75
   0   1   5  248.09    4.73
   0  -1  -5  253.45    5.00
   0  -1  -5  256.45    5.13
   0  -1  -6  993.46   16.14
   0  -1  -6 1013.95   17.02
   0   1   6  976.39   16.17
   0   1   6  980.88   17.15
   0  -1  -6  997.73   16.44
   0   1   6 1016.63   16.46
   0  -1  -6  976.20   16.91
   0  -1  -6 1010.73   16.78
   0   1   7    8.29    0.54
   0  -1  -7    8.75    0.80
   0   1   7    9.32    0.87
   0  -1  -7    9.09    0.65
   0   1   7    9.56    0.67
   0  -1  -7    9.68    0.77
   0  -1  -7   10.14    0.83
   0   1   8  192.45    3.92
   0  -1  -8  206.30    4.92
   0   1   8  200.64    5.02
   0  -1  -8  193.62    4.27
   0   1   8  192.46    4.26
   0  -1  -8  192.54    4.56
   0  -1  -8  197.76    4.77
   0  -1  -9  453.83    9.06
   0   1   9  419.17    7.70
   0   1   9  427.44    9.13
   0  -1  -9  427.65    8.20
   0   1   9  427.82    8.20
   0  -1  -9  446.89    8.89
   0  -1  -9  444.19    8.65
   0   1  10   31.16    1.19
   0   1  10   33.52    1.95
   0   1  10   31.13    1.45
   0  -1 -10   30.75    1.46
   0  -1 -10   28.80    1.60
   0  -1 -10   30.23    1.72
   0   1  11   33.47    1.28
   0   1  11   30.41    1.99
   0   1  11   34.19    1.61
   0  -1 -11   31.26    1.55
   0  -1 -11   31.58    1.75
   0   1  12  194.49    4.10
   0   1  12  184.02    5.69
   0  -1 -12  186.41    4.75
   0   1  12  195.30    4.80
   0  -1 -12  188.94    5.17
   0   1  13  116.49    4.42
   0  -1 -13  109.99    3.48
   0   1  13  120.66    3.61
   0  -1 -13  113.73    3.89
   0   1  14   20.53    1.90
   0   1  14   20.74    1.44
   0  -1 -14   22.48    1.69
   0   1  15   34.21    2.52
   0  -1 -15   32.56    2.19
   0  -1 -15   31.49    2.10
   0   1  16   23.81    2.16
   0  -1 -16   19.23    1.74
   0  -1 -16   20.31    1.74
   0  -1 -17   23.69    2.00
   0  -1 -17   26.63    2.09
   0  -1 -18   17.64    1.82
   0  -1 -18   17.23    1.76
   0  -2  17    0.28    0.60
   0   2 -17    0.32    0.52
   0  -2  16   63.17    3.44
   0   2 -16   65.01    3.32
   0  -2  15  121.02    4.71
   0   2 -15  118.75    4.48
   0  -2  14   10.23    1.33
   0   2 -14    8.23    1.12
   0  -2  13   82.43    3.48
   0  -2  13   82.92    2.01
   0   2 -13   85.45    3.42
   0  -2  12  297.38    5.52
   0  -2  12  279.56    7.27
   0  -2  12  301.27    5.54
   0   2 -12  302.91    7.27
   0   2 -12  305.37    6.87
   0   2 -12  301.65    7.09
   0  -2  11   12.39    0.66
   0  -2  11   10.50    1.09
   0  -2  11   11.76    0.65
   0   2 -11   10.72    0.97
   0   2 -11   12.23    1.14
   0  -2  11   11.30    1.06
   0   2 -11   10.98    1.00
   0   2 -11   10.74    1.03
   0  -2  10  151.52    3.23
   0  -2  10  150.01    4.40
   0  -2  10  157.90    3.27
   0   2 -10  159.86    4.40
   0   2 -10  157.98    4.13
   0   2 -10  158.53    4.19
   0  -2  10  153.97    4.24
   0   2 -10  154.49    4.22
   0  -2   9   81.05    2.01
   0  -2   9   79.31    2.83
   0   2  -9   83.78    2.65
   0   2  -9   82.41    2.81
   0   2  -9   83.98    2.66
   0   2  -9   78.61    2.67
   0  -2   9   82.85    2.74
   0  -2   8  141.52    3.01
   0  -2   8  139.51    3.83
   0   2  -8  145.51    3.86
   0   2  -8  149.09    3.69
   0   2  -8  146.75    3.75
   0   2  -8  144.55    3.64
   0  -2   8  146.53    3.75
   0  -2   8  145.65    3.66
   0  -2   7   87.47    2.05
   0  -2   7   84.20    2.62
   0   2  -7   83.84    2.63
   0   2  -7   85.43    2.50
   0  -2   7   88.60    2.59
   0  -2   7   90.38    2.51
   0   2  -7   93.60    2.64
   0   2  -7   85.65    2.46
   0  -2   6   46.94    1.72
   0  -2   6   49.36    1.36
   0   2  -6   50.59    1.71
   0   2  -6   48.02    1.78
   0  -2   6   50.93    1.65
   0  -2   6   49.56    1.73
   0   2  -6   48.74    1.62
   0  -2   5   63.83    1.58
   0  -2   5   58.92    1.83
   0   2  -5   63.88    1.88
   0   2  -5   61.34    1.95
   0   2  -5   62.16    1.75
   0  -2   5   63.76    1.77
   0  -2   5   62.93    1.88
   0   2  -4   70.10    1.67
   0  -2   4   71.68    1.85
   0  -2   4   71.41    1.70
   0  -2   4   73.56    2.01
   0   2  -4   77.11    2.07
   0  -2   4   71.53    1.79
   0   2  -4   70.95    1.79
   0  -2   4   73.66    1.95
   0   2  -3   31.08    0.97
   0  -2   3   31.99    0.96
   0  -2   3   32.51    1.01
   0   2  -3   33.48    1.20
   0  -2   3   31.29    1.13
   0  -2   3   32.33    0.98
   0   2  -3   31.12    0.97
   0   2  -2  102.76    2.16
   0  -2   2  103.12    2.17
   0  -2   2   94.54    1.86
   0  -2   2  102.07    2.29
   0   2  -2  104.59    2.31
   0  -2   2  104.52    2.04
   0  -2   1   18.49    0.73
   0   2  -1   18.41    0.74
   0  -2   1   17.66    0.72
   0   2  -1   17.63    0.72
   0  -2   0  226.81    4.15
   0   2   0  219.40    4.14
   0  -2   0  221.24    4.11
   0   2   0  230.75    4.13
   0   2   1   92.51    2.02
   0   2   1   92.77    2.10
   0  -2  -1   93.37    2.10
   0  -2  -1   94.22    2.02
   0  -2  -1   95.40    2.05
   0  -2  -2  655.25   10.93
   0   2   2  665.50   10.92
   0   2   2  650.80   10.93
   0  -2  -2  652.74   10.91
   0  -2  -3  107.52    2.41
   0   2   3  103.63    2.48
   0   2   3  106.40    2.41
   0  -2  -3  106.95    2.48
   0   2   3  111.58    2.35
   0   2   4  188.83    3.86
   0  -2  -4  199.20    4.12
   0  -2  -4  197.02    3.87
   0   2   4  197.16    4.11
   0   2   4  195.20    3.82
   0  -2  -4  198.28    3.85
   0  -2  -5  688.87   11.90
   0  -2  -5  671.19   11.42
   0   2   5  680.04   11.91
   0   2   5  662.39   11.44
   0   2   5  680.43   12.06
   0   2   5  692.22   11.45
   0  -2  -5  667.25   11.43
   0   2   6   37.14    1.60
   0  -2  -6   36.13    1.56
   0   2   6   37.10    1.30
   0  -2  -6   35.74    1.26
   0   2   6   38.41    1.71
   0  -2  -6   36.28    1.32
   0   2   6   36.97    1.32
   0  -2  -6   35.12    1.46
   0   2   7   17.37    0.88
   0  -2  -7   18.33    1.14
   0  -2  -7   18.70    0.89
   0   2   7   17.76    1.23
   0   2   7   17.44    0.93
   0  -2  -7   18.35    0.95
   0  -2  -7   18.73    1.11
   0  -2  -7   17.87    1.17
   0  -2  -8  376.89    7.72
   0  -2  -8  368.97    6.75
   0   2   8  353.64    6.77
   0   2   8  359.81    7.85
   0  -2  -8  360.72    6.97
   0   2   8  366.57    6.98
   0  -2  -8  361.41    7.40
   0  -2  -8  345.13    7.57
   0   2   9    3.52    0.44
   0  -2  -9    3.58    0.62
   0  -2  -9    3.55    0.42
   0   2   9    3.05    0.65
   0   2   9    3.22    0.46
   0  -2  -9    3.28    0.48
   0  -2  -9    2.18    0.44
   0  -2  -9    3.47    0.62
   0   2  10    4.66    0.51
   0   2  10    4.34    0.77
   0   2  10    3.76    0.52
   0  -2 -10    3.90    0.52
   0  -2 -10    4.29    0.68
   0   2  11   16.15    0.96
   0   2  11   18.59    1.54
   0   2  11   18.09    1.15
   0  -2 -11   16.85    1.12
   0  -2 -11   16.30    1.29
   0   2  12   33.09    1.41
   0   2  12   32.20    2.16
   0  -2 -12   29.70    1.58
   0   2  12   29.07    1.55
   0  -2 -12   29.15    1.80
   0   2  13   61.67    3.16
   0  -2 -13   59.33    2.40
   0   2  13   56.48    2.33
   0  -2 -13   57.82    2.69
   0   2  14   30.57    2.36
   0   2  14   34.26    1.82
   0  -2 -14   31.13    2.03
   0   2  15    1.66    0.75
   0   2  15    1.78    0.58
   0  -2 -15    1.25    0.62
   0   2  16    3.84    0.96
   0  -2 -16    3.82    0.87
   0  -2 -17   34.35    2.43
   0  -2 -17   35.19    2.40
   0  -2 -18    3.63    0.87
   0  -2 -18    5.37    1.11
   0  -3  17   65.39    3.55
   0   3 -17   58.98    3.31
   0  -3  16    1.05    0.63
   0   3 -16    1.09    0.53
   0  -3  15    2.54    0.81
   0   3 -15    2.31    0.77
   0   3 -14   84.82    3.63
   0  -3  14   87.79    3.70
   0   3 -13   82.99    3.45
   0  -3  13   88.75    3.55
   0  -3  13   87.21    2.21
   0  -3  12  131.28    2.95
   0  -3  12  125.52    4.22
   0  -3  12  130.98    3.00
   0   3 -12  122.58    4.18
   0  -3  11    0.50    0.22
   0  -3  11    0.59    0.37
   0   3 -11    0.01    0.29
   0   3 -11    0.18    0.43
   0   3 -11    0.69    0.43
   0  -3  10  243.93    5.95
   0  -3  10  242.47    4.90
   0   3 -10  245.76    6.07
   0   3 -10  251.34    5.85
   0  -3  10  249.08    5.91
   0   3 -10  254.36    5.73
   0  -3  10  243.56    5.68
   0  -3   9   67.01    2.49
   0  -3   9   71.49    1.98
   0   3  -9   73.36    2.54
   0   3  -9   66.35    2.59
   0   3  -9   70.34    2.38
   0  -3   9   66.82    2.49
   0  -3   9   70.00    2.40
   0  -3   8  101.18    2.47
   0  -3   8   92.59    2.89
   0   3  -8  101.64    2.99
   0   3  -8   97.09    3.09
   0  -3   8   95.98    2.96
   0   3  -8   98.31    2.79
   0  -3   8   96.77    2.79
   0  -3   7  199.72    4.09
   0  -3   7  194.25    4.49
   0   3  -7  202.58    4.64
   0   3  -7  199.55    4.77
   0  -3   7  206.52    4.67
   0  -3   7  199.35    4.38
   0   3  -7  195.17    4.34
   0  -3   6  164.71    3.77
   0  -3   6  169.07    3.57
   0   3  -6  169.06    4.12
   0   3  -6  172.15    4.03
   0  -3   6  166.94    4.10
   0  -3   6  168.72    3.98
   0   3  -6  174.59    3.74
   0  -3   6  167.36    3.71
   0   3  -5  131.31    2.92
   0  -3   5  135.00    2.98
   0  -3   5  129.80    2.97
   0   3  -5  134.56    3.38
   0  -3   5  134.32    3.37
   0  -3   5  133.32    3.26
   0  -3   5  137.83    3.01
   0   3  -5  130.94    2.97
   0  -3   4  256.33    4.84
   0  -3   4  248.11    4.58
   0   3  -4  243.67    4.75
   0  -3   4  245.73    5.12
   0   3  -4  257.62    5.18
   0  -3   4  243.00    4.68
   0   3  -3  175.78    3.69
   0  -3   3  183.63    3.29
   0  -3   3  181.73    3.76
   0   3  -3  186.57    3.98
   0  -3   3  180.33    3.91
   0  -3   3  184.70    3.55
   0  -3   2  165.48    3.45
   0  -3   2  159.52    3.49
   0   3  -2  161.65    3.52
   0   3  -2  161.07    3.40
   0  -3   1  129.56    2.92
   0   3  -1  128.14    2.89
   0  -3   1  129.78    2.91
   0   3  -1  132.04    2.94
   0   3   0    2.01    0.36
   0  -3   0    2.28    0.40
   0   3   0    2.58    0.19
   0   3   0    2.72    0.24
   0  -3   0    2.56    0.36
   0   3   0    2.60    0.41
   0   3   1  148.17    3.25
   0   3   1  147.07    3.11
   0  -3  -1  147.93    3.25
   0  -3  -1  147.83    3.16
   0   3   1  146.58    2.53
   0   3   1  146.90    2.84
   0  -3  -2  503.13    8.90
   0  -3  -2  489.46    8.75
   0   3   2  508.16    8.91
   0   3   2  500.25    8.76
   0   3   2  532.83    8.70
   0  -3  -2  497.65    8.03
   0  -3  -3    0.15    0.26
   0   3   3    0.46    0.36
   0  -3  -3    0.28    0.33
   0   3   3    0.06    0.27
   0   3   3    0.54    0.30
   0   3   3    0.27    0.26
   0  -3  -4    2.95    0.43
   0   3   4    2.95    0.48
   0  -3  -4    2.93    0.43
   0   3   4    3.13    0.43
   0   3   4    2.28    0.44
   0   3   4    3.11    0.43
   0  -3  -5    0.08    0.26
   0  -3  -5    0.54    0.34
   0   3   5   -0.28    0.35
   0   3   5    0.50    0.27
   0   3   5    0.54    0.28
   0   3   5    0.96    0.43
   0   3   6  488.91    9.40
   0   3   6  498.34    9.04
   0  -3  -6  490.98    8.97
   0  -3  -6  498.29    9.44
   0   3   6  498.43    8.91
   0   3   6  493.10    9.60
   0   3   7  131.43    3.69
   0  -3  -7  138.91    3.75
   0   3   7  134.79    3.33
   0  -3  -7  134.31    3.27
   0   3   7  138.59    3.92
   0   3   7  134.49    3.26
   0  -3  -7  131.55    3.26
   0  -3  -8   36.85    1.49
   0   3   8   34.51    1.81
   0  -3  -8   39.37    1.88
   0   3   8   37.83    1.54
   0   3   8   37.11    1.96
   0  -3  -8   38.26    1.55
   0   3   8   39.05    1.56
   0  -3  -8   36.48    1.74
   0   3   9  137.85    3.53
   0  -3  -9  149.88    4.27
   0  -3  -9  141.97    3.48
   0   3   9  142.31    4.38
   0  -3  -9  139.07    3.60
   0   3   9  141.55    3.58
   0  -3  -9  139.61    3.98
   0   3  10   29.09    1.39
   0  -3 -10   28.96    1.33
   0   3  10   28.66    1.89
   0   3  10   26.80    1.39
   0  -3 -10   26.96    1.40
   0  -3 -10   29.32    1.69
   0  -3 -11   41.41    1.66
   0   3  11   36.84    1.63
   0   3  11   37.18    2.29
   0   3  11   40.25    1.80
   0  -3 -11   39.90    1.80
   0  -3 -11   38.13    2.03
   0   3  12   -0.06    0.30
   0   3  12   -0.52    0.63
   0  -3 -12   -0.26    0.36
   0   3  12    0.14    0.33
   0  -3 -12   -0.20    0.41
   0   3  13   10.13    1.37
   0  -3 -13   10.23    1.00
   0   3  13    9.24    0.93
   0  -3 -13   11.58    1.24
   0   3  14    1.30    0.70
   0   3  14    1.82    0.48
   0  -3 -14    1.29    0.59
   0   3  15   11.84    1.59
   0   3  15   10.16    1.01
   0  -3 -15   10.14    1.28
   0  -3 -16    6.70    1.08
   0  -3 -17    9.09    1.26
   0  -4  17    3.25    0.98
   0  -4  16   14.21    1.58
   0   4 -16   12.61    1.54
   0  -4  15    3.16    0.81
   0   4 -15    3.76    0.90
   0  -4  14    2.26    0.72
   0   4 -14    1.60    0.69
   0   4 -13   39.50    2.36
   0  -4  13   40.08    2.26
   0  -4  12   70.91    2.15
   0  -4  12   71.19    2.95
   0   4 -12   67.69    3.05
   0  -4  11   17.97    1.36
   0  -4  11   18.53    1.01
   0   4 -11   18.91    1.49
   0  -4  11   17.51    1.27
   0   4 -11   17.95    1.26
   0  -4  10   81.22    2.37
   0  -4  10   80.64    2.86
   0   4 -10   83.61    2.99
   0   4 -10   83.08    3.13
   0   4 -10   79.78    2.71
   0  -4  10   79.91    2.72
   0  -4   9  359.48    7.59
   0  -4   9  362.58    7.07
   0   4  -9  370.93    8.09
   0   4  -9  373.16    7.90
   0  -4   9  370.16    7.48
   0  -4   9  378.96    7.95
   0   4  -9  370.58    7.47
   0   4  -8    4.29    0.56
   0  -4   8    4.51    0.52
   0  -4   8    4.71    0.58
   0   4  -8    4.95    0.67
   0   4  -8    5.43    0.73
   0  -4   8    5.07    0.69
   0  -4   8    4.24    0.56
   0  -4   7   36.08    1.43
   0  -4   7   36.00    1.46
   0   4  -7   37.19    1.77
   0  -4   7   36.19    1.76
   0   4  -7   35.84    1.69
   0  -4   7   38.37    1.73
   0  -4   7   38.38    1.51
   0   4  -6  288.44    5.70
   0  -4   6  288.08    5.77
   0  -4   6  285.26    5.59
   0   4  -6  294.46    6.32
   0  -4   6  297.35    6.32
   0  -4   6  290.48    5.70
   0  -4   6  287.46    6.13
   0   4  -5    0.97    0.31
   0  -4   5    0.76    0.24
   0  -4   5    0.74    0.30
   0   4  -5    0.70    0.38
   0  -4   5    0.75    0.28
   0  -4   5    1.11    0.36
   0  -4   4   11.21    0.52
   0  -4   4   11.39    0.80
   0   4  -4   11.11    0.75
   0   4  -4   11.18    0.86
   0  -4   4   12.96    0.89
   0  -4   4   11.02    0.66
   0   4  -3    4.85    0.52
   0  -4   3    5.51    0.26
   0  -4   3    6.51    0.62
   0  -4   3    5.28    0.58
   0   4  -3    5.59    0.63
   0  -4   2   52.45    1.77
   0   4  -2   54.91    1.84
   0  -4   2   51.92    1.79
   0   4  -2   51.39    1.73
   0  -4   1   28.07    1.27
   0  -4   1   27.03    1.21
   0   4  -1   27.52    1.28
   0   4  -1   28.54    1.24
   0  -4   0   27.60    1.29
   0   4   0   29.12    1.27
   0  -4   0   30.57    1.27
   0   4   0   30.87    0.79
   0   4   0   31.05    1.33
   0   4   0   32.19    0.92
   0  -4  -1  261.71    5.25
   0   4   1  249.35    4.96
   0   4   1  243.90    5.19
   0  -4  -1  248.99    5.08
   0   4   1  248.69    4.53
   0   4   1  250.83    4.24
   0  -4  -2  229.15    4.86
   0   4   2  228.88    4.88
   0   4   2  233.97    4.70
   0  -4  -2  235.95    4.78
   0   4   2  232.81    4.45
   0  -4  -2  220.76    3.78
   0  -4  -3   78.20    2.35
   0  -4  -3   77.04    2.26
   0   4   3   79.54    2.28
   0   4   3   79.33    2.37
   0   4   3   77.91    2.18
   0  -4  -3   77.50    1.55
   0  -4  -4   49.76    1.86
   0   4   4   51.59    1.86
   0   4   4   56.31    1.93
   0  -4  -4   53.49    1.89
   0   4   4   53.27    1.76
   0   4   4   55.93    1.91
   0   4   5   75.48    2.37
   0   4   5   75.46    2.41
   0  -4  -5   75.90    2.36
   0  -4  -5   75.02    2.42
   0   4   5   70.72    2.17
   0   4   5   73.97    2.45
   0  -4  -6   48.91    1.86
   0   4   6   52.51    1.95
   0   4   6   52.80    2.05
   0  -4  -6   52.08    2.04
   0   4   6   51.62    1.81
   0   4   6   50.35    2.09
   0   4   7   37.63    1.83
   0   4   7   38.65    1.67
   0  -4  -7   41.63    1.91
   0  -4  -7   35.18    1.58
   0   4   7   37.53    1.55
   0   4   7   41.59    1.98
   0   4   8   74.90    2.79
   0  -4  -8   73.85    2.42
   0  -4  -8   77.02    2.81
   0   4   8   74.03    2.49
   0   4   8   78.97    2.99
   0   4   8   73.18    2.37
   0   4   9   17.98    1.16
   0   4   9   18.49    1.41
   0  -4  -9   18.25    1.13
   0   4   9   19.31    1.50
   0   4   9   17.87    1.11
   0  -4  -9   18.13    1.31
   0   4  10    9.25    0.86
   0  -4 -10    8.90    0.83
   0   4  10    8.97    1.11
   0   4  10    7.66    0.78
   0  -4 -10    8.87    0.99
   0   4  11   15.09    1.11
   0  -4 -11   15.73    1.09
   0   4  11   14.22    1.43
   0   4  11   14.48    1.09
   0  -4 -11   14.38    1.28
   0  -4 -12   58.76    2.23
   0   4  12   57.88    2.30
   0   4  12   62.10    3.17
   0   4  12   59.95    2.37
   0  -4 -12   58.86    2.75
   0   4  13    1.83    0.72
   0   4  13    1.68    0.47
   0  -4 -13    1.53    0.67
   0   4  14    2.94    1.02
   0   4  14    4.12    0.66
   0  -4 -14    3.03    0.78
   0   4  15    0.83    0.75
   0  -4 -15    0.69    0.64
   0  -4 -16   44.96    2.76
   0  -4 -17    9.40    1.33
   0  -5  16   -0.16    0.59
   0   5 -16   -0.04    0.61
   0  -5  15   32.51    2.20
   0   5 -15   25.26    2.09
   0  -5  14    1.04    0.55
   0   5 -14    1.51    0.70
   0  -5  13    0.26    0.37
   0   5 -13    0.23    0.61
   0  -5  12    9.23    1.01
   0  -5  12    9.65    0.81
   0   5 -12   10.40    1.25
   0  -5  12   11.61    1.08
   0  -5  11  155.62    3.93
   0  -5  11  162.71    4.49
   0   5 -11  153.34    4.89
   0  -5  11  161.51    4.38
   0  -5  10   12.15    1.02
   0  -5  10   11.38    0.90
   0   5 -10   11.45    1.16
   0  -5  10   12.50    1.01
   0  -5   9    1.74    0.37
   0  -5   9    1.88    0.43
   0   5  -9    3.10    0.72
   0  -5   9    1.56    0.44
   0  -5   8  139.30    3.62
   0  -5   8  143.21    3.53
   0   5  -8  145.29    4.14
   0   5  -8  142.28    4.22
   0  -5   8  137.72    3.57
   0  -5   8  137.44    4.01
   0  -5   7   56.72    2.04
   0   5  -7   53.87    1.93
   0  -5   7   56.97    1.81
   0  -5   7   57.01    2.38
   0   5  -7   57.24    2.38
   0  -5   7   53.97    1.89
   0  -5   7   56.79    2.27
   0  -5   6    7.83    0.73
   0   5  -6    6.92    0.66
   0  -5   6    6.59    0.51
   0  -5   6    7.29    0.63
   0   5  -6    6.97    0.80
   0  -5   6    6.91    0.79
   0  -5   5  246.25    5.29
   0  -5   5  235.08    4.37
   0   5  -5  234.66    5.16
   0   5  -5  244.03    5.59
   0  -5   5  246.26    5.57
   0  -5   5  235.79    4.86
   0  -5   4   27.18    1.36
   0  -5   4   28.65    0.74
   0   5  -4   24.91    1.28
   0  -5   4   28.44    1.46
   0   5  -4   27.89    1.47
   0  -5   4   26.42    1.14
   0  -5   3  106.90    3.00
   0   5  -3  105.12    2.95
   0  -5   3  104.40    3.05
   0   5  -3  112.31    3.14
   0  -5   2    0.72    0.42
   0   5  -2    0.93    0.39
   0  -5   2    0.09    0.29
   0   5  -2    0.46    0.36
   0  -5   1  134.01    3.48
   0   5  -1  129.70    3.41
   0  -5   1  134.33    3.45
   0   5  -1  133.82    3.47
   0  -5   0   98.76    2.88
   0   5   0   96.75    2.80
   0  -5   0   99.58    2.82
   0   5   0  104.65    2.20
   0   5   0   96.68    2.86
   0   5   0   98.84    1.95
   0  -5  -1  100.52    2.93
   0   5   1  103.02    2.77
   0  -5  -1  103.10    2.88
   0   5   1  100.45    2.95
   0   5   1  102.95    2.04
   0   5   1  101.98    2.25
   0  -5  -2  184.26    4.39
   0   5   2  178.90    4.15
   0   5   2  182.62    4.41
   0  -5  -2  179.27    4.24
   0   5   2  181.86    3.79
   0   5   3  116.32    3.32
   0  -5  -3  116.66    3.28
   0   5   3  113.48    3.11
   0  -5  -3  123.27    3.25
   0   5   3  116.61    2.95
   0  -5  -3  119.34    2.14
   0  -5  -4   46.86    1.87
   0   5   4   45.54    1.83
   0   5   4   46.28    1.94
   0  -5  -4   44.67    1.88
   0  -5  -4   49.84    1.14
   0   5   4   47.96    1.81
   0   5   5   34.26    1.65
   0   5   5   34.89    1.63
   0  -5  -5   33.56    1.61
   0  -5  -5   32.11    1.57
   0   5   5   34.75    1.52
   0   5   5   33.35    1.60
   0   5   6   23.84    1.40
   0  -5  -6   27.74    1.53
   0  -5  -6   25.08    1.41
   0   5   6   26.17    1.47
   0   5   6   26.04    1.33
   0   5   6   25.00    1.47
   0   5   7  102.03    3.33
   0   5   7  101.41    3.19
   0  -5  -7  104.37    3.16
   0  -5  -7  111.21    3.46
   0   5   7  104.43    3.02
   0   5   7  102.87    3.41
   0   5   8  146.19    4.08
   0   5   8  146.70    4.32
   0  -5  -8  147.56    4.02
   0   5   8  155.12    3.94
   0   5   8  148.59    4.48
   0   5   9   29.45    1.61
   0  -5  -9   26.92    1.50
   0   5   9   26.15    1.73
   0   5   9   24.92    1.74
   0   5   9   25.06    1.42
   0  -5 -10    1.76    0.49
   0   5  10    1.78    0.64
   0   5  10    1.35    0.42
   0   5  10    0.98    0.46
   0   5  10    1.46    0.43
   0  -5 -10    1.59    0.57
   0  -5 -11   88.35    3.02
   0   5  11   90.13    3.11
   0   5  11   93.52    3.84
   0   5  11   87.39    2.98
   0  -5 -11   81.92    3.34
   0  -5 -12   22.90    1.45
   0   5  12   23.80    1.53
   0   5  12   23.28    1.93
   0   5  12   24.09    1.49
   0  -5 -12   24.30    1.80
   0  -5 -13    4.17    0.67
   0   5  13    4.24    0.99
   0   5  13    3.38    0.62
   0  -5 -13    3.70    0.81
   0   5  14    3.61    0.94
   0   5  14    2.13    0.55
   0  -5 -14    2.08    0.81
   0   5  15   28.64    2.45
   0  -5 -15   27.45    2.14
   0  -5 -16   15.47    1.69
   0   6 -15   13.33    1.58
   0  -6  14    1.81    0.61
   0   6 -14    2.58    0.84
   0  -6  13    4.00    0.70
   0   6 -13    2.17    0.74
   0  -6  12    3.27    0.53
   0  -6  12    1.84    0.53
   0   6 -12    1.93    0.69
   0  -6  12    2.47    0.57
   0  -6  11  106.36    3.26
   0  -6  11  116.16    3.50
   0   6 -11  116.74    4.22
   0  -6  11  105.88    3.41
   0  -6  10    3.09    0.52
   0  -6  10    3.58    0.61
   0  -6  10    3.82    0.61
   0   6 -10    5.30    0.88
   0  -6   9   57.60    2.25
   0  -6   9   61.41    2.11
   0   6  -9   61.86    2.79
   0  -6   9   62.44    2.27
   0  -6   8  120.57    3.50
   0   6  -8  116.58    3.38
   0  -6   8  125.39    3.07
   0   6  -8  120.10    3.98
   0  -6   8  122.67    3.32
   0  -6   7   18.44    1.20
   0   6  -7   17.96    1.15
   0  -6   7   16.53    0.84
   0   6  -7   16.79    1.33
   0  -6   7   17.04    1.03
   0  -6   7   18.27    1.32
   0  -6   6   34.70    1.69
   0  -6   6   32.86    1.06
   0   6  -6   34.29    1.63
   0   6  -6   35.59    1.89
   0  -6   6   36.88    1.89
   0  -6   6   30.60    1.38
   0  -6   5  202.59    4.98
   0   6  -5  216.97    5.02
   0   6  -5  206.47    5.26
   0  -6   5  212.87    5.29
   0  -6   5  206.22    4.52
   0  -6   4  124.70    3.54
   0   6  -4  124.78    3.67
   0  -6   4  120.21    3.62
   0   6  -4  122.75    3.47
   0  -6   3   31.73    1.62
   0  -6   3   30.34    1.59
   0   6  -3   32.22    1.66
   0   6  -3   33.73    1.62
   0  -6   2  251.78    5.80
   0   6  -2  252.38    5.77
   0   6  -2  254.08    5.82
   0  -6   2  259.92    5.82
   0  -6   1    8.21    0.92
   0   6  -1    8.80    0.61
   0   6  -1    9.22    0.87
   0   6  -1   10.28    1.02
   0  -6   1    8.72    0.84
   0  -6   0   60.43    2.32
   0  -6   0   61.68    2.27
   0   6   0   58.54    2.23
   0   6   0   57.37    2.27
   0   6   0   63.34    1.63
   0   6   1  281.98    5.98
   0  -6  -1  289.65    6.36
   0  -6  -1  290.60    6.22
   0   6   1  275.18    4.93
   0   6   1  284.51    5.18
   0   6   1  287.60    6.37
   0  -6  -2  182.98    4.70
   0   6   2  181.13    4.42
   0  -6  -2  194.61    4.65
   0   6   2  192.83    4.80
   0   6   2  182.97    3.91
   0  -6  -3   57.22    2.29
   0   6   3   57.64    2.15
   0   6   3   58.19    2.35
   0  -6  -3   58.02    2.22
   0   6   3   59.73    1.94
   0   6   4  136.15    3.90
   0  -6  -4  127.93    3.74
   0   6   4  128.26    3.62
   0  -6  -4  131.32    3.69
   0   6   4  133.74    3.46
   0  -6  -4  128.73    2.29
   0   6   5   63.21    2.39
   0   6   5   62.75    2.49
   0  -6  -5   61.19    2.42
   0  -6  -5   63.42    2.41
   0   6   5   61.87    2.27
   0  -6  -5   63.58    2.41
   0   6   5   62.03    2.30
   0  -6  -5   60.55    1.37
   0   6   6   26.24    1.58
   0  -6  -6   28.85    1.65
   0   6   6   30.34    1.70
   0  -6  -6   30.76    1.70
   0   6   6   29.27    1.52
   0   6   6   32.22    1.69
   0  -6  -7   52.00    2.27
   0   6   7   53.37    2.35
   0   6   7   55.89    2.40
   0   6   7   57.20    2.20
   0   6   7   52.83    2.37
   0   6   8   86.97    3.15
   0  -6  -8   88.35    3.07
   0   6   8   86.86    3.25
   0   6   8   87.26    2.91
   0   6   8   90.06    3.33
   0   6   9   52.71    2.38
   0   6   9   52.12    2.53
   0  -6  -9   53.51    2.34
   0   6   9   50.34    2.17
   0   6   9   58.83    2.75
   0   6  10   28.51    1.93
   0  -6 -10   26.81    1.66
   0   6  10   27.10    1.94
   0   6  10   24.78    1.52
   0   6  11    2.01    0.66
   0  -6 -11    1.28    0.45
   0   6  11    1.39    0.61
   0   6  11    1.96    0.51
   0  -6 -11    2.50    0.77
   0  -6 -12    6.81    0.89
   0   6  12    7.00    1.12
   0   6  12    6.27    0.84
   0  -6 -12    6.02    1.01
   0  -6 -13   49.02    2.35
   0   6  13   54.89    3.19
   0   6  13   49.55    2.34
   0  -6 -13   50.31    2.80
   0   6  14   56.96    3.37
   0  -6 -14   58.03    3.13
   0  -6 -15    0.46    0.62
   0  -6 -16   -1.08    0.76
   0   7 -14    8.36    1.29
   0   7 -13   24.08    2.08
   0  -7  13   24.68    1.63
   0  -7  12   80.70    2.91
   0  -7  12   83.02    2.91
   0   7 -12   81.60    3.73
   0  -7  12   82.09    3.03
   0  -7  11   62.78    2.52
   0  -7  11   63.06    2.33
   0   7 -11   58.84    3.04
   0  -7  11   61.51    2.48
   0  -7  10   84.12    3.02
   0  -7  10   86.68    2.64
   0   7 -10   85.60    3.60
   0  -7  10   87.37    2.93
   0  -7   9   37.25    1.91
   0  -7   9   40.68    1.54
   0   7  -9   37.15    2.25
   0  -7   9   40.33    1.81
   0  -7   8   21.61    1.45
   0   7  -8   25.33    1.49
   0   7  -8   24.16    1.74
   0  -7   8   23.89    1.33
   0  -7   7  117.03    3.63
   0   7  -7  117.82    3.55
   0   7  -7  113.61    3.92
   0  -7   7  112.54    3.18
   0  -7   6   88.00    3.07
   0   7  -6   91.73    3.05
   0   7  -6   87.28    3.29
   0  -7   6   90.09    2.68
   0  -7   5   22.82    1.45
   0   7  -5   25.10    1.50
   0   7  -5   23.21    1.57
   0  -7   5   21.27    1.17
   0  -7   4    2.87    0.56
   0   7  -4    2.86    0.54
   0  -7   4    2.96    0.61
   0   7  -4    2.90    0.60
   0  -7   3   76.49    2.83
   0  -7   3   76.05    2.82
   0   7  -3   72.64    2.81
   0   7  -3   77.90    2.80
   0  -7   2   96.79    3.27
   0  -7   2  100.41    3.29
   0   7  -2   99.67    3.29
   0   7  -2  100.87    3.31
   0   7  -2   99.12    2.70
   0  -7   1   18.58    1.37
   0   7  -1   19.43    1.41
   0  -7   1   18.81    1.33
   0   7  -1   18.12    1.36
   0   7  -1   18.37    0.95
   0  -7   0   29.38    1.70
   0   7   0   32.36    1.73
   0  -7   0   33.63    1.76
   0   7   0   35.33    1.18
   0   7   0   31.66    1.76
   0   7   1  324.38    7.10
   0  -7  -1  326.38    7.48
   0  -7  -1  362.98    7.53
   0   7   1  343.73    7.62
   0   7   1  350.09    5.94
   0   7   1  328.95    6.08
   0  -7  -2  109.75    3.63
   0   7   2  111.23    3.38
   0  -7  -2  121.26    3.63
   0   7   2  117.26    2.82
   0   7   2  121.20    3.78
   0   7   3   32.59    1.68
   0  -7  -3   32.27    1.82
   0   7   3   38.76    1.99
   0   7   3   35.11    1.46
   0  -7  -3   35.91    1.81
   0   7   4    2.67    0.60
   0   7   4    2.36    0.50
   0   7   4    2.85    0.58
   0  -7  -4    2.55    0.58
   0  -7  -4    2.96    0.58
   0  -7  -5    2.86    0.64
   0   7   5    4.21    0.70
   0   7   5    3.90    0.63
   0  -7  -5    4.43    0.77
   0   7   5    3.50    0.61
   0   7   5    3.99    0.72
   0  -7  -6   25.45    1.66
   0   7   6   24.98    1.60
   0   7   6   25.93    1.52
   0   7   6   24.72    1.53
   0  -7  -6   24.98    0.69
   0   7   7   10.05    1.07
   0  -7  -7   10.54    1.09
   0   7   7    9.07    0.94
   0   7   7    9.67    1.04
   0  -7  -7    9.94    0.51
   0   7   8   25.72    1.75
   0  -7  -8   21.64    1.57
   0   7   8   24.90    1.54
   0   7   8   24.54    1.71
   0  -7  -9   45.13    2.30
   0   7   9   45.78    2.47
   0   7   9   48.65    2.23
   0   7   9   49.90    2.58
   0   7  10    4.11    0.89
   0  -7 -10    4.78    0.85
   0   7  10    3.40    0.62
   0   7  10    4.39    0.87
   0   7  11    0.57    0.53
   0  -7 -11    0.31    0.42
   0   7  11    1.44    0.76
   0   7  11    1.21    0.48
   0  -7 -12   22.75    1.67
   0   7  12   21.35    1.86
   0   7  12   21.11    1.93
   0   7  12   19.47    1.48
   0  -7 -12   22.97    1.91
   0  -7 -13   24.94    1.74
   0   7  13   21.51    2.06
   0   7  13   21.36    1.56
   0  -7 -13   24.33    2.05
   0   7  14   18.13    1.95
   0  -7 -14   20.48    1.90
   0  -7 -15   30.05    2.36
   0   8 -13    9.73    1.39
   0   8 -12   10.17    1.39
   0  -8  11  101.38    3.55
   0   8 -11  104.55    4.31
   0  -8  11   98.91    3.33
   0  -8  10  104.62    3.64
   0   8 -10  113.64    4.36
   0  -8  10  102.96    3.33
   0  -8   9   16.50    1.36
   0   8  -9   21.17    1.76
   0  -8   9   20.79    1.32
   0  -8   8   19.30    1.45
   0   8  -8   18.92    1.62
   0  -8   8   18.21    1.20
   0  -8   7   61.85    2.67
   0   8  -7   62.63    2.92
   0  -8   7   61.69    2.27
   0  -8   6  104.76    3.64
   0   8  -6  110.10    3.93
   0  -8   6  108.34    3.14
   0  -8   5  143.46    4.37
   0   8  -5  145.27    4.56
   0  -8   5  141.52    3.74
   0  -8   4   13.38    1.20
   0   8  -4   11.10    1.17
   0  -8   3   22.23    1.58
   0   8  -3   24.00    1.65
   0   8  -3   24.40    1.32
   0  -8   2  121.66    3.95
   0   8  -2  123.17    3.96
   0   8  -2  120.84    3.16
   0  -8   1   95.02    3.42
   0   8  -1   90.52    3.28
   0   8  -1   92.19    2.47
   0  -8   0    2.02    0.58
   0   8   0    2.51    0.61
   0   8   0    2.30    0.58
   0   8   0    1.61    0.28
   0   8   1   30.36    1.67
   0  -8  -1   28.39    1.78
   0   8   1   29.34    0.97
   0   8   2  195.89    5.06
   0  -8  -2  195.62    5.40
   0   8   2  196.38    4.17
   0   8   3    5.00    0.73
   0  -8  -3    7.05    0.96
   0   8   3    7.08    0.68
   0   8   4    0.57    0.42
   0  -8  -4   -0.39    0.51
   0   8   4    0.08    0.28
   0  -8  -5   90.53    3.46
   0   8   5   93.73    3.34
   0   8   5   94.00    3.06
   0   8   6   23.00    1.62
   0  -8  -6   24.82    1.74
   0   8   6   24.12    1.58
   0   8   6   23.93    1.53
   0  -8  -7   54.13    2.64
   0   8   7   53.36    2.57
   0   8   7   53.13    2.43
   0   8   7   59.70    2.59
   0  -8  -8    2.77    0.69
   0   8   8    3.36    0.82
   0   8   8    3.46    0.74
   0   8   8    3.44    0.74
   0   8   9   23.66    1.84
   0  -8  -9   24.09    1.77
   0   8   9   23.08    1.60
   0   8   9   26.89    1.91
   0   8  10   14.99    1.52
   0  -8 -10    9.80    1.17
   0   8  10   12.47    1.20
   0   8  10   12.90    1.42
   0  -8 -11    8.63    1.10
   0   8  11    6.94    1.11
   0   8  11    6.74    1.11
   0   8  11    8.62    1.05
   0   8  12    3.09    0.90
   0  -8 -12    4.58    0.87
   0   8  12    3.98    0.94
   0   8  12    5.56    0.89
   0  -8 -12    2.96    0.84
   0   8  13    0.41    0.56
   0  -8 -13    0.17    0.50
   0   8  13    0.63    0.60
   0  -8 -13    0.24    0.55
   0  -8 -14    1.21    0.71
   0   9 -12   10.09    1.37
   0  -9  11    6.34    0.95
   0   9 -11    6.37    1.21
   0  -9  10   77.87    3.25
   0   9 -10   82.25    3.82
   0  -9  10   76.43    2.81
   0  -9   9   19.99    1.59
   0   9  -9   19.08    1.79
   0  -9   9   17.21    1.24
   0  -9   8    2.31    0.68
   0  -9   8    2.73    0.57
   0   9  -8    3.01    0.89
   0  -9   7   21.47    1.65
   0   9  -7   21.29    1.79
   0  -9   7   21.53    1.33
   0  -9   6   20.33    1.61
   0   9  -6   23.49    1.83
   0  -9   6   21.68    1.34
   0  -9   5   33.73    2.06
   0   9  -5   37.77    2.27
   0  -9   5   33.42    1.67
   0  -9   4  113.61    4.06
   0   9  -4  126.28    4.30
   0   9  -4  120.36    3.59
   0  -9   3   26.60    1.85
   0   9  -3   32.88    2.04
   0   9  -3   30.14    1.52
   0  -9   2    2.20    0.62
   0   9  -2    1.54    0.54
   0   9  -2    1.75    0.40
   0  -9   1   75.70    3.20
   0   9  -1   76.91    3.15
   0   9  -1   77.18    2.26
   0   9   0  137.03    4.18
   0  -9   0  132.84    4.49
   0   9   0  139.98    3.11
   0   9   1    1.64    0.56
   0  -9  -1    1.38    0.75
   0   9   2  179.49    4.99
   0  -9  -2  176.72    5.32
   0  -9  -3   30.90    2.03
   0   9   3   30.28    1.83
   0   9   3   29.26    1.37
   0   9   4   68.49    2.89
   0  -9  -4   69.88    3.12
   0   9   4   72.57    2.48
   0  -9  -5   73.69    3.24
   0   9   5   69.56    2.98
   0   9   5   70.86    2.63
   0  -9  -6    6.61    0.96
   0   9   6    8.02    1.08
   0   9   6    8.52    1.06
   0   9   6    7.21    0.88
   0  -9  -7  197.97    5.86
   0   9   7  181.19    5.55
   0   9   7  195.40    5.48
   0   9   7  196.24    5.41
   0   9   8   23.47    1.83
   0  -9  -8   24.70    1.89
   0   9   8   22.94    1.67
   0   9   8   25.74    1.81
   0   9   9    1.78    0.70
   0  -9  -9    1.69    0.67
   0   9   9    1.21    0.51
   0   9   9    0.77    0.65
   0   9  10  122.16    4.71
   0  -9 -10  127.28    4.60
   0   9  10  117.42    4.16
   0   9  10  127.38    4.69
   0   9  11   53.03    3.06
   0  -9 -11   48.85    2.76
   0   9  11   49.14    2.56
   0   9  11   50.39    2.94
   0   9  12    6.80    1.25
   0  -9 -12    4.93    0.98
   0   9  12    4.74    0.98
   0  -9 -13    8.88    1.30
   0 -10  11   10.95    1.32
   0 -10  10    0.32    0.48
   0  10 -10    0.57    0.69
   0 -10   9    0.41    0.48
   0  10  -9    1.74    0.78
   0 -10   8   15.61    1.52
   0 -10   8   15.61    1.18
   0  10  -8   15.94    1.67
   0 -10   7    3.18    0.82
   0  10  -7    1.38    0.69
   0 -10   7    1.62    0.49
   0 -10   6    2.89    0.84
   0  10  -6    1.40    0.66
   0 -10   6    1.40    0.42
   0 -10   5   33.32    2.18
   0  10  -5   33.37    1.88
   0  10  -5   33.27    2.27
   0 -10   5   34.20    1.79
   0 -10   4   83.94    3.60
   0  10  -4   85.57    3.68
   0  10  -4   86.44    3.01
   0 -10   3    2.38    0.67
   0  10  -3    1.66    0.66
   0  10  -3    2.01    0.47
   0 -10   2    1.16    0.60
   0  10  -2    1.55    0.69
   0  10  -2    1.66    0.39
   0  10  -1   17.39    1.49
   0 -10   1   17.80    1.63
   0  10  -1   19.07    1.61
   0  10  -1   16.82    0.99
   0  10   0   25.68    1.74
   0 -10   0   24.79    1.92
   0  10   0   27.96    1.12
   0 -10  -1  103.15    4.05
   0  10   1  101.59    3.69
   0 -10  -2   22.31    1.82
   0  10   2   18.36    1.52
   0  10   3   22.34    1.65
   0 -10  -3   21.67    1.79
   0 -10  -4   73.54    3.39
   0  10   4   64.69    2.98
   0  10   4   71.32    2.48
   0  10   5   58.29    2.84
   0 -10  -5   59.92    3.09
   0  10   5   63.10    2.46
   0 -10  -6  105.06    4.21
   0  10   6   98.54    3.87
   0  10   6   96.45    3.78
   0  10   6  103.88    3.51
   0  10   7   39.84    2.43
   0 -10  -7   44.60    2.66
   0  10   7   39.90    2.33
   0  10   7   41.84    2.25
   0  10   8  339.06    8.77
   0 -10  -8  352.61    9.00
   0  10   8  341.73    8.43
   0  10   8  352.33    8.44
   0  10   9   21.09    1.86
   0 -10  -9   19.36    1.80
   0  10   9   19.78    1.66
   0  10   9   21.17    1.81
   0  10  10   -0.69    0.78
   0 -10 -10   -0.29    0.60
   0  10  10   -0.93    0.71
   0  10  10    0.57    0.56
   0 -10 -11   65.96    3.39
   0  10  11   63.38    3.49
   0  10  11   59.74    3.00
   0  10  11   63.45    3.40
   0  10  12   34.77    2.56
   0 -10 -12   28.64    2.25
   0 -11  10    1.12    0.71
   0 -11   9    5.71    1.05
   0  11  -9    4.01    1.03
   0 -11   8  145.48    5.20
   0  11  -8  145.57    5.05
   0  11  -8  163.40    5.84
   0  11  -7    0.28    0.45
   0 -11   7    0.48    0.55
   0  11  -7    0.96    0.71
   0 -11   7   -0.33    0.35
   0  11  -6    1.39    0.49
   0 -11   6    2.45    0.76
   0 -11   6    1.60    0.50
   0  11  -6    0.79    0.65
   0 -11   5   91.37    3.96
   0  11  -5   94.42    3.39
   0  11  -5   94.62    4.15
   0 -11   5   90.87    3.25
   0 -11   4    0.03    0.55
   0  11  -4    0.38    0.62
   0  11  -4   -0.18    0.36
   0 -11   3    0.57    0.54
   0  11  -3    1.55    0.75
   0  11  -3    0.44    0.36
   0 -11   2   21.63    1.88
   0  11  -2   20.60    1.82
   0  11  -2   25.23    1.33
   0 -11   1    8.50    1.23
   0  11  -1    6.59    0.99
   0  11  -1    6.20    0.60
   0 -11   0    1.01    0.68
   0  11   0    0.42    0.51
   0  11   1    0.34    0.49
   0 -11  -1    1.08    0.67
   0  11   2   23.84    1.81
   0 -11  -2   26.17    2.08
   0  11   3    2.93    0.75
   0 -11  -3    3.36    0.81
   0  11   4    3.02    0.80
   0 -11  -4    5.90    1.10
   0  11   5   15.48    1.54
   0 -11  -5   16.15    1.71
   0  11   5   15.21    1.17
   0 -11  -6   37.69    2.58
   0  11   6   36.94    2.37
   0  11   6   38.80    2.43
   0  11   6   38.96    2.03
   0  11   7    0.36    0.52
   0 -11  -7    1.38    0.63
   0  11   7    0.92    0.61
   0  11   7    0.88    0.53
   0 -11  -8   -0.16    0.54
   0  11   8   -0.61    0.66
   0  11   8    1.02    0.63
   0  11   8    1.13    0.59
   0  11   9   14.54    1.65
   0 -11  -9   15.11    1.66
   0  11   9   16.16    1.64
   0  11   9   15.29    1.53
   0  11  10   31.37    2.43
   0 -11 -10   31.78    2.42
   0  11  10   29.55    2.16
   0  11  10   31.78    2.30
   0  11  11    2.09    0.85
   0 -11 -11    2.41    0.95
   0  12 -10   39.41    2.71
   0 -12  10   37.51    2.61
   0  12  -9    0.60    0.61
   0 -12   9    0.32    0.63
   0  12  -8   39.09    2.53
   0 -12   8   37.17    2.62
   0  12  -7  111.21    4.19
   0 -12   7  107.59    4.56
   0  12  -6    5.96    0.92
   0 -12   6    6.88    1.17
   0  12  -6    6.26    1.19
   0 -12   5    1.82    0.61
   0 -12   5   -0.68    0.67
   0  12  -5    0.63    0.64
   0 -12   4  166.77    5.88
   0  12  -4  172.91    6.02
   0 -12   3   13.03    1.65
   0  12  -3   12.64    1.58
   0  12  -2   43.13    2.58
   0 -12   2   48.33    2.94
   0  12  -1   18.50    1.73
   0 -12   1   25.32    2.15
   0  12   0   59.64    3.06
   0 -12   0   60.22    3.31
   0 -12  -1   23.12    2.04
   0  12   1   14.70    1.53
   0 -12  -2   10.75    1.46
   0  12   2    8.39    1.19
   0 -12  -3   20.44    1.96
   0  12   3   19.29    1.79
   0  12   4   11.75    1.40
   0 -12  -4    9.99    1.42
   0 -12  -5    7.50    1.28
   0  12   5    6.58    1.14
   0  12   5    8.20    1.24
   0 -12  -6   24.73    2.18
   0  12   6   24.57    2.09
   0  12   6   25.70    2.07
   0  12   7    0.79    0.56
   0 -12  -7    1.93    0.83
   0  12   7    1.24    0.72
   0  12   8    5.79    1.10
   0  12   8    7.28    1.16
   0  12   9    4.91    0.98
   0 -13   5    1.67    0.83
   0 -13   4  104.10    4.68
   0  13  -3    0.84    0.68
   0 -13   3    0.36    0.68
   0  13  -2   59.83    3.23
   0 -13   2   70.33    3.78
   0  13  -1    4.62    0.94
   0 -13   1    7.12    1.30
   0  13   0   -0.41    0.82
   0  13   1   34.79    2.44
   0  13   2   20.96    1.88
   0  13   3    0.52    0.64
   0  13   4    8.31    1.24
   0  13   5   27.60    2.25
   0  13   5   26.53    2.22
   0  13   6    5.52    1.08
   0  13   6    6.08    1.10
   0  14  -3   50.87    3.10
   0  14  -2    2.26    0.80
   0  14  -1   25.78    2.18
   0  14   0    2.61    0.78
   0  14   1    6.00    1.13
   0  14   2   58.88    3.32
   0  14   3    6.30    1.20
  -1  14   4    0.61    0.66
  -1  14   3    1.86    0.75
  -1  14   2    4.87    1.02
  -1  14   1    7.61    1.17
  -1  14   0   18.74    1.73
  -1  14  -1    0.79    0.75
  -1  14  -2    3.49    0.83
  -1  14  -3   39.91    2.64
  -1  14  -4    3.70    1.06
  -1  13   8    7.01    1.33
  -1  13   7   -0.95    0.67
  -1  13   6   -0.73    0.74
  -1  13   5   -0.25    0.61
  -1  13   5   -0.04    0.72
  -1  13   4    2.17    0.83
  -1  13   4    1.85    0.78
  -1  13   3    1.02    0.55
  -1  13   2   35.86    2.35
   1 -13  -1    1.28    0.68
  -1  13   1    0.78    0.59
  -1  13   0    6.62    1.11
   1 -13   0   10.21    1.46
   1 -13   1    7.36    1.22
  -1  13  -1    8.18    1.21
   1 -13   2    3.18    0.92
  -1  13  -2    3.35    0.88
   1 -13   3    0.30    0.55
  -1  13  -3   -1.00    0.67
   1 -13   4    9.53    1.37
   1 -13   5    4.20    1.01
   1 -13   6    7.61    1.22
   1 -13   7   12.06    1.57
   1 -13   8   34.38    2.55
  -1  12  10    4.99    1.15
  -1  12   9   59.86    3.30
  -1  12   9   53.51    3.10
  -1  12   8   14.58    1.60
  -1  12   8   16.34    1.70
   1 -12  -7    7.29    1.27
  -1  12   7    6.31    1.12
  -1  12   7    5.90    1.10
  -1  12   6   20.56    1.78
   1 -12  -6   19.31    1.92
  -1  12   6   19.75    1.86
  -1  12   5   24.43    1.92
   1 -12  -5   28.26    2.30
  -1  12   5   22.55    1.95
  -1  12   4    0.42    0.55
   1 -12  -4    2.06    0.78
   1 -12  -3   10.37    1.42
  -1  12   3    9.92    1.23
  -1  12   2   43.52    2.48
   1 -12  -2   45.70    2.88
  -1  12   1   14.06    1.42
   1 -12  -1   13.45    1.58
  -1  12   0   -0.79    0.61
   1 -12   0    0.64    0.70
  -1  12  -1    0.33    0.56
   1 -12   1    1.12    0.73
   1 -12   2   27.94    2.22
  -1  12  -2   26.57    1.94
   1 -12   3    0.28    0.61
  -1  12  -3   -1.76    0.79
   1 -12   4   34.53    2.42
  -1  12  -4   30.74    2.40
  -1  12  -4   33.76    1.91
   1 -12   5    5.13    0.88
   1 -12   5    5.88    1.07
  -1  12  -5    6.12    0.92
  -1  12  -5    5.70    1.08
   1 -12   6    1.89    0.74
  -1  12  -6    3.39    0.82
  -1  12  -6    0.57    0.56
   1 -12   6    1.81    0.59
   1 -12   7    0.86    0.72
  -1  12  -7   -0.28    0.57
   1 -12   8    4.64    0.96
  -1  12  -8    4.71    0.98
   1 -12   9   -0.36    0.60
  -1  12  -9   -0.05    0.58
  -1  12 -10    1.04    0.55
   1 -11 -11   23.94    2.12
  -1  11  11   21.45    2.14
  -1  11  11   21.36    1.91
  -1  11  11   21.98    2.05
   1 -11 -10   14.95    1.70
  -1  11  10   13.33    1.67
  -1  11  10   13.15    1.52
  -1  11  10   12.59    1.46
  -1  11   9   13.05    1.52
   1 -11  -9   17.16    1.74
  -1  11   9   15.58    1.60
  -1  11   9   14.08    1.46
  -1  11   8    0.71    0.63
   1 -11  -8    2.24    0.86
  -1  11   8    1.76    0.71
  -1  11   8    0.06    0.52
  -1  11   7  153.94    5.26
   1 -11  -7  170.61    5.84
  -1  11   7  156.30    5.38
  -1  11   7  175.47    5.07
  -1  11   6    4.79    0.90
   1 -11  -6    5.87    1.10
  -1  11   6    4.56    0.91
  -1  11   6    4.81    0.76
   1 -11  -5   18.83    1.83
  -1  11   5   16.77    1.54
  -1  11   5   18.91    1.70
  -1  11   5   19.60    1.35
   1 -11  -4  107.68    4.42
  -1  11   4  100.63    3.83
  -1  11   4  108.66    3.20
  -1  11   3   70.49    3.07
   1 -11  -3   79.98    3.70
  -1  11   2    5.62    0.87
   1 -11  -2    7.68    1.17
  -1  11   1   82.20    3.29
   1 -11  -1   82.82    3.74
   1 -11   0  116.02    4.58
  -1  11   0  120.18    4.15
  -1  11   0  137.51    3.32
  -1  11  -1    1.00    0.60
   1 -11   1    2.38    0.84
  -1  11  -1    0.99    0.36
   1 -11   2    4.83    0.96
  -1  11  -2    3.10    0.54
   1 -11   3   26.08    2.04
  -1  11  -3   34.57    2.34
  -1  11  -3   30.15    1.68
   1 -11   4  168.10    5.54
  -1  11  -4  172.17    5.74
  -1  11  -4  173.92    4.83
   1 -11   5    5.39    0.83
   1 -11   5    6.41    1.09
  -1  11  -5    5.37    0.82
  -1  11  -5    3.93    0.94
  -1  11  -6    2.76    0.69
   1 -11   6    3.25    0.81
  -1  11  -6    2.28    0.70
   1 -11   6    2.52    0.62
  -1  11  -7    7.46    1.08
   1 -11   7    8.23    1.17
   1 -11   7    6.64    0.91
  -1  11  -7    7.65    1.22
  -1  11  -8    3.13    0.86
   1 -11   8    3.57    0.85
   1 -11   8    3.53    0.72
  -1  11  -8    4.11    0.95
  -1  11  -9   10.14    1.35
   1 -11   9   10.67    1.33
  -1  11  -9   13.06    1.61
   1 -11  10   11.88    1.38
  -1  11 -10   11.87    1.50
  -1  11 -11    2.56    0.81
   1 -10 -13    4.22    1.02
   1 -10 -12    4.79    1.02
  -1  10  12    6.36    1.18
  -1  10  12    4.94    0.96
  -1  10  12    4.25    1.02
  -1  10  11    0.34    0.55
   1 -10 -11   -0.45    0.60
  -1  10  11    0.70    0.59
  -1  10  11    0.42    0.69
   1 -10 -10    3.57    0.91
  -1  10  10    3.25    0.92
  -1  10  10    4.37    0.89
  -1  10  10    3.11    0.81
  -1  10   9   35.05    2.32
   1 -10  -9   36.12    2.44
  -1  10   9   34.39    2.24
  -1  10   9   37.16    2.33
  -1  10   8    0.82    0.51
   1 -10  -8    1.49    0.69
  -1  10   8    0.91    0.56
  -1  10   8    0.62    0.45
   1 -10  -7    7.52    1.16
  -1  10   7    8.48    1.09
  -1  10   7    9.15    1.20
  -1  10   7    8.08    1.01
   1 -10  -6  159.30    5.35
  -1  10   6  155.53    4.91
  -1  10   6  160.23    5.12
  -1  10   6  164.96    4.68
   1 -10  -5   42.76    2.55
  -1  10   5   40.55    2.26
  -1  10   5   39.28    2.33
  -1  10   5   44.32    2.05
  -1  10   4   18.78    1.48
   1 -10  -4   19.73    1.74
  -1  10   4   20.78    1.27
   1 -10  -3   21.55    1.80
  -1  10   3   21.90    1.56
  -1  10   3   23.74    1.24
  -1  10   2  244.21    6.31
   1 -10  -2  247.80    6.98
  -1  10   2  266.43    5.18
   1 -10  -1    2.34    0.81
  -1  10   1    1.73    0.58
   1 -10   0    1.90    0.68
  -1  10   0    2.75    0.60
  -1  10   0    2.51    0.42
  -1  10  -1  120.99    3.90
   1 -10   1  114.04    4.23
  -1  10  -1  120.20    3.24
   1 -10   2   46.33    2.53
  -1  10  -2   49.22    2.63
  -1  10  -2   45.14    1.92
   1 -10   3   25.16    1.88
  -1  10  -3   26.05    1.93
  -1  10  -3   25.66    1.50
   1 -10   4    0.79    0.55
  -1  10  -4    0.11    0.38
  -1  10  -4    0.85    0.61
   1 -10   5  189.32    5.68
  -1  10  -5  197.24    5.32
  -1  10  -5  192.74    5.95
   1 -10   5  189.64    5.12
  -1  10  -6    6.69    0.97
   1 -10   6    5.26    0.96
   1 -10   6    7.15    0.88
  -1  10  -6    5.62    1.04
  -1  10  -7    0.05    0.44
   1 -10   7    0.63    0.49
   1 -10   7    1.20    0.48
  -1  10  -7    0.16    0.71
   1 -10   8   68.35    3.10
  -1  10  -8   66.52    3.19
  -1  10  -8   69.38    3.48
   1 -10   8   71.69    2.85
   1 -10   9    7.24    1.04
  -1  10  -9    7.64    1.23
   1 -10   9    7.60    0.95
   1 -10  10   37.74    2.23
  -1  10 -10   36.80    2.62
   1 -10  10   35.50    2.01
  -1  10 -11   23.11    2.13
  -1   9  13   -0.69    0.76
   1  -9 -13    1.50    0.74
  -1   9  12    1.14    0.56
   1  -9 -12    0.56    0.54
  -1   9  12    1.12    0.72
  -1   9  12    0.36    0.60
   1  -9 -12    0.84    0.70
   1  -9 -11    0.91    0.61
  -1   9  11    1.20    0.72
  -1   9  11   -0.10    0.55
  -1   9  11    0.24    0.60
   1  -9 -10    1.07    0.58
  -1   9  10    1.88    0.75
  -1   9  10    1.09    0.57
  -1   9  10    1.10    0.59
  -1   9   9    4.65    0.95
   1  -9  -9    6.44    1.03
  -1   9   9    4.71    0.83
  -1   9   9    4.44    0.90
   1  -9  -8   24.41    1.88
  -1   9   8   24.26    1.79
  -1   9   8   21.75    1.68
  -1   9   8   22.74    1.73
  -1   9   7   18.70    1.50
   1  -9  -7   18.50    1.62
  -1   9   7   18.38    1.53
  -1   9   7   20.10    1.51
   1  -9  -6    5.38    0.95
  -1   9   6    5.42    0.85
  -1   9   6    5.03    0.83
  -1   9   6    4.57    0.72
  -1   9   5   46.62    2.27
   1  -9  -5   43.61    2.44
  -1   9   5   44.31    2.32
  -1   9   5   44.40    2.04
   1  -9  -4   13.05    1.33
  -1   9   4   11.84    1.11
  -1   9   4   11.72    0.95
  -1   9   3   11.45    1.09
   1  -9  -3   12.90    1.30
  -1   9   3   11.37    0.86
  -1   9   2    0.39    0.43
   1  -9  -2   -0.22    0.50
  -1   9   2   -0.13    0.28
   1  -9  -1  120.39    4.21
  -1   9   1  125.65    3.82
  -1   9   1  124.50    2.97
  -1   9   1  135.33    2.81
  -1   9   0    0.50    0.37
   1  -9   0    1.19    0.53
  -1   9   0    1.38    0.33
   1  -9   1   27.68    1.90
  -1   9  -1   31.58    1.99
  -1   9  -1   31.09    1.41
   1  -9   2   61.00    2.78
  -1   9  -2   58.60    2.75
  -1   9  -2   64.34    2.25
   1  -9   3   50.63    2.50
  -1   9  -3   60.01    2.28
  -1   9  -3   52.75    2.62
  -1   9  -4   12.15    1.06
   1  -9   4   11.32    1.17
  -1   9  -4   13.47    1.32
  -1   9  -5    8.58    0.93
   1  -9   5    9.67    1.10
   1  -9   5    8.72    0.91
  -1   9  -5   10.57    1.20
   1  -9   6   18.50    1.47
  -1   9  -6   17.02    1.41
  -1   9  -6   20.68    1.70
   1  -9   6   19.90    1.36
   1  -9   7   65.27    2.83
  -1   9  -7   66.17    3.16
   1  -9   7   62.05    2.53
   1  -9   8    2.75    0.64
  -1   9  -8    3.53    0.91
   1  -9   8    2.32    0.52
   1  -9   9   57.22    2.63
  -1   9  -9   63.33    3.21
   1  -9   9   55.87    2.46
   1  -9  10   69.91    2.95
  -1   9 -10   72.94    3.56
   1  -9  10   75.34    2.95
   1  -9  11   18.39    1.45
  -1   9 -11   19.10    1.85
   1  -9  11   20.20    1.51
  -1   9 -12   23.83    2.12
   1  -8 -13    5.90    1.06
  -1   8  13    4.87    1.06
  -1   8  13    1.88    0.65
   1  -8 -13    6.05    1.15
   1  -8 -12    0.11    0.52
  -1   8  12   -0.80    0.65
  -1   8  12    0.73    0.68
  -1   8  12    0.08    0.42
   1  -8 -12    0.29    0.63
  -1   8  11    0.73    0.66
   1  -8 -11    0.96    0.59
  -1   8  11    0.42    0.42
  -1   8  11   -0.45    0.65
  -1   8  10   34.91    2.22
   1  -8 -10   32.60    2.10
  -1   8  10   32.32    1.99
  -1   8  10   34.18    2.26
  -1   8   9   40.37    2.31
   1  -8  -9   37.11    2.22
  -1   8   9   40.64    2.20
  -1   8   9   41.06    2.37
   1  -8  -8    2.83    0.66
  -1   8   8    2.28    0.65
  -1   8   8    2.20    0.59
  -1   8   8    1.77    0.59
   1  -8  -8    2.07    0.34
  -1   8   7    5.33    0.83
   1  -8  -7    5.08    0.87
  -1   8   7    5.22    0.81
   1  -8  -7    6.03    0.46
  -1   8   7    5.82    0.82
   1  -8  -6   11.69    1.23
  -1   8   6   11.29    1.10
  -1   8   6   11.72    1.14
   1  -8  -6   11.77    0.60
  -1   8   6   12.38    1.11
  -1   8   5    5.08    0.76
   1  -8  -5    4.67    0.83
  -1   8   5    5.38    0.79
   1  -8  -5    5.70    0.40
  -1   8   5    4.98    0.68
   1  -8  -4    6.43    0.92
  -1   8   4    5.88    0.75
  -1   8   4    6.79    0.73
  -1   8   3   15.68    1.18
   1  -8  -3   16.54    1.38
  -1   8   3   19.10    1.08
   1  -8  -2    3.14    0.67
  -1   8   2    4.09    0.66
  -1   8   2    3.59    0.44
   1  -8  -1   90.07    3.34
  -1   8   1   93.97    3.01
  -1   8   1   97.48    2.30
  -1   8   1   99.12    2.43
   1  -8   0    0.91    0.52
  -1   8   0    1.53    0.49
  -1   8   0    1.33    0.18
  -1   8   0    1.38    0.31
   1  -8   1    1.03    0.57
  -1   8  -1    1.04    0.58
  -1   8  -1    0.70    0.31
   1  -8   2   87.53    3.23
  -1   8  -2   92.40    2.73
  -1   8  -2   91.38    3.31
  -1   8  -3    2.94    0.52
  -1   8  -3    1.91    0.49
   1  -8   3    1.36    0.47
  -1   8  -3    3.12    0.66
   1  -8   4   37.98    2.00
  -1   8  -4   38.08    1.81
  -1   8  -4   38.56    2.02
  -1   8  -4   36.53    2.06
   1  -8   5   34.25    1.88
  -1   8  -5   37.43    1.94
  -1   8  -5   33.21    2.00
   1  -8   5   34.79    1.70
   1  -8   6   72.31    2.84
  -1   8  -6   75.37    2.87
  -1   8  -6   82.26    3.28
   1  -8   6   73.13    2.62
   1  -8   7   39.88    2.04
  -1   8  -7   38.81    1.99
  -1   8  -7   41.52    2.33
   1  -8   7   43.62    1.98
   1  -8   8   83.63    3.07
  -1   8  -8   83.62    3.00
  -1   8  -8   91.55    3.62
   1  -8   8   81.64    2.91
  -1   8  -9    7.01    0.83
   1  -8   9    5.99    0.83
   1  -8   9    6.18    0.81
  -1   8  -9    8.09    1.15
   1  -8  10   46.58    2.18
  -1   8 -10   45.30    2.64
   1  -8  10   44.32    2.17
   1  -8  11  161.84    4.52
  -1   8 -11  164.62    5.53
   1  -8  11  156.47    4.67
   1  -8  12    5.76    0.85
  -1   8 -12    6.57    1.14
  -1   8 -13    3.42    0.94
   1  -8  13    2.72    0.73
  -1   8 -14    9.10    1.41
   1  -7 -14   22.68    1.72
  -1   7  14   23.49    2.21
  -1   7  14   18.52    1.56
   1  -7 -14   21.47    1.97
   1  -7 -13   24.95    1.78
  -1   7  13   24.21    2.23
  -1   7  13   26.54    1.84
   1  -7 -13   26.57    2.16
   1  -7 -12    2.91    0.73
  -1   7  12    1.57    0.66
  -1   7  12    2.67    0.70
   1  -7 -12    2.80    0.83
   1  -7 -11   16.00    1.40
  -1   7  11   14.78    1.47
  -1   7  11   16.78    1.67
  -1   7  11   17.01    1.42
   1  -7 -11   16.64    1.58
  -1   7  10    9.65    1.17
   1  -7 -10   11.34    1.17
  -1   7  10    9.95    1.07
  -1   7  10   10.92    1.30
   1  -7  -9   71.56    2.93
  -1   7   9   63.55    2.86
  -1   7   9   64.37    2.71
  -1   7   9   68.15    3.06
  -1   7   8   11.52    1.12
   1  -7  -8   12.48    1.18
  -1   7   8   10.70    1.06
  -1   7   8   11.24    1.22
  -1   7   7   42.10    2.08
   1  -7  -7   45.30    2.25
  -1   7   7   41.41    2.05
   1  -7  -7   45.89    1.51
  -1   7   7   44.29    2.21
  -1   7   6   18.50    1.32
   1  -7  -6   16.72    1.33
   1  -7  -6   19.57    1.34
  -1   7   6   20.16    1.38
   1  -7  -6   18.59    0.84
  -1   7   6   21.01    1.41
   1  -7  -5   40.89    2.09
  -1   7   5   39.21    2.09
  -1   7   5   39.65    1.88
   1  -7  -5   39.86    2.01
  -1   7   5   40.37    1.95
  -1   7   5   41.59    1.88
   1  -7  -5   40.90    1.24
  -1   7   4   40.42    2.07
   1  -7  -4   36.10    1.95
  -1   7   4   37.73    1.76
   1  -7  -4   39.36    1.98
  -1   7   4   40.44    1.73
   1  -7  -4   39.39    1.18
   1  -7  -3  140.05    4.22
  -1   7   3  157.59    4.48
  -1   7   3  146.97    3.91
   1  -7  -3  158.74    4.35
  -1   7   3  153.16    3.69
  -1   7   2   87.74    3.11
  -1   7   2   87.17    2.71
   1  -7  -2   80.38    2.96
   1  -7  -2   87.55    3.01
  -1   7   2   88.14    2.36
  -1   7   1   91.82    2.77
  -1   7   1   90.72    3.16
   1  -7  -1   87.02    3.06
   1  -7  -1   96.85    3.15
  -1   7   1   87.67    2.22
  -1   7   1   90.33    2.19
   1  -7   0  299.79    6.95
  -1   7   0  319.95    7.12
   1  -7   0  325.86    7.04
  -1   7   0  314.78    5.42
  -1   7   0  307.99    5.96
   1  -7   1  101.93    3.28
   1  -7   1  108.66    3.35
  -1   7  -1   98.42    3.24
  -1   7  -1   93.71    2.60
  -1   7  -1  103.25    3.32
   1  -7   2   19.71    1.35
   1  -7   2   20.42    1.37
  -1   7  -2   19.00    1.36
  -1   7  -2   22.22    1.16
  -1   7  -2   20.99    1.39
   1  -7   3   89.03    3.02
   1  -7   3   94.49    3.16
  -1   7  -3   87.93    3.11
  -1   7  -3   91.34    2.77
  -1   7  -3   88.89    3.02
   1  -7   4  255.08    6.09
  -1   7  -4  271.69    6.15
   1  -7   4  271.88    6.39
  -1   7  -4  266.15    6.40
   1  -7   5   39.93    1.90
  -1   7  -5   40.68    1.89
  -1   7  -5   41.85    2.10
   1  -7   5   41.53    1.78
   1  -7   6   36.40    1.81
  -1   7  -6   36.93    1.79
  -1   7  -6   41.84    2.13
   1  -7   6   37.66    1.72
   1  -7   7   78.15    2.76
  -1   7  -7   79.78    2.73
  -1   7  -7   78.61    3.11
   1  -7   7   82.96    2.74
   1  -7   8   18.70    1.27
  -1   7  -8   18.95    1.25
  -1   7  -8   22.38    1.65
   1  -7   8   18.64    1.26
   1  -7   9   14.17    1.10
  -1   7  -9   12.94    1.02
  -1   7  -9   14.83    1.38
   1  -7   9   15.00    1.17
   1  -7  10   10.78    0.95
   1  -7  10   11.52    1.11
  -1   7 -10    8.41    1.12
   1  -7  11   74.39    2.59
  -1   7 -11   71.65    3.33
   1  -7  11   69.52    2.83
   1  -7  12    0.64    0.49
  -1   7 -12    0.37    0.54
  -1   7 -13   11.53    1.42
   1  -7  13   11.94    1.25
  -1   7 -14    0.24    0.60
   1  -7  14    1.75    0.63
  -1   7 -15   39.00    2.74
   1  -6 -15   45.68    2.87
   1  -6 -14   18.98    1.49
  -1   6  14   21.08    2.10
  -1   6  14   18.46    1.53
   1  -6 -14   16.76    1.71
   1  -6 -13   25.18    1.69
  -1   6  13   27.32    2.23
  -1   6  13   23.32    1.67
   1  -6 -13   23.62    1.97
   1  -6 -12   46.20    2.30
  -1   6  12   54.95    3.08
  -1   6  12   46.74    2.33
   1  -6 -12   49.65    2.73
   1  -6 -11   99.09    3.49
  -1   6  11   96.41    4.01
  -1   6  11  101.14    3.48
   1  -6 -11   95.48    3.80
  -1   6  10    2.00    0.63
   1  -6 -10    2.87    0.64
  -1   6  10    4.82    0.94
  -1   6  10    2.55    0.57
   1  -6 -10    2.16    0.56
  -1   6   9    7.09    0.92
   1  -6  -9    8.55    0.93
  -1   6   9    8.15    0.91
  -1   6   9    8.27    1.08
  -1   6   8  245.88    6.11
  -1   6   8  250.17    6.16
   1  -6  -8  242.48    5.99
  -1   6   8  245.56    5.87
  -1   6   8  249.78    6.35
   1  -6  -7   20.43    1.38
  -1   6   7   21.04    1.44
   1  -6  -7   18.88    1.35
  -1   6   7   19.06    1.33
  -1   6   7   19.35    1.30
  -1   6   7   16.76    1.32
   1  -6  -6    0.99    0.41
   1  -6  -6    1.62    0.52
  -1   6   6    1.06    0.47
  -1   6   6    1.87    0.50
  -1   6   6    2.00    0.55
  -1   6   6    1.40    0.48
   1  -6  -5  173.21    4.44
   1  -6  -5  172.13    4.64
  -1   6   5  179.47    4.47
  -1   6   5  188.06    4.84
  -1   6   5  179.54    4.53
   1  -6  -5  183.73    3.66
  -1   6   4  132.77    3.55
  -1   6   4  139.01    3.96
   1  -6  -4  142.37    3.66
   1  -6  -4  125.70    3.77
  -1   6   4  134.34    3.70
   1  -6  -4  144.02    3.90
   1  -6  -4  132.09    2.81
  -1   6   3   80.16    2.48
   1  -6  -3   77.89    2.74
  -1   6   3   81.40    2.84
   1  -6  -3   83.39    2.76
   1  -6  -3   79.83    1.90
   1  -6  -2   76.26    2.68
  -1   6   2   81.54    2.44
  -1   6   2   78.52    2.76
   1  -6  -2   80.69    2.69
   1  -6  -2   82.29    1.95
   1  -6  -1  273.78    6.26
  -1   6   1  279.37    5.84
  -1   6   1  292.29    6.43
   1  -6  -1  294.74    6.33
  -1   6   1  294.68    5.35
   1  -6   0  102.42    3.16
  -1   6   0  110.96    3.29
  -1   6   0  107.84    3.20
   1  -6   0  107.05    3.18
  -1   6   0  107.79    2.56
  -1   6  -1  223.09    5.23
   1  -6   1  218.27    5.15
   1  -6   1  217.42    5.16
  -1   6  -1  217.19    5.15
  -1   6  -1  222.32    4.56
   1  -6   2  104.10    3.13
  -1   6  -2  106.67    3.15
  -1   6  -2  106.64    2.81
  -1   6  -2  105.76    3.19
   1  -6   2  100.52    3.13
   1  -6   3    9.14    0.84
  -1   6  -3    8.61    0.82
   1  -6   3    9.55    0.89
  -1   6  -3   10.23    0.94
   1  -6   4  155.51    4.08
  -1   6  -4  168.17    4.15
  -1   6  -4  164.07    4.36
   1  -6   4  166.98    4.39
   1  -6   5  231.38    5.37
  -1   6  -5  248.80    5.43
  -1   6  -5  244.44    5.79
   1  -6   5  243.86    5.78
   1  -6   5  237.21    5.24
   1  -6   6   50.05    1.98
  -1   6  -6   52.88    1.99
  -1   6  -6   56.18    2.35
   1  -6   6   53.64    2.30
   1  -6   6   51.40    1.96
   1  -6   7   24.13    1.31
  -1   6  -7   22.48    1.24
  -1   6  -7   24.86    1.57
   1  -6   7   23.90    1.32
   1  -6   8   88.02    2.76
  -1   6  -8   91.76    2.73
  -1   6  -8   93.87    3.36
   1  -6   8   93.24    3.16
   1  -6   8   91.63    2.93
   1  -6   9   14.55    1.01
   1  -6   9   14.74    1.00
  -1   6  -9   16.43    1.38
   1  -6   9   14.21    1.10
   1  -6  10    0.43    0.34
   1  -6  10    0.35    0.25
  -1   6 -10    0.37    0.48
   1  -6  10    0.63    0.48
   1  -6  11  128.38    3.43
   1  -6  11  138.91    3.94
  -1   6 -11  131.63    4.49
   1  -6  11  126.84    3.99
   1  -6  12   53.31    1.91
   1  -6  12   56.71    2.45
  -1   6 -12   49.97    2.71
   1  -6  12   51.93    2.45
   1  -6  13    6.43    0.92
  -1   6 -13    5.66    0.98
   1  -6  13    6.05    0.90
   1  -6  14    2.50    0.69
   1  -6  14    2.69    0.65
  -1   6 -14    3.95    0.95
   1  -6  15   39.67    2.39
  -1   6 -15   34.31    2.50
  -1   6 -16   21.99    2.03
   1  -5 -16    1.72    0.71
  -1   5  15    5.06    1.13
  -1   5  15    5.20    0.87
   1  -5 -15    6.03    1.07
  -1   5  14   14.14    1.71
  -1   5  14   13.26    1.31
   1  -5 -14   11.75    1.51
   1  -5 -13    0.42    0.42
  -1   5  13    0.73    0.75
  -1   5  13    0.23    0.38
   1  -5 -13    0.69    0.58
   1  -5 -12   16.37    1.29
  -1   5  12   15.58    1.31
  -1   5  12   15.76    1.61
  -1   5  12   15.13    1.25
   1  -5 -12   14.62    1.45
   1  -5 -11   22.19    1.48
  -1   5  11   23.14    1.52
  -1   5  11   19.20    1.72
  -1   5  11   23.48    1.53
   1  -5 -11   21.74    1.67
   1  -5 -10   62.17    2.48
  -1   5  10   65.87    2.60
  -1   5  10   68.07    3.07
  -1   5  10   59.54    2.45
   1  -5 -10   63.16    2.80
   1  -5  -9    6.58    0.80
  -1   5   9    6.61    0.83
  -1   5   9    6.90    0.83
  -1   5   9    7.45    1.02
  -1   5   9    7.04    0.81
   1  -5  -9    7.47    0.94
  -1   5   8  237.28    5.63
   1  -5  -8  240.10    5.78
  -1   5   8  225.90    5.66
   1  -5  -8  231.25    5.50
  -1   5   8  227.65    5.42
  -1   5   8  229.89    5.97
   1  -5  -7    0.00    0.36
   1  -5  -7    0.33    0.38
  -1   5   7   -0.04    0.39
  -1   5   7   -0.04    0.32
  -1   5   7    0.08    0.33
   1  -5  -6  105.38    3.13
  -1   5   6  105.61    3.21
   1  -5  -6   99.31    3.07
  -1   5   6   97.02    3.01
  -1   5   6  102.83    3.04
   1  -5  -5    0.06    0.35
  -1   5   5    0.40    0.35
   1  -5  -5   -0.01    0.29
  -1   5   5    0.30    0.33
  -1   5   5    0.26    0.28
  -1   5   4   59.83    2.04
   1  -5  -4   62.28    2.10
   1  -5  -4   61.80    2.25
  -1   5   4   66.19    2.34
  -1   5   4   61.57    2.15
   1  -5  -4   63.30    1.64
  -1   5   3   73.86    2.19
   1  -5  -3   66.37    2.13
   1  -5  -3   71.92    2.42
  -1   5   3   74.81    2.48
   1  -5  -3   71.20    1.72
  -1   5   2  127.60    3.46
   1  -5  -2  125.14    3.39
  -1   5   2  131.41    3.11
   1  -5  -2  126.88    2.65
   1  -5  -2  134.76    3.44
   1  -5  -1    1.25    0.25
  -1   5   1    2.33    0.33
  -1   5   1    1.17    0.38
  -1   5   1    2.58    0.47
   1  -5  -1    1.09    0.42
   1  -5  -1    1.39    0.46
  -1   5   0   19.38    1.13
   1  -5   0   17.68    1.09
  -1   5   0   17.55    1.08
   1  -5   0   19.72    1.12
  -1   5   0   18.56    0.83
  -1   5  -1  155.23    3.83
   1  -5   1  151.49    3.78
  -1   5  -1  157.50    3.40
  -1   5  -1  153.50    3.81
   1  -5   1  156.78    3.82
  -1   5  -2    8.08    0.74
  -1   5  -2    6.56    0.59
   1  -5   2    7.11    0.70
  -1   5  -2    9.02    0.81
   1  -5   2    8.26    0.74
  -1   5  -3    5.99    0.62
   1  -5   3    5.84    0.62
   1  -5   3    5.89    0.65
  -1   5  -3    6.64    0.72
   1  -5   4   51.15    1.87
  -1   5  -4   53.62    1.88
  -1   5  -4   55.11    2.09
   1  -5   4   59.82    2.14
   1  -5   4   56.41    1.87
   1  -5   5   34.89    1.48
  -1   5  -5   38.40    1.51
   1  -5   5   38.44    1.74
  -1   5  -5   38.16    1.75
   1  -5   5   38.15    1.54
   1  -5   6   45.92    1.71
   1  -5   6   47.74    1.52
  -1   5  -6   49.31    1.72
  -1   5  -6   45.04    2.00
   1  -5   6   49.30    2.06
   1  -5   6   45.44    1.77
   1  -5   7   32.51    1.41
   1  -5   7   35.11    1.39
  -1   5  -7   32.60    1.36
   1  -5   7   35.01    1.76
  -1   5  -7   34.21    1.76
   1  -5   7   34.08    1.56
   1  -5   7   34.30    1.65
   1  -5   8    0.40    0.26
  -1   5  -8    0.62    0.29
   1  -5   8    0.51    0.29
  -1   5  -8    1.01    0.45
   1  -5   8    0.20    0.34
   1  -5   8   -0.16    0.33
   1  -5   8   -0.07    0.30
   1  -5   9   23.51    1.16
   1  -5   9   24.53    1.35
  -1   5  -9   24.21    1.60
  -1   5  -9   24.69    1.51
   1  -5   9   27.21    1.55
   1  -5   9   22.73    1.38
   1  -5  10   48.17    1.71
   1  -5  10   49.69    2.12
  -1   5 -10   51.84    2.44
   1  -5  10   50.90    2.20
   1  -5  11    0.51    0.32
   1  -5  11    0.66    0.27
  -1   5 -11    0.19    0.44
   1  -5  11    0.30    0.34
   1  -5  12   34.22    1.29
   1  -5  12   31.33    1.87
  -1   5 -12   33.09    2.09
   1  -5  12   31.72    1.89
   1  -5  13   97.72    3.67
  -1   5 -13   99.68    3.94
   1  -5  13   96.25    3.60
   1  -5  14   18.81    1.61
  -1   5 -14   20.11    1.77
   1  -5  15   23.99    1.94
  -1   5 -15   26.31    2.10
   1  -5  16   39.72    2.58
  -1   5 -16   42.23    2.77
   1  -5  17   70.93    3.64
   1  -4 -17   19.71    1.92
   1  -4 -16   15.60    1.62
  -1   4  15    9.33    1.45
  -1   4  15    9.47    1.11
   1  -4 -15    9.06    1.29
  -1   4  14   35.63    2.60
  -1   4  14   33.63    1.98
   1  -4 -14   36.69    2.35
  -1   4  13   74.82    3.62
  -1   4  13   68.78    2.81
   1  -4 -13   67.23    3.13
  -1   4  12   60.07    2.42
  -1   4  12   62.24    3.14
  -1   4  12   56.31    2.43
   1  -4 -12   55.92    2.75
  -1   4  11   10.95    1.00
   1  -4 -11   11.78    0.99
  -1   4  11   11.49    1.31
  -1   4  11   10.00    1.00
   1  -4 -11   10.17    1.00
   1  -4 -11   11.52    1.23
  -1   4  10   46.99    2.04
   1  -4 -10   47.16    1.98
  -1   4  10   50.10    2.57
   1  -4 -10   48.94    2.11
  -1   4  10   47.19    2.06
   1  -4 -10   44.69    2.24
  -1   4   9   31.47    1.60
   1  -4  -9   33.05    1.81
   1  -4  -9   30.62    1.54
  -1   4   9   30.67    1.90
  -1   4   9   28.27    1.52
   1  -4  -9   32.81    1.65
   1  -4  -9   30.59    1.76
   1  -4  -8   24.12    1.47
  -1   4   8   21.90    1.30
   1  -4  -8   23.99    1.31
  -1   4   8   20.86    1.38
  -1   4   8   22.40    1.28
   1  -4  -8   22.51    1.44
  -1   4   7   28.87    1.46
   1  -4  -7   29.21    1.43
  -1   4   7   27.35    1.50
   1  -4  -7   31.25    1.57
  -1   4   7   27.13    1.38
  -1   4   6  101.21    2.96
  -1   4   6   99.31    2.96
   1  -4  -6  101.51    2.97
   1  -4  -6  102.44    2.94
  -1   4   6  104.31    2.90
   1  -4  -5    1.79    0.46
  -1   4   5    2.10    0.45
  -1   4   5    1.73    0.43
   1  -4  -5    1.85    0.39
  -1   4   5    1.80    0.40
   1  -4  -4   12.75    0.92
  -1   4   4   12.46    0.89
   1  -4  -4   13.97    0.86
  -1   4   4   12.81    0.83
  -1   4   4   13.86    0.89
  -1   4   3  125.78    3.22
   1  -4  -3  122.92    3.18
  -1   4   3  124.20    2.93
   1  -4  -3  125.86    2.96
  -1   4   3  124.03    3.09
   1  -4  -3  122.66    2.57
  -1   4   2   19.37    1.05
   1  -4  -2   18.13    1.04
  -1   4   2   18.31    0.87
   1  -4  -2   17.78    0.70
  -1   4   1    0.13    0.29
   1  -4  -1    0.63    0.38
   1  -4  -1    0.09    0.26
  -1   4   1    0.65    0.23
  -1   4   1    0.03    0.26
   1  -4  -1    0.02    0.16
  -1   4   0   75.53    2.22
   1  -4   0   75.75    2.22
   1  -4   0   77.73    2.21
  -1   4   0   80.58    2.25
  -1   4   0   75.48    1.85
   1  -4   1   52.29    1.74
  -1   4  -1   53.82    1.75
   1  -4   1   50.47    1.71
  -1   4  -1   52.53    1.76
  -1   4  -1   52.68    1.55
  -1   4  -2   55.64    1.77
   1  -4   2   54.48    1.77
  -1   4  -2   60.42    1.93
   1  -4   2   58.06    1.86
  -1   4  -2   55.46    1.16
   1  -4   3   17.85    0.95
  -1   4  -3   18.14    0.64
  -1   4  -3   19.33    0.95
   1  -4   3   18.25    1.03
  -1   4  -3   18.84    1.06
  -1   4  -4    0.52    0.27
   1  -4   4    0.04    0.26
   1  -4   4    0.06    0.32
  -1   4  -4    0.79    0.38
   1  -4   4    0.49    0.32
   1  -4   5   20.70    1.00
  -1   4  -5   25.64    1.05
   1  -4   5   22.00    0.93
   1  -4   5   25.48    1.29
  -1   4  -5   24.81    1.29
   1  -4   5   23.30    1.12
   1  -4   6   15.86    0.85
  -1   4  -6   16.72    0.84
   1  -4   6   16.36    0.88
  -1   4  -6   16.44    1.09
   1  -4   6   15.46    1.05
   1  -4   6   15.65    0.97
   1  -4   6   16.00    0.96
   1  -4   7   11.86    0.72
   1  -4   7   13.48    0.88
  -1   4  -7   12.51    0.71
   1  -4   7   11.58    0.97
  -1   4  -7   12.19    1.00
  -1   4  -7   11.11    0.87
   1  -4   7   11.76    0.88
   1  -4   7   12.69    0.94
   1  -4   8   20.76    0.97
   1  -4   8   22.18    1.22
  -1   4  -8   24.02    1.36
  -1   4  -8   20.72    1.34
   1  -4   8   21.16    1.27
  -1   4  -8   23.00    1.31
   1  -4   8   22.12    1.28
   1  -4   9    0.16    0.31
   1  -4   9    0.30    0.20
  -1   4  -9    0.02    0.28
   1  -4   9    0.04    0.28
   1  -4   9    0.10    0.36
  -1   4  -9    0.44    0.36
  -1   4  -9    0.17    0.28
   1  -4  10    6.93    0.52
   1  -4  10    4.30    0.65
  -1   4 -10    5.93    0.75
   1  -4  10    6.25    0.78
   1  -4  10    7.06    0.79
  -1   4 -10    7.61    0.93
  -1   4 -10    7.36    0.83
   1  -4  11   90.68    2.20
   1  -4  11   88.79    3.21
  -1   4 -11   93.47    3.40
  -1   4 -11   94.77    3.19
   1  -4  11   85.53    3.14
   1  -4  12   33.46    1.06
   1  -4  12   31.67    1.93
  -1   4 -12   32.48    2.01
   1  -4  12   33.94    1.95
   1  -4  13   12.09    1.25
  -1   4 -13   15.77    1.46
   1  -4  14   19.61    1.69
  -1   4 -14   19.73    1.68
   1  -4  15   56.36    3.00
  -1   4 -15   58.50    3.06
   1  -4  16    1.85    0.68
  -1   4 -16    1.88    0.78
   1  -4  17    4.51    1.03
  -1   4 -17    4.06    0.90
   1  -3 -17   20.60    1.96
  -1   3  16   22.29    1.68
   1  -3 -16   23.97    2.01
  -1   3  15   36.37    2.71
  -1   3  15   32.74    2.03
   1  -3 -15   33.83    2.30
  -1   3  14   45.25    2.89
  -1   3  14   45.82    2.27
   1  -3 -14   44.56    2.55
  -1   3  13   97.75    4.13
  -1   3  13   89.02    3.22
   1  -3 -13   89.17    3.57
  -1   3  12  195.02    4.83
  -1   3  12  213.17    6.24
   1  -3 -12  188.32    5.08
  -1   3  12  200.63    5.16
   1  -3 -12  201.88    5.62
  -1   3  11   29.92    1.53
  -1   3  11   32.59    2.11
   1  -3 -11   28.76    1.62
  -1   3  11   27.99    1.59
   1  -3 -11   31.37    1.89
   1  -3 -10    9.30    0.81
  -1   3  10   10.23    0.86
  -1   3  10   11.59    1.21
   1  -3 -10    9.33    0.89
  -1   3  10   10.49    0.93
   1  -3 -10    8.52    0.96
   1  -3  -9  195.55    4.48
   1  -3  -9  201.25    5.09
  -1   3   9  186.90    4.50
  -1   3   9  189.12    4.62
   1  -3  -9  192.76    4.69
   1  -3  -9  195.44    5.04
   1  -3  -8  117.20    3.47
  -1   3   8  111.01    3.09
   1  -3  -8  116.12    3.08
   1  -3  -8  119.03    3.23
  -1   3   8  112.24    3.16
   1  -3  -8  113.55    3.44
   1  -3  -7  161.23    3.80
  -1   3   7  159.47    3.83
   1  -3  -7  161.70    4.09
   1  -3  -7  160.53    3.88
  -1   3   7  156.44    3.83
   1  -3  -7  160.17    4.13
   1  -3  -6   25.92    1.21
   1  -3  -6   24.25    1.26
  -1   3   6   24.03    1.18
  -1   3   6   23.62    1.27
   1  -3  -6   27.34    1.25
  -1   3   6   22.54    1.16
   1  -3  -5   38.02    1.46
  -1   3   5   36.36    1.43
   1  -3  -5   38.02    1.48
  -1   3   5   35.05    1.45
  -1   3   5   36.91    1.44
   1  -3  -5   35.97    1.43
  -1   3   4    0.68    0.30
   1  -3  -4    0.95    0.36
  -1   3   4    1.09    0.35
   1  -3  -4    0.33    0.24
  -1   3   4   -0.01    0.30
   1  -3  -3    3.26    0.40
  -1   3   3    4.23    0.48
  -1   3   3    2.91    0.40
   1  -3  -3    3.02    0.47
  -1   3   3    2.77    0.45
  -1   3   2   21.60    0.85
   1  -3  -2   22.52    1.04
  -1   3   2   23.42    1.03
   1  -3  -2   21.03    0.83
   1  -3  -2   21.28    0.75
  -1   3   1  378.63    6.90
  -1   3   1  372.63    6.49
   1  -3  -1  365.14    6.87
   1  -3  -1  369.84    6.84
   1  -3  -1  364.93    6.42
  -1   3   1  412.17    6.48
   1  -3   0  119.45    2.75
  -1   3   0  124.50    2.78
  -1   3   0  122.30    2.49
   1  -3   0  120.53    2.49
   1  -3   0  120.32    2.74
  -1   3   0  117.96    2.75
  -1   3  -1    6.31    0.51
  -1   3  -1    6.57    0.49
   1  -3   1    6.31    0.54
  -1   3  -1    6.47    0.58
   1  -3   1    6.59    0.53
   1  -3   2   75.24    1.92
  -1   3  -2   77.50    1.93
  -1   3  -2   71.09    1.52
   1  -3   2   78.62    2.04
  -1   3  -2   77.28    2.04
  -1   3  -3    1.81    0.29
  -1   3  -3    2.03    0.27
   1  -3   3    1.79    0.33
  -1   3  -3    1.53    0.35
   1  -3   3    1.54    0.33
   1  -3   3    1.55    0.35
   1  -3   4   20.49    0.85
  -1   3  -4   21.84    0.90
   1  -3   4   22.54    0.88
  -1   3  -4   21.82    0.85
   1  -3   4   23.35    1.08
  -1   3  -4   23.79    1.10
   1  -3   4   21.90    1.01
   1  -3   5    4.80    0.48
   1  -3   5    4.10    0.39
  -1   3  -5    4.28    0.37
   1  -3   5    4.46    0.52
  -1   3  -5    4.75    0.50
   1  -3   5    4.23    0.51
  -1   3  -5    4.04    0.52
   1  -3   5    4.64    0.48
   1  -3   6  357.36    6.61
  -1   3  -6  383.29    6.59
   1  -3   6  388.56    7.19
   1  -3   6  379.06    7.40
  -1   3  -6  390.14    7.43
   1  -3   6  384.82    7.27
  -1   3  -6  380.02    7.27
   1  -3   6  373.27    7.17
   1  -3   7    6.81    0.46
   1  -3   7    7.08    0.66
  -1   3  -7    6.98    0.66
  -1   3  -7    6.91    0.67
   1  -3   7    6.69    0.64
   1  -3   7    7.20    0.71
  -1   3  -7    6.06    0.68
   1  -3   8    6.73    0.44
   1  -3   8    7.54    0.75
  -1   3  -8    6.19    0.66
   1  -3   8    6.95    0.70
  -1   3  -8    7.53    0.77
  -1   3  -8    7.20    0.74
   1  -3   8    6.04    0.69
   1  -3   9   66.88    1.66
   1  -3   9   67.48    2.50
  -1   3  -9   69.82    2.56
  -1   3  -9   69.72    2.37
  -1   3  -9   70.32    2.51
   1  -3   9   67.72    2.40
   1  -3   9   69.11    2.49
   1  -3  10    1.48    0.47
   1  -3  10    1.32    0.21
  -1   3 -10    2.27    0.50
   1  -3  10    1.73    0.43
   1  -3  10    1.28    0.46
  -1   3 -10    2.01    0.50
  -1   3 -10    1.85    0.51
   1  -3  11    0.17    0.10
   1  -3  11    0.05    0.11
   1  -3  11    0.07    0.40
  -1   3 -11   -0.13    0.39
   1  -3  11    0.43    0.43
   1  -3  11    0.18    0.30
  -1   3 -11    0.58    0.38
   1  -3  12    1.66    0.56
  -1   3 -12    2.24    0.53
  -1   3 -12    1.68    0.50
   1  -3  13    4.86    0.86
  -1   3 -13    3.61    0.76
   1  -3  14    2.05    0.74
  -1   3 -14    0.71    0.50
   1  -3  15    1.02    0.54
  -1   3 -15    1.55    0.66
   1  -3  16   18.87    1.87
  -1   3 -16   17.33    1.72
   1  -3  17    3.56    0.90
  -1   3 -17    4.96    1.05
   1  -2 -17   20.22    1.94
   1  -2 -17   21.91    1.96
  -1   2  16    7.44    1.29
  -1   2  16    8.64    1.08
   1  -2 -16    8.34    1.19
  -1   2  15    2.21    0.95
  -1   2  15    2.84    0.70
   1  -2 -15    3.15    0.82
  -1   2  14    9.94    1.38
  -1   2  14    9.21    1.02
   1  -2 -14    7.85    1.10
  -1   2  13   15.42    1.05
  -1   2  13   14.59    1.54
  -1   2  13   12.51    1.13
   1  -2 -13   14.94    1.37
  -1   2  12    9.73    0.83
  -1   2  12    9.54    1.22
   1  -2 -12   10.19    0.97
  -1   2  12    9.56    0.97
   1  -2 -12   10.10    1.12
  -1   2  11    5.78    0.64
  -1   2  11    6.69    0.98
   1  -2 -11    6.88    0.79
  -1   2  11    5.30    0.69
   1  -2 -11    5.27    0.78
  -1   2  10    1.01    0.32
  -1   2  10    1.00    0.52
  -1   2  10    0.97    0.37
   1  -2 -10    1.50    0.40
   1  -2 -10    1.77    0.49
   1  -2 -10    1.76    0.52
   1  -2  -9    0.81    0.41
  -1   2   9    0.43    0.29
  -1   2   9    0.11    0.30
   1  -2  -9    0.71    0.34
   1  -2  -9    0.57    0.44
   1  -2  -9    0.60    0.38
   1  -2  -8   58.37    2.27
  -1   2   8   55.60    1.87
   1  -2  -8   54.42    1.80
   1  -2  -8   54.62    1.99
  -1   2   8   55.52    1.98
   1  -2  -8   57.74    2.21
  -1   2   7  364.75    6.84
   1  -2  -7  366.34    7.34
   1  -2  -7  353.68    6.77
   1  -2  -7  359.41    7.02
  -1   2   7  349.62    6.95
   1  -2  -7  356.35    7.27
   1  -2  -6   25.51    1.10
   1  -2  -6   25.82    1.25
  -1   2   6   24.57    1.09
  -1   2   6   26.57    1.19
   1  -2  -6   24.16    1.14
   1  -2  -6   25.94    1.29
  -1   2   5   57.58    1.72
   1  -2  -5   56.31    1.69
   1  -2  -5   57.15    1.85
  -1   2   5   56.32    1.76
   1  -2  -5   56.00    1.75
   1  -2  -5   60.83    1.94
  -1   2   4  182.55    3.87
   1  -2  -4  186.50    3.82
   1  -2  -4  183.82    3.85
  -1   2   4  189.51    3.84
   1  -2  -4  188.00    3.86
  -1   2   4  187.37    3.86
  -1   2   3  389.79    6.97
  -1   2   3  397.53    7.07
   1  -2  -3  415.38    6.99
   1  -2  -3  392.19    7.05
  -1   2   3  395.16    7.05
   1  -2  -3  395.89    7.05
  -1   2   2   48.62    1.38
  -1   2   2   46.01    1.21
   1  -2  -2   46.90    1.36
   1  -2  -2   45.47    1.20
   1  -2  -2   45.13    1.33
  -1   2   2   46.23    1.34
  -1   2   1  515.01    8.40
  -1   2   1  529.80    8.78
   1  -2  -1  514.78    8.40
   1  -2  -1  531.62    8.77
   1  -2  -1  506.35    8.49
  -1   2   0 2602.10   41.13
   1  -2   0 2498.41   41.12
   1  -2   0 2558.41   41.11
   1  -2   0 2580.87   40.97
  -1   2  -1  106.04    2.23
   1  -2   1  107.05    2.23
  -1   2  -1  105.75    2.27
   1  -2   1  111.86    2.31
  -1   2  -1  108.77    2.30
  -1   2  -2   48.07    1.22
   1  -2   2   47.98    1.22
  -1   2  -2   49.75    1.19
   1  -2   2   47.44    1.34
  -1   2  -2   50.00    1.36
   1  -2   2   50.59    1.38
   1  -2   3  607.38   10.18
   1  -2   3  634.17   10.40
  -1   2  -3  637.18   10.42
  -1   2  -3  609.00   10.18
   1  -2   3  639.52   10.55
  -1   2  -3  649.67   10.58
  -1   2  -3  651.89   10.59
   1  -2   3  601.27   10.53
   1  -2   4  468.56    8.16
  -1   2  -4  499.94    8.15
   1  -2   4  497.15    8.65
  -1   2  -4  492.22    8.68
  -1   2  -4  510.61    8.75
   1  -2   4  500.07    8.71
   1  -2   4  520.83    8.78
   1  -2   4  504.82    8.56
  -1   2  -4  521.23    8.77
   1  -2   5   70.59    1.55
   1  -2   5   72.96    2.08
   1  -2   5   72.07    2.06
  -1   2  -5   72.73    2.07
   1  -2   5   73.89    1.96
   1  -2   5   77.43    2.12
  -1   2  -5   76.60    2.12
   1  -2   6  278.44    4.92
   1  -2   6  291.84    5.88
  -1   2  -6  304.12    5.87
  -1   2  -6  298.91    5.63
  -1   2  -6  301.33    5.89
   1  -2   6  298.45    5.66
   1  -2   6  275.24    5.78
   1  -2   7  129.90    2.48
   1  -2   7  130.12    3.47
  -1   2  -7  136.37    3.21
  -1   2  -7  139.32    3.45
   1  -2   7  133.90    3.45
   1  -2   7  132.13    3.25
  -1   2  -7  136.56    3.45
   1  -2   8   34.91    0.89
   1  -2   8   35.76    0.91
   1  -2   8   37.22    1.73
  -1   2  -8   36.84    1.49
  -1   2  -8   37.60    1.65
   1  -2   8   35.51    1.63
  -1   2  -8   34.99    1.63
   1  -2   8   37.31    1.56
   1  -2   9   37.30    0.89
  -1   2  -9   37.49    1.88
   1  -2   9   34.55    0.86
   1  -2   9   36.35    1.82
  -1   2  -9   35.76    1.70
  -1   2  -9   36.07    1.54
  -1   2  -9   34.53    1.59
   1  -2   9   32.66    1.56
   1  -2   9   35.07    1.72
  -1   2  -9   40.54    1.84
   1  -2  10  150.35    4.41
  -1   2 -10  157.96    4.27
  -1   2 -10  151.90    3.89
   1  -2  10  150.19    4.06
  -1   2 -10  152.92    4.06
   1  -2  10  153.02    4.29
  -1   2 -10  166.58    4.41
   1  -2  11    7.18    0.95
  -1   2 -11    7.44    0.77
   1  -2  11    7.31    0.83
  -1   2 -11    6.60    0.84
   1  -2  12   49.99    2.53
  -1   2 -12   46.98    2.05
  -1   2 -12   48.33    2.32
   1  -2  13   32.99    2.14
  -1   2 -13   30.21    1.90
  -1   2 -13   31.73    1.71
   1  -2  14    6.90    1.07
  -1   2 -14   10.42    1.18
   1  -2  15    5.68    1.13
  -1   2 -15    4.43    0.89
   1  -2  16    9.46    1.42
  -1   2 -16    8.01    1.19
   1  -2  17    1.35    0.86
  -1   2 -17    1.90    0.75
  -1   2 -18    0.89    0.58
   1  -1 -17   29.22    2.26
   1  -1 -17   37.18    2.51
  -1   1  16    2.89    0.80
   1  -1 -16    3.07    0.84
   1  -1 -16    3.00    0.78
  -1   1  15   50.50    3.06
  -1   1  15   48.16    2.43
   1  -1 -15   44.11    2.61
   1  -1 -15   46.08    2.62
  -1   1  14    8.28    1.27
  -1   1  14    7.51    0.98
   1  -1 -14    8.74    1.17
  -1   1  13    5.53    0.62
  -1   1  13    6.76    1.05
  -1   1  13    7.42    0.88
   1  -1 -13    5.31    0.82
  -1   1  12   34.25    1.49
  -1   1  12   32.95    2.19
  -1   1  12   33.27    1.78
   1  -1 -12   35.13    1.82
   1  -1 -12   33.91    1.96
  -1   1  11    2.87    0.44
  -1   1  11    2.81    0.69
  -1   1  11    2.23    0.52
   1  -1 -11    4.06    0.62
   1  -1 -11    2.66    0.56
  -1   1  10    2.83    0.41
  -1   1  10    3.13    0.55
   1  -1 -10    2.33    0.48
   1  -1 -10    3.40    0.63
   1  -1 -10    2.83    0.60
   1  -1  -9    0.08    0.36
  -1   1   9    0.30    0.20
   1  -1  -9    0.13    0.27
  -1   1   9    0.13    0.32
   1  -1  -9   -0.26    0.38
   1  -1  -9    0.35    0.28
   1  -1  -8    0.47    0.34
  -1   1   8    0.29    0.20
  -1   1   8    0.45    0.33
   1  -1  -8    0.50    0.28
   1  -1  -8    0.21    0.34
   1  -1  -8    0.44    0.31
   1  -1  -7    0.07    0.29
  -1   1   7    0.33    0.20
  -1   1   7    0.27    0.28
   1  -1  -7    0.19    0.25
   1  -1  -7    0.52    0.34
   1  -1  -7    0.46    0.28
  -1   1   6    4.67    0.45
   1  -1  -6    5.13    0.59
  -1   1   6    5.45    0.56
   1  -1  -6    4.85    0.52
   1  -1  -6    4.97    0.58
  -1   1   5   45.61    1.40
   1  -1  -5   46.62    1.62
  -1   1   5   48.90    1.55
   1  -1  -5   46.41    1.51
   1  -1  -5   47.74    1.64
   1  -1  -4   14.20    0.76
  -1   1   4   14.27    0.69
   1  -1  -4   13.98    0.69
  -1   1   4   15.50    0.78
   1  -1  -4   14.64    0.75
   1  -1  -4   14.45    0.83
   1  -1  -3    2.10    0.31
  -1   1   3    1.83    0.29
   1  -1  -3    1.82    0.28
  -1   1   3    1.56    0.31
   1  -1  -3    1.89    0.30
   1  -1  -3    1.94    0.37
   1  -1  -2  127.67    2.52
  -1   1   2  125.62    2.52
   1  -1  -2  123.45    2.42
  -1   1   2  129.20    2.56
   1  -1  -2  129.31    2.56
   1  -1  -2  126.41    2.58
  -1   1   1  809.74   13.04
   1  -1  -1  802.55   13.04
   1  -1  -1  801.02   13.04
  -1   1   1  836.72   13.06
   1  -1   0   24.97    0.72
  -1   1   0   25.87    0.72
  -1   1   0   26.63    0.72
   1  -1   0   26.11    0.72
   1  -1   1  318.20    5.17
  -1   1  -1  310.16    5.17
   1  -1   1  317.29    5.38
  -1   1  -1  313.17    5.38
  -1   1  -1  313.30    5.21
   1  -1   1  310.48    5.21
   1  -1   1  318.90    5.36
  -1   1  -2   29.11    0.90
   1  -1   2   30.82    0.92
   1  -1   2   29.86    0.83
  -1   1  -2   30.10    0.84
   1  -1   2   30.41    0.96
  -1   1  -2   30.54    0.95
  -1   1  -3  194.69    3.83
   1  -1   3  197.81    3.83
   1  -1   3  194.52    3.67
  -1   1  -3  197.41    3.67
   1  -1   3  197.26    3.55
  -1   1  -3  198.88    3.84
   1  -1   3  204.08    3.87
  -1   1  -3  198.95    3.56
   1  -1   4  357.66    6.69
  -1   1  -4  359.97    6.72
  -1   1  -4  368.09    6.48
  -1   1  -4  371.24    6.31
  -1   1  -4  366.14    6.66
  -1   1  -4  371.41    6.37
   1  -1   4  370.93    6.70
   1  -1   4  362.22    6.35
  -1   1  -5  904.49   15.20
   1  -1   5  877.46   15.17
  -1   1  -5  907.68   14.65
  -1   1  -5  904.89   14.91
   1  -1   5  897.17   15.13
   1  -1   5  877.34   14.74
  -1   1  -5  890.50   14.75
  -1   1  -5  910.43   15.12
  -1   1  -6  379.88    7.32
   1  -1   6  370.03    7.29
  -1   1  -6  375.13    6.71
  -1   1  -6  376.04    6.98
   1  -1   6  361.44    6.83
  -1   1  -6  374.94    7.19
   1  -1   6  372.60    7.19
  -1   1  -6  376.47    6.86
  -1   1  -7  114.82    3.19
   1  -1   7  107.23    3.12
  -1   1  -7  108.75    2.88
  -1   1  -7  107.81    2.63
   1  -1   7  109.38    2.79
  -1   1  -7  108.32    2.78
   1  -1   7  108.31    3.05
  -1   1  -7  110.86    3.04
  -1   1  -8  294.34    6.34
   1  -1   8  268.64    6.19
  -1   1  -8  275.26    5.52
  -1   1  -8  274.64    5.86
  -1   1  -8  279.72    6.08
   1  -1   8  276.57    6.08
   1  -1   8  273.18    5.75
  -1   1  -8  286.61    5.77
  -1   1  -9  149.90    4.19
   1  -1   9  139.77    4.10
  -1   1  -9  136.69    3.73
  -1   1  -9  140.43    3.45
  -1   1  -9  151.20    4.04
   1  -1   9  135.80    3.64
  -1   1  -9  150.31    3.73
   1  -1  10  306.94    7.40
  -1   1 -10  329.78    7.05
  -1   1 -10  326.41    6.59
  -1   1 -10  331.94    7.28
  -1   1 -10  333.03    6.92
   1  -1  10  320.62    6.90
   1  -1  11   36.37    2.07
  -1   1 -11   36.24    1.85
  -1   1 -11   36.79    1.64
   1  -1  11   34.08    1.74
  -1   1 -11   37.63    1.81
   1  -1  12  299.03    7.53
  -1   1 -12  293.89    6.47
  -1   1 -12  303.27    7.07
  -1   1 -12  302.62    6.88
   1  -1  13   85.53    3.63
  -1   1 -13   86.07    2.89
  -1   1 -13   81.06    3.21
  -1   1 -13   89.24    3.21
   1  -1  14    4.65    0.93
  -1   1 -14    6.20    0.94
  -1   1 -14    4.11    0.76
   1  -1  15   26.72    2.16
  -1   1 -15   23.97    1.85
  -1   1 -15   26.76    1.84
   1  -1  16   24.36    2.19
  -1   1 -16   20.91    1.80
  -1   1 -16   25.21    1.87
  -1   1 -17    3.03    0.86
  -1   1 -18   17.24    1.74
   1   0 -18   23.41    2.08
   1   0 -17    1.71    0.69
   1   0 -17    2.26    0.78
  -1   0  16   30.20    2.44
   1   0 -16   30.19    2.25
   1   0 -16   28.78    2.16
  -1   0  15   75.75    3.75
   1   0 -15   75.96    3.46
   1   0 -15   70.97    3.31
  -1   0  14   22.62    1.93
   1   0 -14   20.21    1.69
   1   0 -14   23.46    1.76
  -1   0  13    9.99    0.76
  -1   0  13    8.66    1.16
  -1   0  13    7.81    0.94
   1   0 -13    8.28    1.08
   1   0 -13    7.60    1.00
  -1   0  12  173.71    3.98
  -1   0  12  176.49    5.39
   1   0 -12  179.99    4.76
  -1   0  12  168.24    4.66
   1   0 -12  171.16    4.95
  -1   0  11    0.18    0.22
  -1   0  11    0.98    0.49
   1   0 -11   -0.06    0.33
  -1   0  11    0.46    0.34
   1   0 -11   -0.08    0.37
   1   0 -11   -0.15    0.37
  -1   0  10    7.05    0.59
   1   0 -10    7.11    0.76
  -1   0  10    7.96    0.83
   1   0 -10    7.36    0.84
   1   0 -10    7.36    0.78
  -1   0  10    7.59    0.86
  -1   0   9   76.62    2.11
   1   0  -9   76.52    2.79
  -1   0   9   73.29    2.46
   1   0  -9   76.81    2.51
   1   0  -9   72.01    2.59
  -1   0   9   74.19    2.65
   1   0  -9   72.58    2.51
  -1   0   8   16.90    0.86
   1   0  -8   19.25    1.24
  -1   0   8   17.67    1.07
   1   0  -8   16.17    1.02
  -1   0   8   16.48    1.11
   1   0  -8   17.07    1.11
   1   0  -8   19.23    1.12
  -1   0   7   12.04    0.69
   1   0  -7   12.19    0.83
  -1   0   7   12.52    0.85
  -1   0   7   12.65    0.91
   1   0  -7   13.26    0.87
   1   0  -7   13.63    0.94
  -1   0   6   21.18    0.88
  -1   0   6   21.03    1.05
   1   0  -6   21.14    1.04
   1   0  -6   20.90    1.01
  -1   0   6   19.94    1.08
   1   0  -6   22.36    1.14
  -1   0   5    1.19    0.25
  -1   0   5    1.50    0.40
   1   0  -5    1.22    0.31
  -1   0   5    0.86    0.29
   1   0  -5    1.45    0.40
   1   0  -5    2.49    0.36
  -1   0   4    7.55    0.57
   1   0  -4    7.60    0.54
  -1   0   4    7.11    0.55
   1   0  -4    6.89    0.59
  -1   0   3    6.51    0.50
   1   0  -3    6.10    0.46
  -1   0   3    7.34    0.50
   1   0  -3    6.65    0.52
  -1   0   2    4.99    0.39
   1   0  -2    4.79    0.36
  -1   0   2    4.76    0.35
   1   0  -2    5.03    0.39
  -1   0   1  101.45    1.94
   1   0  -1   98.11    1.92
  -1   0   1   97.38    1.90
   1   0  -1  100.12    1.90
   1   0   0    4.32    0.25
  -1   0   0    6.07    0.28
  -1   0   0    4.85    0.23
   1   0   1    0.00    0.11
  -1   0  -1    0.46    0.13
   1   0   1   -0.02    0.14
  -1   0  -1    0.35    0.12
  -1   0  -1    0.22    0.14
   1   0   2   73.08    1.75
  -1   0  -2   77.82    1.76
   1   0   2   75.69    1.70
  -1   0  -2   75.90    1.69
  -1   0  -2   75.78    1.42
   1   0   2   76.57    1.74
  -1   0  -2   74.55    1.72
  -1   0  -3   16.55    0.76
   1   0   3   17.68    0.80
  -1   0  -3   17.75    0.82
   1   0   3   16.42    0.80
   1   0   3   18.20    0.51
  -1   0  -3   17.27    0.50
  -1   0  -3   18.02    0.61
  -1   0  -3   17.78    0.79
   1   0   3   17.05    0.80
  -1   0  -4   27.20    1.12
   1   0   4   28.14    1.16
  -1   0  -4   27.46    1.16
   1   0   4   27.72    1.17
  -1   0  -4   28.87    0.81
   1   0   4   28.69    0.81
  -1   0  -4   28.94    0.94
  -1   0  -4   29.36    1.14
   1   0   4   28.91    1.15
   1   0   4   28.60    0.94
  -1   0  -5    2.78    0.41
   1   0   5    2.58    0.48
   1   0   5    2.90    0.30
  -1   0  -5    2.87    0.29
  -1   0  -5    2.97    0.45
   1   0   5    2.58    0.34
  -1   0  -5    2.76    0.36
   1   0   5    3.59    0.53
  -1   0  -6  388.85    7.42
   1   0   6  360.05    6.14
   1   0   6  378.30    7.49
  -1   0  -6  385.54    6.66
   1   0   6  388.70    6.67
  -1   0  -6  391.19    7.38
   1   0   6  381.89    6.94
   1   0   6  398.51    7.40
  -1   0  -6  384.85    6.94
   1   0   7   14.97    0.50
  -1   0  -7   17.80    1.12
   1   0   7   15.27    1.11
   1   0   7   16.19    0.79
  -1   0  -7   15.56    0.78
  -1   0  -7   17.05    1.08
  -1   0  -7   15.38    0.90
   1   0   8   93.12    1.87
  -1   0  -8  101.71    3.12
   1   0   8   91.30    3.07
  -1   0  -8   95.41    2.44
   1   0   8   98.98    2.47
  -1   0  -8   99.31    2.72
  -1   0  -8  100.77    3.04
  -1   0  -9  260.40    5.93
   1   0   9  226.99    4.10
   1   0   9  235.32    5.85
   1   0   9  241.85    4.93
  -1   0  -9  240.09    4.92
  -1   0  -9  252.03    5.75
  -1   0  -9  239.90    5.27
   1   0  10   23.98    0.71
   1   0  10   23.29    1.62
  -1   0 -10   21.74    1.33
  -1   0 -10   23.96    1.19
  -1   0 -10   25.02    1.38
  -1   0 -10   26.05    1.60
   1   0  11    0.68    0.12
   1   0  11    0.82    0.12
   1   0  11    0.79    0.48
  -1   0 -11    0.90    0.31
  -1   0 -11    0.18    0.34
  -1   0 -11    1.13    0.40
   1   0  12   -0.11    0.51
  -1   0 -12   -0.43    0.37
  -1   0 -12    0.46    0.39
  -1   0 -12    0.26    0.36
   1   0  13  126.00    4.61
  -1   0 -13  125.16    3.59
  -1   0 -13  126.13    4.09
  -1   0 -13  132.74    4.09
   1   0  14   93.66    4.05
  -1   0 -14   93.07    3.55
  -1   0 -14   95.96    3.52
   1   0  15    5.03    0.97
  -1   0 -15    3.65    0.76
  -1   0 -15    3.81    0.79
   1   0  16   48.53    3.13
  -1   0 -16   49.58    2.72
  -1   0 -16   46.53    2.57
  -1   0 -17    6.35    1.04
  -1   0 -17    5.45    1.01
  -1   0 -18   19.08    1.85
  -1  -1  17   11.54    1.56
   1   1 -17   10.80    1.45
   1   1 -17    9.70    1.29
  -1  -1  16    3.64    0.99
   1   1 -16    3.60    0.93
   1   1 -16    3.36    0.87
  -1  -1  15    7.00    1.26
   1   1 -15    4.95    0.99
   1   1 -15    6.72    1.03
  -1  -1  14   44.71    2.68
   1   1 -14   44.54    2.54
   1   1 -14   45.42    2.48
  -1  -1  13  125.57    3.14
  -1  -1  13  128.76    4.56
  -1  -1  13  128.22    3.14
   1   1 -13  121.24    4.26
   1   1 -13  117.99    4.12
  -1  -1  12   28.33    1.25
  -1  -1  12   29.07    1.25
  -1  -1  12   25.54    1.84
   1   1 -12   29.61    1.89
   1   1 -12   27.11    1.75
  -1  -1  11  204.15    4.45
  -1  -1  11  206.45    5.70
  -1  -1  11  215.55    4.48
   1   1 -11  203.72    5.49
   1   1 -11  213.92    5.29
   1   1 -11  209.91    5.22
   1   1 -11  209.40    5.43
  -1  -1  10  228.39    4.77
  -1  -1  10  223.54    5.87
   1   1 -10  236.43    5.81
   1   1 -10  237.83    5.55
  -1  -1  10  230.36    5.51
   1   1 -10  237.99    5.48
  -1  -1  10  237.10    5.75
   1   1 -10  238.78    5.70
  -1  -1   9   13.23    0.78
   1   1  -9   14.45    1.05
   1   1  -9   15.59    1.17
  -1  -1   9   12.29    0.97
  -1  -1   9   14.38    1.09
   1   1  -9   15.65    1.14
   1   1  -9   17.23    1.08
  -1  -1   8   95.82    2.88
   1   1  -8  100.62    3.08
   1   1  -8  100.70    2.91
   1   1  -8   99.20    2.78
   1   1  -8  101.24    3.02
  -1  -1   8  102.33    3.04
  -1  -1   7  588.67   10.63
   1   1  -7  582.59   10.63
   1   1  -7  589.30   10.83
   1   1  -7  582.64   10.73
  -1  -1   7  580.31   10.75
   1   1  -7  586.73   10.37
  -1  -1   6   67.55    2.07
   1   1  -6   66.28    2.05
   1   1  -6   65.94    1.87
   1   1  -6   66.73    2.12
  -1  -1   6   63.51    2.07
   1   1  -5   79.21    2.19
  -1  -1   5   78.17    2.19
   1   1  -5   79.53    2.28
   1   1  -5   79.80    1.96
   1   1  -5   78.29    2.22
  -1  -1   5   79.23    2.22
   1   1  -4  180.33    3.81
   1   1  -4  179.56    3.71
  -1  -1   4  173.41    3.71
  -1  -1   4  173.73    3.72
   1   1  -4  178.69    3.36
   1   1  -4  176.81    3.73
   1   1  -3  154.91    3.22
  -1  -1   3  153.74    3.18
   1   1  -3  153.26    3.16
   1   1  -3  162.22    3.23
   1   1  -3  149.31    2.76
  -1  -1   3  147.88    3.15
  -1  -1   2   11.36    0.56
   1   1  -2   11.31    0.58
   1   1  -2   11.72    0.59
  -1  -1   2   12.20    0.62
  -1  -1   2   11.07    0.56
   1   1  -1    6.41    0.39
  -1  -1   1    6.75    0.41
   1   1  -1    6.83    0.40
  -1  -1   1    6.21    0.37
   1   1  -1    6.73    0.39
   1   1   0    5.89    0.38
  -1  -1   0    6.71    0.40
  -1  -1   0    5.58    0.30
   1   1   0    6.24    0.33
  -1  -1   0    6.10    0.28
  -1  -1  -1   10.65    0.51
   1   1   1   10.31    0.52
   1   1   1    9.95    0.34
  -1  -1  -1   10.74    0.36
  -1  -1  -1   11.00    0.51
  -1  -1  -1   11.60    0.49
   1   1   1   10.29    0.47
   1   1   1   11.17    0.38
  -1  -1  -1   10.16    0.37
  -1  -1  -1   10.34    0.47
   1   1   2    2.52    0.35
  -1  -1  -2    2.72    0.35
   1   1   2    2.53    0.26
  -1  -1  -2    3.24    0.30
  -1  -1  -2    2.68    0.32
   1   1   2    2.94    0.37
  -1  -1  -2    2.93    0.32
  -1  -1  -3  210.05    3.71
  -1  -1  -3  212.92    4.10
   1   1   3  208.44    4.11
   1   1   3  207.45    4.14
  -1  -1  -3  207.83    4.16
   1   1   3  197.19    3.68
   1   1   3  201.39    3.51
  -1  -1  -3  216.25    4.11
   1   1   4  137.00    2.75
   1   1   4  146.84    3.29
  -1  -1  -4  144.60    2.75
  -1  -1  -4  147.57    3.28
   1   1   4  144.46    3.35
  -1  -1  -4  146.13    3.38
  -1  -1  -4  143.70    2.69
   1   1   4  145.69    2.69
  -1  -1  -4  153.21    3.33
  -1  -1  -5   -0.19    0.27
   1   1   5   -0.13    0.34
  -1  -1  -5   -0.06    0.15
   1   1   5    0.26    0.16
   1   1   5    0.24    0.31
  -1  -1  -5    0.08    0.15
   1   1   5    0.10    0.16
  -1  -1  -5    0.13    0.27
  -1  -1  -5   -0.11    0.25
  -1  -1  -6   43.31    1.71
   1   1   6   40.94    1.69
  -1  -1  -6   42.12    1.14
   1   1   6   41.07    1.16
   1   1   6   43.06    1.79
   1   1   6   43.90    1.26
  -1  -1  -6   41.59    1.23
  -1  -1  -6   42.50    1.69
  -1  -1  -6   42.56    1.48
   1   1   7  169.99    3.42
  -1  -1  -7  188.71    4.48
  -1  -1  -7  179.83    3.39
   1   1   7  177.48    4.52
   1   1   7  179.75    3.65
  -1  -1  -7  178.01    3.65
  -1  -1  -7  194.28    4.52
  -1  -1  -7  180.34    4.04
   1   1   8   16.70    0.71
  -1  -1  -8   18.02    0.71
  -1  -1  -8   18.36    1.24
   1   1   8   15.75    1.24
  -1  -1  -8   16.90    0.85
   1   1   8   16.64    0.85
  -1  -1  -8   18.45    1.23
  -1  -1  -8   16.41    1.02
  -1  -1  -9  162.61    4.45
   1   1   9  150.11    3.14
   1   1   9  149.17    4.46
   1   1   9  156.31    3.54
  -1  -1  -9  158.96    3.57
  -1  -1  -9  160.17    3.98
  -1  -1  -9  163.24    4.41
   1   1  10   16.68    0.73
   1   1  10   16.62    1.40
  -1  -1 -10   15.96    0.96
   1   1  10   16.68    0.97
  -1  -1 -10   15.58    1.10
   1   1  11   66.19    1.70
   1   1  11   69.06    3.04
  -1  -1 -11   69.26    2.24
   1   1  11   65.90    2.20
  -1  -1 -11   70.16    2.60
   1   1  12  120.68    2.53
   1   1  12  114.40    4.26
   1   1  12  119.66    3.30
  -1  -1 -12  112.27    3.23
  -1  -1 -12  124.68    3.80
   1   1  13   19.28    1.74
  -1  -1 -13   18.00    1.19
  -1  -1 -13   19.66    1.46
   1   1  14   11.84    1.49
  -1  -1 -14   10.50    1.15
  -1  -1 -14   11.43    1.19
   1   1  15    1.31    0.74
  -1  -1 -15    2.21    0.66
  -1  -1 -15    0.29    0.45
   1   1  16   14.45    1.75
  -1  -1 -16    9.86    1.24
  -1  -1 -16    9.04    1.14
  -1  -1 -17    2.35    0.79
  -1  -1 -17    3.16    0.75
  -1  -2  17    0.80    0.70
   1   2 -17    1.85    0.80
  -1  -2  16   39.03    2.66
   1   2 -16   34.79    2.49
  -1  -2  15   13.36    1.53
   1   2 -15   14.65    1.52
  -1  -2  14   45.76    2.67
   1   2 -14   49.73    2.72
  -1  -2  13  139.69    3.39
  -1  -2  13  130.53    4.61
   1   2 -13  130.57    4.54
   1   2 -13  144.64    4.58
  -1  -2  12    3.77    0.77
  -1  -2  12    4.12    0.51
  -1  -2  12    3.87    0.49
   1   2 -12    3.35    0.72
   1   2 -12    5.56    0.75
   1   2 -12    4.87    0.87
  -1  -2  11    2.69    0.41
  -1  -2  11    2.46    0.37
  -1  -2  11    2.60    0.61
   1   2 -11    3.25    0.62
   1   2 -11    1.60    0.52
   1   2 -11    2.26    0.62
   1   2 -11    2.73    0.55
  -1  -2  10   20.67    1.04
  -1  -2  10   18.68    1.39
   1   2 -10   22.11    1.40
   1   2 -10   20.69    1.45
   1   2 -10   19.58    1.21
   1   2 -10   21.82    1.44
  -1  -2  10   22.04    1.44
  -1  -2   9  372.11    7.02
   1   2  -9  376.30    7.78
   1   2  -9  364.63    7.94
  -1  -2   9  385.95    7.96
   1   2  -9  374.18    7.39
   1   2  -9  369.26    7.85
  -1  -2   8    9.72    0.67
   1   2  -8   10.49    0.89
   1   2  -8    9.12    0.71
  -1  -2   8    9.10    0.86
   1   2  -8    9.84    0.93
   1   2  -8    8.74    0.84
  -1  -2   7    4.19    0.45
   1   2  -7    3.57    0.53
   1   2  -7    3.15    0.40
  -1  -2   7    2.89    0.48
   1   2  -7    4.95    0.64
   1   2  -7    3.49    0.59
  -1  -2   6  541.14    9.37
   1   2  -6  542.48    9.85
   1   2  -6  537.30    9.95
  -1  -2   6  532.89    9.29
   1   2  -6  527.42    9.26
   1   2  -6  534.52    9.86
  -1  -2   6  536.90    9.88
  -1  -2   5  166.56    3.44
   1   2  -5  159.56    3.76
   1   2  -5  163.64    3.73
   1   2  -5  156.10    3.19
  -1  -2   5  162.20    3.23
  -1  -2   5  156.13    3.69
  -1  -2   4   15.08    0.76
  -1  -2   4   13.45    0.84
   1   2  -4   16.90    0.95
   1   2  -4   15.22    0.85
   1   2  -4   14.15    0.59
  -1  -2   4   14.16    0.58
  -1  -2   4   15.65    0.86
  -1  -2   3    0.99    0.32
   1   2  -3    0.97    0.28
   1   2  -3    0.64    0.30
  -1  -2   3    0.76    0.16
   1   2  -3    0.40    0.36
  -1  -2   3    0.64    0.25
  -1  -2   3    0.52    0.28
   1   2  -2  175.47    3.57
  -1  -2   2  184.34    3.61
   1   2  -2  181.50    3.65
  -1  -2   2  182.58    3.63
  -1  -2   2  178.07    3.04
   1   2  -1   28.75    1.04
  -1  -2   1   24.01    0.89
  -1  -2   1   25.33    0.96
   1   2  -1   23.08    0.93
  -1  -2   0  315.69    5.63
   1   2   0  323.23    5.65
   1   2   0  328.16    5.81
  -1  -2   0  325.65    5.82
   1   2   1  827.69   13.37
  -1  -2  -1  803.03   13.12
   1   2   1  807.92   13.12
   1   2   1  822.30   13.13
   1   2   1  784.04   13.30
  -1  -2  -1  798.18   13.13
  -1  -2  -1  817.34   13.35
  -1  -2  -2  114.85    2.54
   1   2   2  120.18    2.66
  -1  -2  -2  117.52    2.66
  -1  -2  -2  113.02    2.38
   1   2   2  115.03    2.56
   1   2   2  110.87    2.51
  -1  -2  -2  117.54    2.58
  -1  -2  -3   59.38    1.60
   1   2   3   61.11    1.80
  -1  -2  -3   58.90    1.76
   1   2   3   55.07    1.57
  -1  -2  -3   58.73    1.78
   1   2   3   59.20    1.76
   1   2   4  121.02    2.74
   1   2   4  128.85    3.11
  -1  -2  -4  130.44    3.11
  -1  -2  -4  123.34    2.74
   1   2   4  127.36    3.12
   1   2   4  127.66    2.56
   1   2   5  174.22    3.72
  -1  -2  -5  187.08    3.75
  -1  -2  -5  197.24    4.32
   1   2   5  193.04    4.29
   1   2   5  184.51    4.32
   1   2   5  189.67    3.60
  -1  -2  -5  183.12    4.27
   1   2   6   81.10    2.11
   1   2   6   90.47    2.70
  -1  -2  -6   83.32    2.10
  -1  -2  -6   84.94    2.63
   1   2   6   83.08    2.69
  -1  -2  -6   83.19    2.03
   1   2   6   85.20    2.04
  -1  -2  -6   83.64    2.64
  -1  -2  -7  231.41    5.36
  -1  -2  -7  233.63    4.50
   1   2   7  218.01    4.50
   1   2   7  227.33    5.35
   1   2   7  225.22    5.45
   1   2   7  234.98    4.52
  -1  -2  -7  229.32    4.51
  -1  -2  -7  227.28    5.35
  -1  -2  -7  234.98    5.01
   1   2   8   44.98    1.51
  -1  -2  -8   48.13    1.50
  -1  -2  -8   50.34    2.14
   1   2   8   45.87    2.06
   1   2   8   47.83    2.20
  -1  -2  -8   47.74    1.57
   1   2   8   48.33    1.56
  -1  -2  -8   51.92    2.17
  -1  -2  -8   51.06    1.91
   1   2   9    5.79    0.51
  -1  -2  -9    6.83    0.82
  -1  -2  -9    6.22    0.51
   1   2   9    7.12    0.94
  -1  -2  -9    6.34    0.58
   1   2   9    5.97    0.55
  -1  -2  -9    5.74    0.69
  -1  -2  -9    6.28    0.78
   1   2  10   59.53    1.83
  -1  -2 -10   63.72    1.82
   1   2  10   61.07    2.78
   1   2  10   63.24    2.03
  -1  -2 -10   60.96    2.01
  -1  -2 -10   62.38    2.38
   1   2  11   72.30    2.05
   1   2  11   68.77    3.08
   1   2  11   70.23    2.27
  -1  -2 -11   73.64    2.33
  -1  -2 -11   69.74    2.67
   1   2  12   45.99    2.60
   1   2  12   45.68    1.53
  -1  -2 -12   45.11    1.83
   1   2  12   43.67    1.79
  -1  -2 -12   45.34    2.19
   1   2  13    0.99    0.60
  -1  -2 -13    1.65    0.45
   1   2  13    1.08    0.38
  -1  -2 -13    1.32    0.51
   1   2  14   76.93    3.73
   1   2  14   74.03    2.62
  -1  -2 -14   71.91    3.10
   1   2  15   11.08    1.50
  -1  -2 -15   10.17    1.19
   1   2  16   13.56    1.71
  -1  -2 -16   13.21    1.40
  -1  -2 -16   12.59    1.38
  -1  -2 -17    2.00    0.75
  -1  -2 -17    1.51    0.61
  -1  -3  17    1.66    0.89
  -1  -3  16    7.69    1.27
   1   3 -16    9.38    1.35
  -1  -3  15   14.25    1.55
   1   3 -15   12.26    1.47
  -1  -3  14    1.35    0.64
   1   3 -14    0.85    0.50
  -1  -3  13   13.59    1.37
  -1  -3  13   12.40    0.88
   1   3 -13   13.47    1.41
  -1  -3  12  247.22    6.56
  -1  -3  12  259.40    5.48
   1   3 -12  253.83    6.74
   1   3 -12  261.56    6.09
  -1  -3  11   34.55    1.48
  -1  -3  11   33.70    1.92
   1   3 -11   34.71    2.03
   1   3 -11   34.06    1.68
  -1  -3  10  126.63    3.89
  -1  -3  10  128.44    3.26
   1   3 -10  131.16    4.09
   1   3 -10  133.36    3.94
   1   3 -10  125.61    3.47
  -1  -3   9   34.12    1.43
  -1  -3   9   32.32    1.69
   1   3  -9   33.94    1.84
   1   3  -9   36.47    1.80
   1   3  -9   36.29    1.53
  -1  -3   9   37.60    1.86
  -1  -3   8  148.63    3.50
   1   3  -8  150.38    4.01
   1   3  -8  148.09    4.12
  -1  -3   8  145.90    3.99
  -1  -3   8  144.95    3.47
   1   3  -8  139.77    3.42
  -1  -3   7   16.27    0.93
   1   3  -7   16.03    1.14
   1   3  -7   17.57    1.14
   1   3  -7   18.07    0.90
  -1  -3   7   17.16    0.90
  -1  -3   7   17.29    1.14
  -1  -3   6   48.47    1.66
   1   3  -6   48.99    1.94
   1   3  -6   49.48    1.90
   1   3  -6   45.01    1.43
  -1  -3   6   49.43    1.88
  -1  -3   6   49.82    1.49
  -1  -3   5  341.88    6.51
  -1  -3   5  344.43    6.90
   1   3  -5  344.75    6.89
   1   3  -5  347.53    6.85
   1   3  -5  337.66    6.04
  -1  -3   5  343.66    6.79
  -1  -3   5  339.05    6.06
  -1  -3   4  113.63    2.75
   1   3  -4  110.93    2.69
   1   3  -4  114.27    2.95
  -1  -3   4  108.47    2.90
  -1  -3   4  105.07    2.24
   1   3  -3   19.76    0.94
  -1  -3   3   18.27    0.95
   1   3  -3   19.41    1.03
  -1  -3   3   19.18    0.99
  -1  -3   3   17.97    0.63
  -1  -3   2    1.72    0.44
   1   3  -2    1.52    0.32
  -1  -3   2    1.23    0.31
   1   3  -2    1.63    0.39
   1   3  -1  187.19    3.87
  -1  -3   1  188.17    3.85
  -1  -3   1  183.88    3.93
   1   3  -1  179.22    3.87
   1   3   0   32.08    1.17
  -1  -3   0   29.82    1.10
   1   3   0   28.69    1.16
  -1  -3   0   28.90    1.20
  -1  -3   0   29.79    0.86
   1   3   1  985.13   16.07
  -1  -3  -1  976.52   16.14
  -1  -3  -1  963.24   15.87
   1   3   1  971.65   15.87
  -1  -3  -1  955.30   15.64
   1   3   1  968.21   16.08
   1   3   1  947.72   15.61
   1   3   2   64.41    1.91
  -1  -3  -2   64.03    1.91
  -1  -3  -2   63.67    1.89
  -1  -3  -2   64.72    1.76
   1   3   2   62.31    1.72
   1   3   2   61.12    1.85
  -1  -3  -2   62.98    1.76
  -1  -3  -3  139.49    3.17
   1   3   3  134.10    3.25
  -1  -3  -3  136.16    3.26
   1   3   3  135.76    3.15
  -1  -3  -3  130.95    3.16
   1   3   3  133.37    3.14
  -1  -3  -4  150.54    3.45
   1   3   4  149.59    3.63
  -1  -3  -4  154.17    3.67
   1   3   4  157.18    3.21
   1   3   4  154.14    3.65
   1   3   4  142.68    3.40
  -1  -3  -5  149.11    3.41
   1   3   5  142.02    3.39
  -1  -3  -5  148.57    3.74
   1   3   5  148.69    3.71
   1   3   5  146.64    3.16
   1   3   5  150.76    3.77
  -1  -3  -6  451.07    8.15
  -1  -3  -6  457.64    8.78
   1   3   6  425.63    8.14
   1   3   6  442.83    8.71
   1   3   6  436.82    8.78
   1   3   6  442.13    7.89
   1   3   7  414.15    8.13
  -1  -3  -7  441.46    8.13
   1   3   7  435.70    8.88
  -1  -3  -7  467.05    9.01
   1   3   7  442.24    9.01
   1   3   7  442.39    7.95
  -1  -3  -7  451.12    8.99
  -1  -3  -8  300.92    5.92
  -1  -3  -8  308.40    6.85
   1   3   8  289.53    6.72
   1   3   8  281.86    5.91
   1   3   8  290.71    6.90
   1   3   8  299.69    5.81
  -1  -3  -8  300.83    6.39
  -1  -3  -8  296.34    6.81
   1   3   9  162.97    4.64
   1   3   9  158.26    3.80
  -1  -3  -9  166.68    3.79
   1   3   9  162.36    4.78
   1   3   9  159.85    3.73
  -1  -3  -9  164.42    4.30
  -1  -3 -10  101.45    2.73
   1   3  10   98.59    2.77
   1   3  10  101.54    3.74
   1   3  10  100.25    2.79
  -1  -3 -10  101.85    3.30
  -1  -3 -11  171.38    3.94
   1   3  11  172.15    5.35
   1   3  11  164.74    3.97
   1   3  11  171.89    4.11
  -1  -3 -11  170.93    4.73
   1   3  12  238.77    6.87
   1   3  12  244.40    5.24
   1   3  12  248.57    5.48
  -1  -3 -12  241.27    6.15
   1   3  13   37.14    2.52
   1   3  13   36.86    1.70
  -1  -3 -13   34.93    2.04
   1   3  14    9.50    1.38
   1   3  14    8.84    0.85
  -1  -3 -14    5.53    0.88
   1   3  15  114.61    4.95
  -1  -3 -15  120.04    4.34
  -1  -3 -16   53.91    2.88
  -1  -3 -17    2.51    0.79
  -1  -4  17   10.54    1.50
  -1  -4  16    1.17    0.81
   1   4 -16   -0.44    0.53
  -1  -4  15    1.73    0.78
   1   4 -15    1.45    0.72
  -1  -4  14    4.44    0.85
   1   4 -14    2.49    0.81
  -1  -4  13   -0.19    0.28
  -1  -4  13    0.00    0.45
   1   4 -13    0.52    0.61
  -1  -4  12    2.40    0.59
  -1  -4  12    2.68    0.46
   1   4 -12    2.95    0.55
   1   4 -12    3.80    0.80
  -1  -4  11   53.28    2.01
  -1  -4  11   52.14    2.37
   1   4 -11   56.40    2.68
   1   4 -11   49.56    2.06
  -1  -4  10   28.72    1.43
  -1  -4  10   30.66    1.67
   1   4 -10   30.46    1.86
   1   4 -10   28.74    1.43
  -1  -4   9    0.23    0.30
  -1  -4   9    0.26    0.27
   1   4  -9    0.18    0.39
  -1  -4   9    0.00    0.27
   1   4  -9    0.89    0.50
   1   4  -9   -0.29    0.28
   1   4  -8    5.03    0.52
  -1  -4   8    5.99    0.65
  -1  -4   8    5.21    0.60
   1   4  -8    4.44    0.63
  -1  -4   8    6.85    0.83
  -1  -4   8    5.23    0.54
   1   4  -8    6.01    0.82
  -1  -4   7    0.19    0.25
   1   4  -7    0.04    0.30
  -1  -4   7    0.00    0.19
   1   4  -7    0.21    0.36
  -1  -4   7    0.39    0.34
  -1  -4   6   46.67    1.76
   1   4  -6   49.10    1.99
  -1  -4   6   46.06    2.01
   1   4  -6   46.49    2.00
  -1  -4   6   45.77    1.92
  -1  -4   6   47.06    1.46
   1   4  -5    1.71    0.37
  -1  -4   5    1.10    0.36
   1   4  -5    1.29    0.40
  -1  -4   5    1.46    0.40
  -1  -4   5    1.19    0.36
  -1  -4   5    1.18    0.24
   1   4  -4   35.19    1.45
  -1  -4   4   37.12    1.52
  -1  -4   4   37.34    1.61
   1   4  -4   36.59    1.60
  -1  -4   4   32.83    1.07
  -1  -4   3  175.22    4.11
   1   4  -3  176.41    4.13
  -1  -4   3  175.61    4.05
   1   4  -3  174.24    4.00
  -1  -4   2   54.07    1.85
   1   4  -2   53.93    1.85
  -1  -4   2   53.03    1.87
   1   4  -2   52.05    1.82
   1   4  -1   15.90    1.00
  -1  -4   1   12.83    0.84
  -1  -4   1   13.93    0.94
   1   4  -1   14.01    0.88
  -1  -4   1   12.80    0.47
  -1  -4   0  816.16   13.83
   1   4   0  795.00   13.56
  -1  -4   0  790.20   13.55
   1   4   0  776.73   13.71
  -1  -4   0  785.69   12.81
   1   4   1  467.57    8.57
  -1  -4  -1  463.73    8.67
  -1  -4  -1  464.36    8.42
   1   4   1  466.95    8.43
   1   4   1  457.77    8.63
  -1  -4  -1  461.49    8.00
   1   4   2    8.86    0.74
  -1  -4  -2    9.03    0.68
   1   4   2    8.95    0.75
  -1  -4  -2    9.07    0.78
   1   4   2    8.50    0.60
  -1  -4  -3  116.53    3.08
   1   4   3  115.51    3.08
  -1  -4  -3  115.87    3.10
  -1  -4  -3  115.58    2.89
   1   4   3  116.67    2.90
   1   4   3  112.11    3.04
  -1  -4  -4  190.45    4.50
  -1  -4  -4  192.87    4.38
   1   4   4  192.17    4.48
   1   4   4  187.83    4.37
   1   4   4  190.39    4.35
   1   4   5  143.80    3.86
  -1  -4  -5  155.66    3.99
  -1  -4  -5  151.81    3.73
   1   4   5  153.62    3.46
   1   4   5  146.56    3.72
   1   4   5  157.86    3.95
  -1  -4  -6    0.90    0.42
   1   4   6    0.62    0.46
  -1  -4  -6    0.05    0.29
   1   4   6    0.56    0.28
   1   4   6    1.13    0.35
   1   4   6    0.55    0.39
  -1  -4  -7  379.03    7.86
  -1  -4  -7  362.75    7.22
   1   4   7  347.69    7.21
   1   4   7  352.58    7.69
   1   4   7  361.45    6.90
   1   4   7  356.87    7.79
   1   4   8  144.20    3.76
   1   4   8  143.00    4.27
  -1  -4  -8  146.55    3.72
   1   4   8  150.56    4.41
   1   4   8  148.57    3.54
  -1  -4  -9   17.27    1.07
   1   4   9   17.45    1.42
   1   4   9   16.33    1.08
   1   4   9   15.43    1.35
   1   4   9   14.87    0.95
  -1  -4  -9   16.75    1.23
  -1  -4 -10   14.40    1.02
   1   4  10   13.71    1.30
   1   4  10   14.52    1.03
   1   4  10   15.22    1.45
   1   4  10   14.88    0.99
  -1  -4 -10   16.55    1.29
  -1  -4 -11   44.41    1.83
   1   4  11   40.73    2.34
   1   4  11   40.59    1.81
   1   4  11   42.38    2.48
   1   4  11   42.26    1.77
  -1  -4 -11   46.28    2.27
  -1  -4 -12   35.40    1.63
   1   4  12   38.65    2.48
   1   4  12   36.22    1.70
   1   4  12   38.39    1.72
  -1  -4 -12   35.59    2.07
  -1  -4 -13   41.80    1.77
   1   4  13   37.26    2.56
   1   4  13   38.83    1.80
  -1  -4 -13   37.95    2.23
   1   4  14   56.97    3.28
  -1  -4 -14   50.62    2.67
   1   4  15    3.67    1.04
  -1  -4 -15    4.37    0.91
  -1  -4 -16   23.07    1.93
  -1  -4 -17   67.55    3.43
  -1  -5  16    9.89    1.32
  -1  -5  15    1.95    0.69
   1   5 -15    2.11    0.76
  -1  -5  14    2.70    0.67
   1   5 -14    4.26    0.97
  -1  -5  13   18.37    1.22
  -1  -5  13   15.15    1.38
   1   5 -13   16.41    1.64
  -1  -5  12   43.50    1.93
  -1  -5  12   49.05    2.33
   1   5 -12   45.84    2.59
  -1  -5  11   31.79    1.62
  -1  -5  11   31.78    1.78
   1   5 -11   31.60    2.05
  -1  -5  10   40.89    1.90
  -1  -5  10   43.55    1.89
   1   5 -10   41.08    2.25
  -1  -5  10   41.34    1.74
  -1  -5   9    0.52    0.32
  -1  -5   9    0.64    0.34
   1   5  -9    0.75    0.45
  -1  -5   9    0.16    0.27
  -1  -5   8  157.32    4.03
  -1  -5   8  148.59    3.71
   1   5  -8  153.60    4.50
  -1  -5   8  148.24    3.56
  -1  -5   7  291.06    5.84
  -1  -5   7  295.73    6.36
  -1  -5   7  293.68    6.82
   1   5  -7  307.17    6.85
   1   5  -7  286.46    6.78
  -1  -5   7  300.78    6.75
  -1  -5   7  291.12    5.73
  -1  -5   6    0.46    0.22
  -1  -5   6    0.87    0.39
   1   5  -6    0.54    0.30
  -1  -5   6    0.43    0.24
  -1  -5   6    0.21    0.30
   1   5  -6    0.13    0.40
  -1  -5   6    0.68    0.38
   1   5  -5  212.88    4.87
  -1  -5   5  205.45    4.88
  -1  -5   5  215.10    5.17
   1   5  -5  213.32    5.15
  -1  -5   5  203.80    4.14
  -1  -5   4  174.10    4.27
   1   5  -4  162.28    4.14
   1   5  -4  176.71    4.42
  -1  -5   4  171.11    4.37
  -1  -5   4  174.61    3.54
  -1  -5   3  277.89    6.06
   1   5  -3  284.23    6.10
  -1  -5   3  279.94    6.05
   1   5  -3  281.71    6.02
   1   5  -2   77.13    2.50
  -1  -5   2   79.03    2.51
  -1  -5   2   76.18    2.53
   1   5  -2   74.82    2.47
  -1  -5   1   79.93    2.60
  -1  -5   1   80.34    2.51
   1   5  -1   84.01    2.55
   1   5  -1   81.46    2.59
  -1  -5   1   81.17    1.63
  -1  -5   0  313.18    6.53
   1   5   0  310.83    6.49
  -1  -5   0  306.48    6.28
   1   5   0  301.64    6.28
   1   5   1    1.32    0.50
  -1  -5  -1    0.45    0.45
   1   5   1    0.59    0.33
   1   5   1    1.11    0.44
  -1  -5  -1    0.34    0.25
   1   5   2   13.61    0.99
  -1  -5  -2   13.24    0.99
  -1  -5  -2   12.19    0.88
   1   5   2   12.87    0.76
   1   5   2   11.69    0.92
  -1  -5  -3   45.11    1.89
   1   5   3   49.96    1.96
  -1  -5  -3   45.15    1.77
   1   5   3   48.23    1.70
   1   5   3   47.92    1.93
  -1  -5  -4   18.87    1.21
  -1  -5  -4   17.64    1.16
   1   5   4   17.57    1.19
  -1  -5  -4   18.14    1.10
   1   5   4   16.99    1.05
   1   5   4   16.21    1.11
   1   5   5    7.61    0.87
  -1  -5  -5    8.02    0.80
  -1  -5  -5    7.47    0.80
   1   5   5    5.81    0.59
  -1  -5  -5    5.69    0.63
   1   5   5    6.94    0.75
   1   5   5    6.81    0.74
   1   5   6    1.67    0.48
  -1  -5  -6    2.80    0.60
  -1  -5  -6    2.37    0.47
   1   5   6    2.98    0.46
   1   5   6    3.09    0.54
   1   5   6    2.14    0.50
   1   5   7    5.37    0.80
  -1  -5  -7    7.09    0.77
  -1  -5  -7    7.98    0.94
   1   5   7    6.44    0.64
   1   5   7    7.26    0.86
   1   5   7    7.09    0.80
  -1  -5  -8   11.50    0.98
   1   5   8   10.40    1.09
   1   5   8   10.92    0.85
   1   5   8    9.62    0.92
   1   5   8   11.44    1.14
  -1  -5  -9   35.68    1.72
   1   5   9   36.59    2.07
   1   5   9   33.83    1.73
   1   5   9   30.84    1.95
   1   5   9   32.56    1.53
   1   5  10   14.06    1.37
  -1  -5 -10   11.61    0.99
   1   5  10   11.05    1.25
   1   5  10   12.22    1.05
   1   5  10   12.80    0.97
  -1  -5 -10   11.95    1.17
  -1  -5 -11    8.02    0.87
   1   5  11    6.80    1.07
   1   5  11    8.75    0.92
   1   5  11   10.31    1.29
   1   5  11    7.12    0.76
  -1  -5 -11    7.60    1.00
  -1  -5 -12   28.37    1.58
   1   5  12   27.87    2.15
   1   5  12   28.45    1.54
  -1  -5 -12   26.86    1.86
  -1  -5 -13    2.05    0.52
   1   5  13    3.13    0.90
   1   5  13    2.82    0.51
  -1  -5 -13    1.88    0.59
   1   5  14    0.97    0.55
  -1  -5 -14   -0.86    0.65
  -1  -5 -15   -0.04    0.60
  -1  -5 -16    0.31    0.54
   1   6 -15   13.84    1.66
  -1  -6  14   10.63    1.17
   1   6 -14   11.60    1.49
  -1  -6  13   10.77    1.11
   1   6 -13    9.93    1.34
  -1  -6  12   21.61    1.43
  -1  -6  12   21.08    1.47
   1   6 -12   21.10    1.85
  -1  -6  11  118.42    3.55
  -1  -6  11  106.47    3.48
   1   6 -11  113.33    4.26
  -1  -6  11  111.24    3.29
  -1  -6  10   31.52    1.72
  -1  -6  10   30.91    1.56
   1   6 -10   34.05    2.13
  -1  -6  10   33.12    1.54
  -1  -6   9   10.10    0.96
  -1  -6   9   10.72    0.83
   1   6  -9    9.60    1.13
  -1  -6   9    9.35    0.77
  -1  -6   8   77.42    2.28
  -1  -6   8   74.53    2.75
   1   6  -8   79.73    3.16
  -1  -6   8   78.73    2.33
  -1  -6   7  108.89    3.43
  -1  -6   7  116.62    2.74
   1   6  -7  111.66    3.39
   1   6  -7  107.90    3.72
  -1  -6   7  110.30    2.83
   1   6  -6  203.46    5.07
  -1  -6   6  211.54    5.21
  -1  -6   6  213.48    4.06
   1   6  -6  210.06    5.47
  -1  -6   6  206.18    4.37
  -1  -6   5   81.19    1.72
   1   6  -5   79.24    2.73
  -1  -6   5   76.68    2.76
  -1  -6   5   80.85    2.92
   1   6  -5   80.60    2.94
  -1  -6   5   79.34    2.16
  -1  -6   4  101.09    3.24
  -1  -6   4  100.63    3.27
   1   6  -4  104.89    3.33
   1   6  -4  103.13    3.18
  -1  -6   3   85.23    2.87
  -1  -6   3   80.87    2.77
   1   6  -3   79.66    2.79
   1   6  -3   78.55    2.72
  -1  -6   2  393.02    8.14
  -1  -6   2  389.98    8.02
   1   6  -2  385.89    8.03
   1   6  -2  389.36    8.05
  -1  -6   1   75.36    2.72
  -1  -6   1   78.08    2.62
   1   6  -1   74.19    2.61
   1   6  -1   76.16    2.67
  -1  -6   0   34.30    1.76
   1   6   0   34.24    1.66
  -1  -6   0   35.77    1.67
   1   6   0   34.46    1.04
   1   6   0   35.53    1.74
   1   6   1  193.78    4.69
  -1  -6  -1  196.56    4.91
  -1  -6  -1  197.02    4.67
   1   6   1  192.27    4.63
   1   6   1  187.86    3.24
   1   6   1  190.44    4.83
   1   6   2  173.46    4.47
  -1  -6  -2  177.87    4.65
  -1  -6  -2  180.50    4.45
   1   6   2  178.98    3.87
   1   6   2  177.74    4.62
  -1  -6  -3   24.99    1.49
   1   6   3   21.26    1.33
  -1  -6  -3   22.18    1.30
   1   6   3   20.99    1.36
   1   6   3   22.68    1.14
  -1  -6  -4  116.72    3.58
   1   6   4  119.19    3.56
  -1  -6  -4  116.40    3.39
   1   6   4  116.68    3.59
   1   6   4  116.92    3.23
  -1  -6  -5  145.78    4.18
   1   6   5  145.24    4.16
  -1  -6  -5  138.50    4.04
  -1  -6  -5  144.60    3.95
   1   6   5  147.85    3.94
   1   6   5  145.79    4.14
   1   6   6   15.65    1.24
  -1  -6  -6   15.35    1.22
   1   6   6   14.83    1.03
  -1  -6  -6   14.88    1.14
   1   6   6   14.04    1.16
   1   6   6   15.25    1.19
   1   6   7   35.40    1.95
  -1  -6  -7   34.06    1.81
   1   6   7   34.51    1.63
   1   6   7   36.29    1.88
   1   6   7   33.97    1.87
   1   6   8   50.11    2.45
  -1  -6  -8   51.11    2.26
   1   6   8   48.58    2.00
   1   6   8   49.23    2.25
   1   6   8   49.87    2.42
  -1  -6  -9   29.89    1.71
   1   6   9   32.79    2.02
   1   6   9   30.03    1.57
   1   6   9   27.91    1.70
   1   6   9   32.83    2.02
   1   6  10    0.27    0.47
  -1  -6 -10    0.60    0.44
   1   6  10    0.72    0.46
   1   6  10   -0.07    0.43
   1   6  10   -0.16    0.33
  -1  -6 -11   87.36    3.14
   1   6  11   85.79    3.70
   1   6  11   84.50    3.70
   1   6  11   86.62    2.92
  -1  -6 -11   84.87    3.45
  -1  -6 -12    1.71    0.49
   1   6  12    3.09    0.94
   1   6  12    2.43    0.80
   1   6  12    1.15    0.40
  -1  -6 -12    1.48    0.68
   1   6  13   -0.25    0.60
  -1  -6 -13    0.13    0.37
  -1  -6 -13    0.33    0.47
   1   6  14    0.84    0.86
  -1  -6 -14    1.17    0.70
  -1  -6 -15    0.43    0.56
  -1  -6 -16    0.94    0.64
   1   7 -14    6.82    1.22
   1   7 -13   67.58    3.53
  -1  -7  12   44.99    2.23
  -1  -7  12   44.23    2.04
   1   7 -12   44.90    2.77
  -1  -7  11    5.65    0.70
  -1  -7  11    4.96    0.78
  -1  -7  11    5.44    0.67
   1   7 -11    6.65    1.05
  -1  -7  10   56.58    2.52
  -1  -7  10   54.97    2.00
   1   7 -10   52.76    2.84
  -1  -7  10   52.89    2.04
  -1  -7   9   35.61    1.98
  -1  -7   9   37.22    1.48
   1   7  -9   42.12    2.42
  -1  -7   9   35.01    1.56
  -1  -7   8   10.91    1.08
  -1  -7   8   13.88    0.77
  -1  -7   8   12.81    0.87
   1   7  -8   14.06    1.37
  -1  -7   7   64.11    2.67
  -1  -7   7   67.11    1.68
   1   7  -7   66.74    2.62
   1   7  -7   64.57    2.87
  -1  -7   7   64.06    2.07
  -1  -7   6   68.93    2.77
  -1  -7   6   68.29    1.43
   1   7  -6   70.30    2.71
   1   7  -6   71.49    2.94
  -1  -7   6   68.65    2.11
  -1  -7   5   76.84    2.93
   1   7  -5   81.17    2.94
   1   7  -5   77.42    3.04
  -1  -7   5   78.94    2.28
  -1  -7   4   97.38    3.37
   1   7  -4   99.46    3.43
   1   7  -4  101.58    3.36
  -1  -7   3   21.76    1.48
   1   7  -3   23.55    1.51
   1   7  -3   24.77    1.58
  -1  -7   3   22.78    1.48
   1   7  -2   10.11    0.98
  -1  -7   2   10.59    1.07
   1   7  -2    9.86    1.02
  -1  -7   2    9.84    0.97
  -1  -7   1  128.93    3.97
  -1  -7   1  130.85    3.83
   1   7  -1  123.96    3.77
   1   7  -1  125.95    3.88
  -1  -7   0   18.91    1.40
   1   7   0   19.92    1.39
   1   7   0   20.25    0.79
  -1  -7   0   19.42    1.31
   1   7   0   19.97    1.35
   1   7   1    3.78    0.69
   1   7   1    3.46    0.22
  -1  -7  -1    3.14    0.68
   1   7   1    3.41    0.65
   1   7   1    3.39    0.64
  -1  -7  -1    2.51    0.56
   1   7   2  101.30    3.31
  -1  -7  -2  110.87    3.61
  -1  -7  -2  103.37    3.31
   1   7   2  106.05    3.52
  -1  -7  -3  113.72    3.74
   1   7   3  117.96    3.68
   1   7   3  123.10    3.16
   1   7   3  123.56    3.89
  -1  -7  -3  120.05    3.64
   1   7   4   10.98    0.89
   1   7   4   10.78    1.04
   1   7   4    9.14    0.97
  -1  -7  -4    9.77    1.03
  -1  -7  -4    9.49    0.95
   1   7   5    0.89    0.44
  -1  -7  -5   -0.31    0.51
   1   7   5    1.27    0.53
  -1  -7  -5    0.79    0.37
   1   7   6  101.60    3.58
  -1  -7  -6   97.39    3.47
  -1  -7  -6  105.62    3.45
   1   7   6  105.91    3.27
   1   7   6  103.19    3.38
  -1  -7  -7   75.38    3.00
   1   7   7   77.42    3.11
   1   7   7   75.10    2.70
   1   7   7   74.38    2.93
  -1  -7  -8   17.88    1.44
   1   7   8   20.51    1.63
   1   7   8   19.54    1.31
  -1  -7  -8   19.80    0.62
  -1  -7  -8   20.63    0.63
   1   7   8   17.85    1.49
  -1  -7  -9   31.37    1.89
   1   7   9   27.79    1.96
   1   7   9   32.15    1.72
  -1  -7  -9   29.77    1.04
   1   7   9   33.67    2.12
  -1  -7 -10  122.85    4.11
   1   7  10  123.32    4.56
   1   7  10  133.68    3.90
   1   7  10  127.66    4.61
  -1  -7 -11    4.70    0.87
   1   7  11    5.10    0.98
   1   7  11    4.26    0.91
   1   7  11    4.40    0.71
   1   7  12    3.69    0.92
  -1  -7 -12    0.22    0.52
   1   7  12    3.16    0.89
   1   7  12    2.70    0.51
  -1  -7 -12    2.39    0.73
   1   7  13    8.31    1.35
  -1  -7 -13    7.05    0.97
   1   7  13    8.50    1.31
  -1  -7 -13    9.12    1.31
  -1  -7 -14   48.95    2.91
  -1  -7 -15    0.55    0.57
   1   8 -13    0.56    0.63
  -1  -8  12    1.63    0.55
   1   8 -12    3.52    1.00
  -1  -8  11   52.79    2.60
   1   8 -11   50.94    2.99
  -1  -8  10    3.09    0.73
  -1  -8  10    3.80    0.57
   1   8 -10    4.27    0.99
  -1  -8   9    1.65    0.58
   1   8  -9    1.67    0.77
  -1  -8   9    0.25    0.26
  -1  -8   8   45.36    2.37
   1   8  -8   46.90    2.60
  -1  -8   8   46.67    1.80
  -1  -8   7    4.70    0.80
  -1  -8   7    4.27    0.55
   1   8  -7    4.77    0.88
  -1  -8   6    1.36    0.57
  -1  -8   6    1.24    0.35
   1   8  -6    0.48    0.45
  -1  -8   5   79.63    3.16
   1   8  -5   76.04    3.18
  -1  -8   5   78.52    2.40
  -1  -8   4   75.87    3.09
   1   8  -4   84.37    3.27
  -1  -8   3    1.79    0.63
   1   8  -3    1.25    0.51
  -1  -8   2   12.04    1.22
   1   8  -2   11.34    1.13
  -1  -8   1   50.59    2.50
   1   8  -1   49.85    2.38
   1   8  -1   54.83    1.69
   1   8   0   11.76    1.13
   1   8   0   11.75    1.14
   1   8   0   12.79    0.63
  -1  -8   0   10.63    1.17
   1   8   1   67.92    2.72
  -1  -8  -1   69.42    2.92
   1   8   2   24.71    1.60
  -1  -8  -2   21.59    1.61
  -1  -8  -3   29.84    1.89
   1   8   3   27.69    1.74
  -1  -8  -4   43.98    2.31
   1   8   4   36.22    2.03
   1   8   4   40.83    1.79
  -1  -8  -5   82.48    3.28
   1   8   5   75.70    3.09
   1   8   5   82.06    2.84
   1   8   6    0.49    0.40
  -1  -8  -6    1.30    0.55
   1   8   6    1.19    0.52
   1   8   6    1.26    0.49
  -1  -8  -7    3.46    0.70
   1   8   7    2.69    0.73
   1   8   7    3.47    0.61
   1   8   7    4.67    0.80
  -1  -8  -8  191.94    5.63
   1   8   8  183.13    5.66
   1   8   8  194.37    5.16
   1   8   8  196.84    5.58
   1   8   9   39.70    2.43
  -1  -8  -9   38.72    2.26
   1   8   9   34.19    1.91
   1   8   9   40.42    2.36
   1   8  10    0.96    0.56
  -1  -8 -10    3.13    0.78
   1   8  10    1.94    0.50
   1   8  10    1.22    0.66
   1   8  11   40.30    2.64
  -1  -8 -11   36.65    2.26
   1   8  11   38.50    2.54
   1   8  11   38.84    2.06
   1   8  12   57.84    3.26
   1   8  12   53.48    3.13
  -1  -8 -12   54.56    2.76
  -1  -8 -12   53.17    3.01
   1   8  13    4.32    1.04
  -1  -8 -13    2.88    0.83
  -1  -8 -14   16.32    1.73
  -1  -9  11    1.02    0.62
   1   9 -11    1.17    0.75
  -1  -9  10    4.19    0.84
   1   9 -10    2.88    0.81
  -1  -9   9   70.43    3.21
   1   9  -9   74.72    3.62
  -1  -9   8   11.47    1.30
   1   9  -8   10.05    1.31
  -1  -9   8   10.72    0.86
  -1  -9   7    0.58    0.51
   1   9  -7    0.56    0.63
  -1  -9   7   -0.20    0.34
  -1  -9   6   14.26    1.38
   1   9  -6   13.11    1.39
  -1  -9   6   12.00    0.92
  -1  -9   5   40.94    2.36
   1   9  -5   43.59    2.48
  -1  -9   5   42.33    1.78
  -1  -9   4    3.96    0.77
   1   9  -4    4.19    0.86
  -1  -9   3    0.50    0.45
   1   9  -3    0.96    0.56
  -1  -9   2   30.56    2.01
   1   9  -2   29.25    1.92
   1   9  -2   30.50    1.38
   1   9  -1   11.56    1.22
   1   9  -1   10.77    0.70
  -1  -9   1   10.23    1.17
   1   9   0   12.98    1.24
   1   9   0   13.39    1.32
  -1  -9   0   11.36    1.28
   1   9   0   13.12    0.64
  -1  -9  -1    0.20    0.50
   1   9   1    1.62    0.59
   1   9   2   -0.03    0.44
  -1  -9  -2    0.27    0.52
   1   9   3   26.20    1.80
  -1  -9  -3   27.42    1.95
   1   9   4    1.04    0.52
  -1  -9  -4    1.34    0.60
   1   9   5   13.51    1.36
  -1  -9  -5   16.51    1.55
   1   9   5   13.89    1.13
   1   9   6    6.74    1.01
  -1  -9  -6    6.75    1.02
   1   9   6    8.03    1.00
   1   9   6    9.18    1.00
  -1  -9  -7   22.39    1.79
   1   9   7   25.24    1.90
   1   9   7   25.96    1.73
   1   9   7   23.57    1.67
   1   9   8   17.84    1.62
  -1  -9  -8   17.10    1.59
   1   9   8   13.34    1.28
   1   9   8   15.97    1.45
  -1  -9  -9   82.55    3.60
   1   9   9   78.74    3.68
   1   9   9   85.60    3.31
   1   9   9   85.38    3.61
  -1  -9 -10   19.46    1.71
   1   9  10   23.63    2.01
   1   9  10   20.84    1.57
   1   9  10   19.48    1.77
   1   9  11   17.13    1.74
   1   9  11   20.53    1.93
  -1  -9 -11   19.09    1.74
   1   9  12    6.02    1.10
  -1  -9 -12    4.73    0.95
  -1 -10  11  185.29    5.89
  -1 -10  10    1.14    0.65
   1  10 -10    0.61    0.65
  -1 -10   9    2.01    0.71
   1  10  -9    0.74    0.67
  -1 -10   8   64.00    3.20
   1  10  -8   69.06    3.53
  -1 -10   7  116.46    4.48
   1  10  -7  123.43    4.78
  -1 -10   7  122.20    3.46
  -1 -10   6   10.15    1.30
  -1 -10   6   10.23    0.90
   1  10  -6    9.33    1.30
  -1 -10   5   13.32    1.44
  -1 -10   5   15.05    1.10
   1  10  -5   12.19    1.42
  -1 -10   4  163.81    5.41
   1  10  -4  164.94    5.43
   1  10  -4  168.97    4.49
  -1 -10   3  141.58    4.92
   1  10  -3  130.32    4.72
   1  10  -3  143.64    3.80
   1  10  -2    9.37    1.20
   1  10  -2    9.33    0.76
  -1 -10   2    9.08    1.26
  -1 -10   1   89.47    3.80
   1  10  -1   82.13    3.41
   1  10  -1   84.87    3.56
   1  10  -1   88.33    2.34
  -1 -10   0  174.39    5.55
   1  10   0  158.49    5.06
   1  10   0  171.05    3.32
   1  10   1   17.41    1.54
  -1 -10  -1   17.06    1.68
   1  10   2   47.00    2.56
  -1 -10  -2   54.95    2.92
   1  10   3   28.81    1.98
  -1 -10  -3   30.09    2.18
   1  10   4   30.86    2.10
  -1 -10  -4   34.95    2.32
  -1 -10  -5   24.92    1.97
   1  10   5   25.10    1.90
   1  10   6    7.12    1.09
  -1 -10  -6    6.21    1.05
   1  10   6    4.67    0.85
   1  10   6    4.78    0.73
   1  10   7    5.41    1.00
  -1 -10  -7    5.02    0.97
   1  10   7    4.22    0.81
   1  10   7    4.94    0.80
   1  10   8   20.52    1.85
  -1 -10  -8   20.84    1.89
   1  10   8   16.30    1.47
   1  10   8   16.29    1.50
  -1 -10  -9    0.67    0.58
   1  10   9    1.69    0.62
   1  10   9    1.63    0.61
   1  10   9    3.07    0.83
   1  10  10    4.58    1.04
  -1 -10 -10    3.20    0.84
   1  10  10    2.49    0.67
   1  10  10    6.04    1.10
   1  10  11    2.15    0.76
  -1 -10 -11    3.24    0.95
   1  10  12    7.09    1.30
  -1 -10 -12    4.86    1.05
  -1 -11  11    9.65    1.35
  -1 -11  10   58.71    3.21
  -1 -11   9   60.14    3.26
  -1 -11   8   -1.20    0.78
   1  11  -8    1.36    0.76
  -1 -11   7   54.45    3.06
   1  11  -7   52.55    3.16
  -1 -11   6   40.95    2.68
   1  11  -6   42.30    2.77
  -1 -11   5   59.67    3.21
   1  11  -5   58.58    2.55
   1  11  -5   58.01    3.21
  -1 -11   5   57.35    2.34
   1  11  -4    7.75    0.85
  -1 -11   4    7.08    1.17
   1  11  -4    9.02    1.32
  -1 -11   3   92.13    4.05
   1  11  -3   88.13    3.93
   1  11  -3   88.30    2.84
  -1 -11   2  105.26    4.37
   1  11  -2   99.79    4.17
   1  11  -1    1.25    0.69
  -1 -11   1    1.83    0.93
   1  11  -1    3.47    0.88
  -1 -11   0   14.26    1.57
   1  11   0   10.58    1.33
  -1 -11  -1  173.51    5.83
   1  11   1  162.55    5.35
   1  11   2   33.30    2.23
  -1 -11  -2   35.99    2.49
  -1 -11  -3    1.28    0.80
   1  11   3    3.54    0.89
  -1 -11  -4   24.60    2.09
   1  11   4   26.03    2.02
  -1 -11  -5   72.75    3.64
   1  11   5   72.77    3.53
  -1 -11  -6   34.09    2.47
   1  11   6   33.57    2.35
   1  11   6   28.17    2.07
   1  11   7   -0.70    0.63
  -1 -11  -7    0.28    0.64
   1  11   7    0.28    0.55
  -1 -11  -8   44.75    2.87
   1  11   8   50.90    3.01
   1  11   8   41.10    2.50
   1  11   8   46.96    2.56
  -1 -11  -9    5.57    1.05
   1  11   9    3.76    0.95
   1  11   9    6.12    1.01
   1  11   9    5.93    1.03
  -1 -11 -10   10.76    1.57
   1  11  10   10.32    1.40
  -1 -12  10    0.18    0.66
  -1 -12   9    2.08    0.68
  -1 -12   8    8.94    1.44
  -1 -12   7   13.46    1.67
  -1 -12   6    2.23    0.76
  -1 -12   5   87.68    4.15
   1  12  -5   82.74    4.10
  -1 -12   4    1.20    0.72
   1  12  -4    1.49    0.77
  -1 -12   3   11.79    1.58
   1  12  -3   12.49    1.51
   1  12  -2    5.41    1.02
  -1 -12   2    9.10    1.35
   1  12  -2    9.65    1.39
  -1 -12   1   50.85    3.10
   1  12  -1   42.42    2.66
  -1 -12   0    1.88    0.81
   1  12   0    0.64    0.61
   1  12   1    0.02    0.63
  -1 -12  -1    0.50    0.61
  -1 -12  -2   94.06    4.31
   1  12   2   85.00    3.85
  -1 -12  -3   19.49    1.94
   1  12   3   10.65    1.38
  -1 -12  -4   21.21    2.05
   1  12   4   21.42    1.93
  -1 -12  -5    0.84    0.61
   1  12   5    0.85    0.67
  -1 -12  -6   73.91    3.90
   1  12   6   75.25    3.73
   1  12   6   68.73    3.48
   1  12   7    4.35    1.12
   1  12   7    4.81    0.99
   1  12   8    2.73    0.82
   1  13  -3    2.10    0.76
   1  13  -2    4.49    1.03
   1  13  -1   30.93    2.33
   1  13   0    3.46    0.87
   1  13   1   10.01    1.38
   1  13   2    1.33    0.75
   1  13   3    4.93    1.03
   1  13   4   12.89    1.61
   1  13   6    1.23    0.55
  -2  13   7   20.69    1.89
  -2  13   6   -0.40    0.70
  -2  13   5    8.94    1.20
  -2  13   4   25.85    1.95
  -2  13   4   24.99    2.19
  -2  13   3   41.94    2.47
   2 -13  -2    1.75    0.87
  -2  13   2    0.31    0.55
  -2  13   1   25.86    1.90
   2 -13  -1   27.74    2.30
   2 -13   0   37.83    2.68
  -2  13   0   36.17    2.26
  -2  13  -1    0.42    0.56
   2 -13   1    0.70    0.71
   2 -13   2    1.70    0.99
  -2  13  -2    1.21    0.63
  -2  13  -3   84.52    3.59
   2 -13   3   79.30    3.94
   2 -13   4   16.90    1.79
   2 -13   5    1.36    0.63
   2 -13   5    1.54    0.69
   2 -13   6    2.63    0.84
   2 -13   6    1.04    0.67
   2 -13   7   25.81    2.22
   2 -13   8   -1.07    0.87
  -2  12  10    8.85    1.42
  -2  12   9    9.86    1.36
  -2  12   9    7.16    1.17
  -2  12   8    1.88    0.70
  -2  12   8    3.02    0.91
  -2  12   7    1.87    0.74
   2 -12  -7    2.29    0.84
  -2  12   7    2.97    0.87
   2 -12  -6   29.13    2.34
  -2  12   6   25.94    1.97
  -2  12   6   28.57    2.25
   2 -12  -5   11.11    1.49
  -2  12   5   13.42    1.37
  -2  12   5   13.69    1.59
   2 -12  -4   -0.52    0.69
  -2  12   4    0.40    0.54
  -2  12   4    0.59    0.58
   2 -12  -3    7.18    1.21
  -2  12   3    5.13    0.90
   2 -12  -2  143.69    5.35
  -2  12   2  138.59    4.56
  -2  12   1    1.14    0.53
   2 -12  -1    0.48    0.54
   2 -12   0   20.75    1.94
  -2  12   0   23.74    1.73
   2 -12   1  126.03    4.88
  -2  12  -1  118.55    4.14
   2 -12   2    0.32    0.59
  -2  12  -2    0.33    0.54
  -2  12  -2    0.14    0.31
   2 -12   3  117.81    4.65
  -2  12  -3  108.82    3.65
   2 -12   4   25.88    2.10
  -2  12  -4   25.26    1.72
  -2  12  -4   27.70    2.23
   2 -12   5   31.93    2.31
  -2  12  -5   29.46    1.95
  -2  12  -5   32.41    2.44
   2 -12   5   32.20    2.08
   2 -12   6    6.04    1.07
  -2  12  -6    6.72    1.01
  -2  12  -6    5.57    1.11
   2 -12   6    5.02    0.91
   2 -12   7   10.60    1.39
  -2  12  -7    8.08    1.14
  -2  12  -7    8.67    1.37
   2 -12   7    8.50    1.11
  -2  12  -8   44.56    2.75
   2 -12   8   41.39    2.63
   2 -12   8   46.25    2.56
   2 -12   9    6.82    1.09
  -2  12  -9    7.68    1.19
  -2  12 -10    1.66    0.74
  -2  11  11    1.22    0.69
  -2  11  11    0.93    0.64
  -2  11  11    0.71    0.62
  -2  11  10   15.89    1.63
   2 -11 -10   14.82    1.70
  -2  11  10   10.54    1.37
  -2  11  10   11.75    1.42
   2 -11  -9    3.52    0.93
  -2  11   9    4.83    1.00
  -2  11   9    3.77    0.93
  -2  11   9    3.82    0.89
   2 -11  -8    2.41    0.85
  -2  11   8    1.51    0.62
  -2  11   8    3.08    0.88
  -2  11   8    1.23    0.52
  -2  11   7    4.76    0.88
   2 -11  -7    7.56    1.26
  -2  11   7    6.32    1.11
  -2  11   7    6.18    0.94
  -2  11   6    5.79    0.92
   2 -11  -6    7.20    1.13
  -2  11   6    6.58    1.10
  -2  11   6    6.21    0.85
  -2  11   5   50.55    2.57
   2 -11  -5   54.33    3.06
  -2  11   5   58.47    3.05
  -2  11   5   58.62    2.42
  -2  11   4   23.85    1.69
   2 -11  -4   25.69    2.08
  -2  11   4   24.19    1.93
  -2  11   4   27.25    1.49
  -2  11   3    0.64    0.53
   2 -11  -3    0.90    0.64
  -2  11   3    1.35    0.43
  -2  11   2   17.91    1.43
   2 -11  -2   16.79    1.66
  -2  11   1   55.96    2.54
   2 -11  -1   57.15    3.05
  -2  11   0    0.21    0.43
   2 -11   0    0.65    0.60
  -2  11   0    0.38    0.25
   2 -11   1    8.85    1.22
  -2  11  -1    7.64    0.98
  -2  11  -1    7.83    0.80
   2 -11   2   97.75    4.00
  -2  11  -2   91.50    3.11
   2 -11   3   23.52    1.87
  -2  11  -3   19.04    1.75
  -2  11  -3   25.76    1.60
   2 -11   4   88.51    3.77
  -2  11  -4   90.31    3.96
  -2  11  -4   92.28    3.38
   2 -11   5    0.38    0.55
   2 -11   5    0.84    0.47
  -2  11  -5    0.09    0.44
  -2  11  -5    1.52    0.75
   2 -11   6    9.54    1.20
  -2  11  -6   10.22    1.20
  -2  11  -6   10.33    1.38
   2 -11   6   10.22    1.15
   2 -11   7   23.63    1.87
  -2  11  -7   22.01    1.78
  -2  11  -7   27.88    2.19
   2 -11   7   24.46    1.75
  -2  11  -8    4.34    0.94
   2 -11   8    5.39    0.97
  -2  11  -8    4.65    0.98
   2 -11   8    4.29    0.82
   2 -11   9   22.00    1.78
  -2  11  -9   21.31    1.95
  -2  11  -9   24.56    2.15
   2 -11   9   22.29    1.71
  -2  11 -10   15.64    1.70
   2 -10 -13    7.71    1.31
  -2  10  13    6.46    1.11
   2 -10 -12    5.06    1.04
  -2  10  12    4.32    1.00
  -2  10  12    4.87    1.13
  -2  10  11   27.13    2.13
   2 -10 -11   25.21    2.10
  -2  10  11   27.20    2.10
  -2  10  11   26.06    2.18
   2 -10 -10   18.15    1.75
  -2  10  10   19.26    1.74
  -2  10  10   19.29    1.74
  -2  10  10   16.52    1.66
  -2  10   9    4.77    0.89
   2 -10  -9    4.87    0.98
  -2  10   9    5.30    0.97
  -2  10   9    3.97    0.83
   2 -10  -8   -0.45    0.54
  -2  10   8    0.22    0.55
  -2  10   8    0.55    0.63
  -2  10   8   -0.02    0.47
  -2  10   7   31.85    2.00
   2 -10  -7   30.68    2.20
  -2  10   7   33.06    2.20
  -2  10   7   31.67    1.98
   2 -10  -6    3.23    0.88
  -2  10   6    3.32    0.69
  -2  10   6    4.35    0.90
  -2  10   6    3.16    0.65
   2 -10  -5    1.24    0.65
  -2  10   5    0.68    0.45
  -2  10   5    1.04    0.56
  -2  10   5    0.74    0.43
  -2  10   4    2.85    0.61
   2 -10  -4    1.39    0.59
  -2  10   4    2.27    0.68
  -2  10   4    1.29    0.40
   2 -10  -3    7.52    1.10
  -2  10   3    8.80    0.96
  -2  10   3    8.26    0.78
  -2  10   2    0.17    0.39
   2 -10  -2    0.20    0.52
  -2  10   2   -0.11    0.28
  -2  10   1    0.48    0.37
   2 -10  -1    0.16    0.54
  -2  10   1    0.69    0.24
   2 -10   0   51.73    2.66
  -2  10   0   51.26    2.25
  -2  10   0   49.66    1.90
  -2  10   0   44.23    1.03
  -2  10  -1   18.51    1.35
   2 -10   1   17.91    1.57
  -2  10  -1   18.19    1.19
   2 -10   2   17.99    1.57
  -2  10  -2   18.77    1.26
   2 -10   3    3.76    0.74
  -2  10  -3    3.24    0.81
  -2  10  -3    3.59    0.65
   2 -10   4  124.73    4.36
  -2  10  -4  133.65    4.11
  -2  10  -4  137.59    4.73
   2 -10   5   17.67    1.52
  -2  10  -5   19.26    1.48
  -2  10  -5   18.41    1.68
   2 -10   5   19.83    1.50
  -2  10  -6    8.33    1.06
   2 -10   6    8.97    1.07
  -2  10  -6   10.16    1.28
   2 -10   6    8.83    1.04
   2 -10   7   74.26    3.19
  -2  10  -7   78.27    3.37
  -2  10  -7   74.14    3.54
   2 -10   7   78.93    3.13
  -2  10  -8   21.52    1.83
   2 -10   8   19.27    1.56
   2 -10   8   21.49    1.60
  -2  10  -8   17.79    1.74
   2 -10   9   24.27    1.74
  -2  10  -9   24.33    1.97
  -2  10  -9   28.27    2.23
   2 -10   9   25.24    1.75
  -2  10 -10    2.60    0.77
   2 -10  10    2.72    0.68
   2 -10  10    2.10    0.63
  -2  10 -10    1.69    0.64
  -2  10 -11   14.35    1.73
  -2  10 -11   15.48    1.72
   2 -10  11   14.33    1.39
   2  -9 -14   14.42    1.62
   2  -9 -13    4.11    0.97
  -2   9  13    4.85    1.10
  -2   9  13    4.19    0.92
   2  -9 -12    8.19    1.21
  -2   9  12    8.13    1.31
  -2   9  12    7.52    1.15
   2  -9 -12    7.07    1.21
  -2   9  11    5.97    1.11
   2  -9 -11    6.79    1.13
  -2   9  11    6.86    1.10
  -2   9  11    5.60    1.08
   2  -9 -10   29.38    2.12
  -2   9  10   25.85    1.93
  -2   9  10   27.87    2.02
  -2   9  10   28.90    2.17
  -2   9   9   32.32    2.07
   2  -9  -9   28.79    2.07
  -2   9   9   31.94    2.09
  -2   9   9   33.75    2.20
  -2   9   8    2.91    0.68
   2  -9  -8    2.51    0.75
  -2   9   8    2.81    0.74
  -2   9   8    3.45    0.76
  -2   9   7    8.36    1.02
   2  -9  -7    7.64    1.08
  -2   9   7    8.63    1.07
  -2   9   7    7.59    0.95
   2  -9  -6   47.40    2.59
  -2   9   6   43.77    2.18
  -2   9   6   48.41    2.49
   2  -9  -6   45.02    1.55
  -2   9   6   51.04    2.35
  -2   9   5   39.31    1.98
   2  -9  -5   38.18    2.28
  -2   9   5   37.87    2.18
  -2   9   5   41.88    2.01
   2  -9  -5   39.45    1.41
   2  -9  -4    2.16    0.66
  -2   9   4    2.89    0.59
  -2   9   4    2.59    0.65
  -2   9   4    2.72    0.53
  -2   9   3    7.54    0.81
   2  -9  -3    7.46    1.02
  -2   9   3    8.37    0.77
   2  -9  -2   72.88    3.12
  -2   9   2   72.07    2.62
  -2   9   2   74.74    2.26
   2  -9  -1   35.24    2.11
  -2   9   1   33.04    1.70
  -2   9   1   38.56    1.34
  -2   9   1   36.54    1.50
   2  -9   0   31.37    1.96
  -2   9   0   28.98    1.58
  -2   9   0   32.77    1.01
  -2   9   0   31.44    1.45
   2  -9   1    3.48    0.74
  -2   9  -1    3.39    0.55
   2  -9   2    0.38    0.42
  -2   9  -2    0.57    0.53
  -2   9  -2    0.00    0.34
   2  -9   3   51.26    2.49
  -2   9  -3   58.74    2.73
  -2   9  -3   56.55    2.31
   2  -9   4  120.69    4.01
  -2   9  -4  122.77    3.81
  -2   9  -4  125.19    4.26
  -2   9  -5    8.77    0.99
   2  -9   5    7.64    0.96
   2  -9   5    8.34    0.96
  -2   9  -5    8.82    1.09
   2  -9   6   23.15    1.61
  -2   9  -6   22.72    1.65
  -2   9  -6   23.22    1.78
   2  -9   6   20.96    1.47
   2  -9   7   58.74    2.61
  -2   9  -7   56.09    2.74
  -2   9  -7   61.19    2.99
   2  -9   7   59.14    2.57
   2  -9   8   67.64    2.82
  -2   9  -8   70.24    3.24
  -2   9  -8   71.01    3.32
   2  -9   8   68.76    2.85
  -2   9  -9   10.81    1.32
   2  -9   9    9.37    1.02
   2  -9   9    7.86    1.01
  -2   9  -9    9.02    1.24
   2  -9  10   30.21    1.79
  -2   9 -10   31.19    2.28
  -2   9 -10   31.47    2.29
   2  -9  10   29.24    1.90
  -2   9 -11    0.27    0.54
   2  -9  11   -0.18    0.47
   2  -9  12    5.22    0.91
  -2   9 -12    6.37    1.14
  -2   9 -13    4.33    1.00
   2  -9  13    3.61    0.84
   2  -8 -14    4.45    0.94
  -2   8  14    6.61    1.13
   2  -8 -13    3.53    0.92
  -2   8  13    2.59    0.89
  -2   8  13    2.44    0.81
   2  -8 -13    4.08    0.98
   2  -8 -12   59.19    2.96
  -2   8  12   63.82    3.44
  -2   8  12   57.68    2.91
   2  -8 -12   61.17    3.32
   2  -8 -11  129.02    4.58
  -2   8  11  131.49    4.95
  -2   8  11  128.34    4.49
   2  -8 -11  133.87    4.96
  -2   8  10    2.60    0.71
   2  -8 -10    3.02    0.71
  -2   8  10    2.22    0.59
  -2   8  10    3.97    0.90
  -2   8   9   -0.18    0.42
   2  -8  -9    0.76    0.59
  -2   8   9    0.28    0.47
  -2   8   9    0.95    0.63
  -2   8   8  544.41   11.31
   2  -8  -8  526.18   11.58
  -2   8   8  542.32   11.46
   2  -8  -8  558.92   10.11
  -2   8   8  575.21   11.76
   2  -8  -7   87.40    3.47
  -2   8   7   94.54    3.28
  -2   8   7   90.11    3.39
   2  -8  -7   88.36    2.51
  -2   8   7   90.97    3.37
  -2   8   6   46.92    2.14
   2  -8  -6   42.66    2.31
  -2   8   6   40.92    2.19
   2  -8  -6   47.93    1.65
   2  -8  -5   43.73    2.28
  -2   8   5   40.54    1.91
  -2   8   5   41.72    2.17
   2  -8  -5   42.26    1.50
   2  -8  -4   69.17    2.91
  -2   8   4   63.16    2.39
  -2   8   4   67.64    2.78
   2  -8  -4   68.84    2.00
   2  -8  -3    7.67    0.97
  -2   8   3    7.03    0.76
   2  -8  -3    8.17    0.63
   2  -8  -2    8.91    1.01
  -2   8   2    8.83    0.81
   2  -8  -1  140.21    4.37
  -2   8   1  146.03    3.83
  -2   8   1  156.06    3.58
   2  -8   0   55.42    2.47
  -2   8   0   54.21    2.04
  -2   8   0   53.94    1.90
   2  -8   1   56.16    2.48
  -2   8  -1   62.95    2.65
  -2   8  -1   54.62    2.01
   2  -8   2   40.17    2.04
  -2   8  -2   40.86    2.11
  -2   8  -2   45.39    2.19
  -2   8  -2   41.96    1.80
   2  -8   3   30.55    1.75
  -2   8  -3   30.53    1.83
  -2   8  -3   30.36    1.75
  -2   8  -3   30.11    1.58
   2  -8   4  215.41    5.55
  -2   8  -4  224.57    5.51
  -2   8  -4  227.57    5.69
  -2   8  -4  224.85    5.89
   2  -8   5  211.33    5.46
  -2   8  -5  217.99    5.59
  -2   8  -5  228.17    5.61
  -2   8  -5  230.83    5.97
   2  -8   5  208.50    5.34
   2  -8   6   39.15    1.97
  -2   8  -6   39.47    1.97
  -2   8  -6   44.40    2.22
  -2   8  -6   44.56    2.35
   2  -8   6   42.37    2.03
   2  -8   7   24.32    1.52
  -2   8  -7   27.22    1.60
  -2   8  -7   28.59    1.86
  -2   8  -7   26.41    1.82
   2  -8   7   28.02    1.66
   2  -8   8  118.89    3.67
  -2   8  -8  124.25    3.69
  -2   8  -8  118.65    4.23
   2  -8   8  121.21    3.86
   2  -8   9   29.02    1.63
  -2   8  -9   29.54    1.61
  -2   8  -9   31.53    2.11
   2  -8   9   27.32    1.72
   2  -8  10   31.54    1.68
  -2   8 -10   29.16    2.07
   2  -8  10   30.14    1.87
  -2   8 -11   88.57    3.82
   2  -8  11   83.59    3.34
  -2   8 -12   36.41    2.47
   2  -8  12   37.27    2.22
   2  -8  13    0.87    0.59
  -2   8 -13    0.86    0.65
   2  -8  14    1.39    0.65
  -2   8 -14    2.32    0.82
  -2   7  15    3.33    0.88
   2  -7 -14   15.03    1.43
  -2   7  14   17.13    1.96
  -2   7  14   10.65    1.36
   2  -7 -14   12.77    1.60
   2  -7 -13    2.60    0.79
  -2   7  13    2.27    0.89
  -2   7  13    1.46    0.46
   2  -7 -13    1.33    0.79
   2  -7 -12    0.56    0.50
  -2   7  12    0.22    0.61
  -2   7  12    0.23    0.46
   2  -7 -12    0.69    0.62
   2  -7 -11   18.22    1.52
  -2   7  11   24.73    2.00
  -2   7  11   22.49    1.68
   2  -7 -11   20.95    1.81
  -2   7  10  114.44    4.01
   2  -7 -10  106.58    3.90
  -2   7  10  121.56    4.42
  -2   7  10  111.89    3.90
   2  -7 -10  111.46    4.22
  -2   7   9    4.08    0.74
   2  -7  -9    6.48    0.93
  -2   7   9    5.12    0.81
  -2   7   9    4.82    0.88
  -2   7   8    0.82    0.43
  -2   7   8   -0.20    0.44
   2  -7  -7  176.22    5.03
  -2   7   7  170.53    4.72
   2  -7  -7  183.56    4.85
  -2   7   7  172.87    4.90
   2  -7  -7  191.49    4.22
   2  -7  -6    4.49    0.76
   2  -7  -6    4.31    0.62
  -2   7   6    4.30    0.67
  -2   7   6    3.99    0.69
   2  -7  -6    4.67    0.51
  -2   7   5   75.03    2.58
   2  -7  -5   81.90    2.71
   2  -7  -5   75.43    2.95
  -2   7   5   78.93    2.91
   2  -7  -5   83.37    2.27
   2  -7  -4   60.27    2.54
  -2   7   4   63.21    2.63
  -2   7   4   58.59    2.14
   2  -7  -4   64.91    2.61
  -2   7   4   58.45    2.42
   2  -7  -4   58.49    1.82
   2  -7  -3   10.69    1.09
  -2   7   3   12.10    1.10
  -2   7   3   11.57    0.88
   2  -7  -3   14.09    1.15
   2  -7  -3   12.76    0.77
   2  -7  -2  320.03    7.41
  -2   7   2  353.68    7.68
  -2   7   2  334.35    6.74
   2  -7  -2  334.36    6.43
   2  -7  -2  356.76    7.58
  -2   7   1    0.25    0.46
  -2   7   1    2.37    0.42
  -2   7   1    1.27    0.43
   2  -7  -1    1.39    0.52
   2  -7  -1    0.87    0.50
  -2   7   0  175.30    4.09
   2  -7   0  167.59    4.62
  -2   7   0  188.37    4.85
   2  -7   0  184.24    4.77
  -2   7   0  178.72    4.04
  -2   7  -1  209.38    5.24
   2  -7   1  197.84    5.09
  -2   7  -1  208.39    4.63
   2  -7   1  208.09    5.21
  -2   7  -1  203.58    5.17
   2  -7   2    0.24    0.39
  -2   7  -2    0.55    0.28
  -2   7  -2    0.51    0.12
  -2   7  -2    0.36    0.39
  -2   7  -2    1.14    0.45
   2  -7   2    0.76    0.36
   2  -7   3   41.45    1.91
  -2   7  -3   38.25    1.95
   2  -7   3   44.40    2.05
  -2   7  -3   48.66    2.09
  -2   7  -3   44.70    1.88
  -2   7  -3   41.22    0.98
   2  -7   4  165.18    4.41
  -2   7  -4  175.41    4.53
  -2   7  -4  176.82    4.55
  -2   7  -4  172.48    4.73
   2  -7   4  177.54    4.75
   2  -7   5   67.85    2.50
  -2   7  -5   70.39    2.70
  -2   7  -5   73.72    2.59
  -2   7  -5   74.26    2.85
   2  -7   5   72.53    2.58
   2  -7   6   25.56    1.45
  -2   7  -6   28.40    1.53
  -2   7  -6   29.50    1.76
  -2   7  -6   28.02    1.72
   2  -7   6   27.27    1.54
   2  -7   7   23.63    1.37
  -2   7  -7   21.34    1.30
  -2   7  -7   22.85    1.58
   2  -7   7   23.72    1.48
  -2   7  -8    1.61    0.43
   2  -7   8    1.58    0.47
   2  -7   8    1.63    0.50
  -2   7  -8    0.76    0.52
  -2   7  -9   14.66    1.04
   2  -7   9   14.54    1.05
  -2   7  -9   12.89    1.30
   2  -7   9   16.19    1.27
   2  -7  10   88.65    2.76
  -2   7 -10   87.55    3.54
   2  -7  10   86.03    3.23
   2  -7  11    1.45    0.36
   2  -7  11    0.33    0.40
  -2   7 -11    1.45    0.64
  -2   7 -12    2.56    0.74
   2  -7  12    4.52    0.84
  -2   7 -13   29.94    2.22
   2  -7  13   34.61    2.17
   2  -7  14   12.64    1.45
  -2   7 -14   12.45    1.50
  -2   7 -15    2.66    0.85
   2  -7  15    4.43    0.93
  -2   6  15    2.86    0.85
   2  -6 -15    1.77    0.67
  -2   6  14    8.88    1.38
  -2   6  14    8.66    1.13
   2  -6 -14    8.69    1.28
   2  -6 -13    9.58    1.09
  -2   6  13    6.24    1.17
  -2   6  13    7.68    1.05
   2  -6 -13    7.90    1.24
   2  -6 -12    1.42    0.55
  -2   6  12    1.41    0.73
  -2   6  12    1.05    0.51
   2  -6 -12    0.68    0.51
   2  -6 -11   -0.28    0.44
  -2   6  11   -1.11    0.71
  -2   6  11    0.15    0.39
   2  -6 -11   -0.02    0.52
   2  -6 -10    5.48    0.83
  -2   6  10    4.50    0.77
   2  -6 -10    4.50    0.84
   2  -6  -9    2.07    0.54
  -2   6   9    2.20    0.56
  -2   6   9    2.94    0.66
  -2   6   8  133.21    3.99
   2  -6  -8  133.65    4.09
   2  -6  -8  142.83    4.10
  -2   6   8  136.53    4.09
  -2   6   7    1.53    0.46
   2  -6  -7    1.71    0.50
  -2   6   7    1.57    0.51
   2  -6  -7    1.20    0.39
  -2   6   7    1.76    0.66
  -2   6   6   15.60    1.22
  -2   6   6   12.03    0.97
   2  -6  -6   14.80    1.07
   2  -6  -6   14.14    1.17
  -2   6   6   12.31    1.08
   2  -6  -6   13.83    0.87
   2  -6  -5   12.33    1.07
  -2   6   5   14.26    1.16
  -2   6   5   14.13    0.99
   2  -6  -5   15.30    1.03
  -2   6   5   13.00    1.08
   2  -6  -5   13.01    0.80
  -2   6   4   48.99    1.82
   2  -6  -4   51.99    2.19
  -2   6   4   54.24    2.28
   2  -6  -4   49.94    1.84
  -2   6   4   53.56    2.15
   2  -6  -4   49.66    1.63
   2  -6  -3   76.79    2.71
  -2   6   3   77.98    2.31
  -2   6   3   80.75    2.82
   2  -6  -3   84.09    2.81
  -2   6   3   80.40    2.71
   2  -6  -3   77.17    2.13
   2  -6  -2   86.06    2.88
  -2   6   2   91.44    2.98
  -2   6   2   88.65    2.42
   2  -6  -2   87.55    2.31
   2  -6  -2   92.69    2.96
  -2   6   1    5.40    0.53
  -2   6   1    5.77    0.73
   2  -6  -1    5.21    0.51
  -2   6   1    4.99    0.51
   2  -6  -1    5.76    0.74
   2  -6  -1    5.36    0.69
   2  -6   0   84.77    2.78
  -2   6   0   92.11    2.90
   2  -6   0   84.00    2.77
  -2   6   0   83.05    2.34
  -2   6  -1   16.40    1.15
   2  -6   1   16.20    1.11
   2  -6   1   19.01    1.19
  -2   6  -1   17.53    1.18
  -2   6  -1   17.11    0.99
   2  -6   2  119.08    3.35
  -2   6  -2  117.93    3.38
   2  -6   2  120.00    3.45
  -2   6  -2  120.93    3.46
  -2   6  -2  119.21    3.18
  -2   6  -3   27.28    1.42
   2  -6   3   26.30    1.39
  -2   6  -3   26.03    1.38
  -2   6  -3   27.21    0.86
  -2   6  -3   25.82    1.46
   2  -6   3   28.22    1.51
  -2   6  -4    3.25    0.33
  -2   6  -4    3.56    0.60
  -2   6  -4    3.25    0.53
   2  -6   4    2.98    0.49
   2  -6   4    3.36    0.57
   2  -6   4    3.05    0.54
  -2   6  -4    2.90    0.56
   2  -6   5   35.03    1.57
  -2   6  -5   36.57    1.61
  -2   6  -5   35.14    1.77
   2  -6   5   35.84    1.78
  -2   6  -5   37.12    1.83
   2  -6   5   36.98    1.70
   2  -6   6   34.20    1.52
  -2   6  -6   35.91    1.55
  -2   6  -6   35.96    1.84
   2  -6   6   34.51    1.78
   2  -6   6   31.88    1.62
   2  -6   7   19.58    1.11
  -2   6  -7   18.34    1.08
   2  -6   7   18.61    1.36
  -2   6  -7   19.51    1.38
   2  -6   7   22.04    1.35
  -2   6  -8    0.99    0.33
   2  -6   8    1.69    0.36
   2  -6   8    0.83    0.39
   2  -6   8    1.09    0.39
  -2   6  -8    0.87    0.43
  -2   6  -9   -0.06    0.25
   2  -6   9    0.69    0.28
  -2   6  -9    0.28    0.42
   2  -6   9   -0.47    0.49
   2  -6   9    0.25    0.34
   2  -6  10   14.23    0.89
  -2   6 -10   16.09    1.40
   2  -6  10   16.67    1.34
   2  -6  11   32.06    1.31
  -2   6 -11   33.21    2.08
   2  -6  11   31.06    1.90
   2  -6  12    0.84    0.48
  -2   6 -12    1.40    0.66
  -2   6 -13    3.27    0.84
   2  -6  13    3.54    0.79
   2  -6  14    3.08    0.79
  -2   6 -14    2.86    0.79
  -2   6 -15   22.21    1.97
   2  -6  15   22.39    1.88
  -2   6 -16   11.38    1.47
  -2   5  16   11.51    1.34
   2  -5 -16    9.91    1.46
  -2   5  15   48.98    3.23
  -2   5  15   45.45    2.54
   2  -5 -15   44.26    2.80
  -2   5  14   37.56    2.71
  -2   5  14   32.95    2.10
   2  -5 -14   39.74    2.55
  -2   5  13   50.11    3.02
  -2   5  13   46.62    2.43
   2  -5 -13   50.94    2.81
   2  -5 -12   59.99    2.58
  -2   5  12   60.84    3.20
  -2   5  12   55.64    2.60
   2  -5 -12   58.46    2.92
   2  -5 -11   10.83    1.05
  -2   5  11   11.04    1.12
   2  -5 -11   10.79    1.25
   2  -5 -10   29.50    1.69
  -2   5  10   32.49    1.81
  -2   5  10   28.78    1.71
   2  -5 -10   30.72    1.96
   2  -5  -9  124.22    3.72
  -2   5   9  122.73    3.77
  -2   5   9  119.17    3.71
   2  -5  -9  115.52    3.92
   2  -5  -8   76.50    2.77
  -2   5   8   75.51    2.82
   2  -5  -8   84.26    2.88
  -2   5   8   81.55    2.86
  -2   5   8   78.91    2.81
  -2   5   7   81.62    2.72
   2  -5  -7   80.37    2.79
   2  -5  -7   80.45    2.72
  -2   5   7   79.28    2.83
  -2   5   7   79.23    2.75
   2  -5  -6  132.60    3.73
   2  -5  -6  129.50    3.50
  -2   5   6  133.79    3.55
  -2   5   6  138.66    3.83
  -2   5   6  126.35    3.63
  -2   5   5    0.27    0.28
  -2   5   5    0.65    0.39
   2  -5  -5    0.21    0.29
   2  -5  -5    0.48    0.38
  -2   5   5    0.56    0.37
  -2   5   4    0.23    0.25
   2  -5  -4    0.31    0.22
  -2   5   4    0.54    0.40
   2  -5  -4    0.18    0.37
  -2   5   4    0.49    0.40
   2  -5  -4    0.20    0.22
   2  -5  -3  146.12    3.34
  -2   5   3  159.61    3.98
  -2   5   3  149.92    3.34
   2  -5  -3  141.39    3.79
  -2   5   3  148.65    3.77
   2  -5  -3  140.76    3.22
   2  -5  -2  585.99   11.02
  -2   5   2  606.25   11.13
  -2   5   2  619.76   10.37
   2  -5  -2  612.81   11.08
   2  -5  -2  577.65   10.32
  -2   5   1  365.03    6.68
  -2   5   1  382.47    7.48
   2  -5  -1  366.85    7.39
   2  -5  -1  371.22    7.38
  -2   5   1  377.39    6.84
   2  -5  -1  364.23    6.80
   2  -5   0  193.03    4.49
  -2   5   0  187.94    4.48
   2  -5   0  191.75    4.47
  -2   5   0  209.57    4.19
   2  -5   0  187.76    4.08
   2  -5   1  276.75    5.82
  -2   5  -1  282.02    5.87
   2  -5   1  283.43    5.90
  -2   5  -1  274.76    5.87
  -2   5  -1  280.48    5.59
   2  -5   2   14.96    0.96
  -2   5  -2   13.75    0.92
  -2   5  -2   14.69    0.98
   2  -5   2   13.71    0.95
  -2   5  -2   13.32    0.89
   2  -5   3   10.56    0.79
  -2   5  -3   11.83    0.85
  -2   5  -3   10.53    0.55
  -2   5  -3   11.44    0.87
  -2   5  -3   10.13    0.86
   2  -5   3   12.25    0.91
   2  -5   4   71.44    2.21
  -2   5  -4   75.84    2.28
  -2   5  -4   73.79    1.90
  -2   5  -4   73.04    2.48
   2  -5   4   75.92    2.47
  -2   5  -4   78.43    2.53
   2  -5   4   77.01    2.40
   2  -5   5   56.46    1.87
  -2   5  -5   57.78    1.75
  -2   5  -5   56.10    1.88
   2  -5   5   57.01    2.14
  -2   5  -5   60.27    2.20
   2  -5   5   59.41    2.12
  -2   5  -6    7.73    0.63
   2  -5   6    7.12    0.62
   2  -5   6    6.85    0.76
  -2   5  -6    6.72    0.75
   2  -5   6    6.04    0.69
  -2   5  -7   -0.09    0.21
   2  -5   7    0.46    0.27
  -2   5  -7   -0.21    0.42
   2  -5   7   -0.17    0.24
   2  -5   7   -0.24    0.33
   2  -5   7    0.20    0.34
   2  -5   8   11.57    0.74
  -2   5  -8   10.03    0.67
   2  -5   8    9.95    0.98
  -2   5  -8   12.52    1.07
   2  -5   8    9.65    0.86
   2  -5   8   11.69    1.02
   2  -5   9    0.91    0.26
  -2   5  -9    1.44    0.47
   2  -5   9    1.08    0.38
   2  -5   9    1.30    0.49
  -2   5  -9    1.56    0.54
   2  -5   9    0.69    0.43
   2  -5  10    3.63    0.39
   2  -5  10    2.52    0.56
  -2   5 -10    3.46    0.59
   2  -5  10    3.21    0.63
   2  -5  10    4.27    0.66
  -2   5 -10    4.15    0.69
   2  -5  11    0.49    0.35
   2  -5  11    0.32    0.15
  -2   5 -11    0.20    0.45
   2  -5  11    1.06    0.49
   2  -5  12    5.89    0.87
   2  -5  12    5.59    0.93
  -2   5 -12    7.45    1.05
   2  -5  13    4.28    0.80
   2  -5  13    3.56    0.81
  -2   5 -13    2.74    0.70
   2  -5  14    0.96    0.58
  -2   5 -14    1.05    0.57
   2  -5  14    0.75    0.58
   2  -5  15    7.68    1.19
  -2   5 -15    8.02    1.17
   2  -5  16   26.93    2.15
  -2   5 -16   26.68    2.14
  -2   5 -17    3.41    0.97
  -2   4  16    1.80    0.67
   2  -4 -16    3.35    0.85
  -2   4  15    1.73    0.84
  -2   4  15    1.43    0.64
   2  -4 -15    1.19    0.61
  -2   4  14   39.79    2.75
  -2   4  14   36.29    2.18
   2  -4 -14   40.74    2.51
  -2   4  13   76.16    3.68
  -2   4  13   71.85    3.02
   2  -4 -13   68.69    3.24
  -2   4  12   27.33    1.66
  -2   4  12   26.69    2.04
  -2   4  12   25.37    1.69
   2  -4 -12   28.50    1.95
  -2   4  11    1.57    0.44
  -2   4  11    1.55    0.51
   2  -4 -11    1.63    0.58
   2  -4 -10   47.38    2.06
  -2   4  10   50.33    2.18
   2  -4 -10   52.05    2.27
  -2   4  10   48.39    2.20
   2  -4 -10   47.57    2.37
   2  -4  -9   87.47    3.04
   2  -4  -9   83.37    2.81
  -2   4   9   87.41    2.92
   2  -4  -9   87.29    2.97
  -2   4   9   82.53    2.90
   2  -4  -9   82.43    3.10
   2  -4  -8  141.62    3.86
   2  -4  -8  144.85    4.00
  -2   4   8  146.32    3.96
   2  -4  -8  153.05    4.07
  -2   4   8  142.36    3.94
   2  -4  -8  140.57    4.17
  -2   4   7  106.32    3.21
   2  -4  -7  107.90    3.14
   2  -4  -7  106.54    3.15
  -2   4   7  105.76    3.17
   2  -4  -7  110.40    3.25
   2  -4  -7  108.86    3.38
  -2   4   6   24.80    1.28
  -2   4   6   25.54    1.37
   2  -4  -6   24.98    1.28
   2  -4  -6   24.78    1.34
   2  -4  -6   25.32    1.36
  -2   4   6   26.75    1.39
  -2   4   5   21.40    1.23
  -2   4   5   19.79    1.06
   2  -4  -5   19.39    1.15
   2  -4  -5   20.54    1.07
  -2   4   5   22.17    1.22
  -2   4   4  108.93    3.04
  -2   4   4  107.71    2.68
   2  -4  -4  106.47    2.67
   2  -4  -4  109.95    3.02
  -2   4   4  108.54    2.97
   2  -4  -3   10.95    0.66
  -2   4   3   10.62    0.82
  -2   4   3   11.10    0.66
   2  -4  -3   12.46    0.90
  -2   4   3   11.65    0.86
   2  -4  -3   10.98    0.67
   2  -4  -2   20.18    0.82
   2  -4  -2   21.98    1.14
  -2   4   2   18.69    0.79
  -2   4   2   22.81    1.17
  -2   4   2   19.60    1.09
   2  -4  -2   20.35    0.91
   2  -4  -1  149.08    3.52
  -2   4   1  151.27    3.56
  -2   4   1  147.40    2.93
   2  -4  -1  146.11    3.49
   2  -4  -1  147.83    3.19
  -2   4   1  146.75    3.19
   2  -4   0   16.65    0.96
  -2   4   0   16.33    0.93
   2  -4   0   14.96    0.89
   2  -4   0   13.99    0.77
  -2   4   0   15.25    0.81
   2  -4   1   33.73    1.35
  -2   4  -1   33.64    1.35
   2  -4   1   33.02    1.35
  -2   4  -1   32.40    1.36
  -2   4  -1   34.63    1.30
   2  -4   1   32.46    1.27
   2  -4   2  218.62    4.48
  -2   4  -2  212.87    4.48
  -2   4  -2  213.34    4.55
  -2   4  -2  213.99    4.59
   2  -4   2  215.46    4.58
   2  -4   3   69.85    2.00
  -2   4  -3   68.45    2.00
  -2   4  -3   69.62    1.76
  -2   4  -3   73.29    2.24
  -2   4  -3   72.49    2.19
   2  -4   3   70.24    2.14
   2  -4   3   73.28    2.18
   2  -4   4  315.03    5.98
  -2   4  -4  316.75    6.01
  -2   4  -4  319.77    5.91
   2  -4   4  314.31    6.32
  -2   4  -4  317.31    6.37
   2  -4   4  328.12    6.39
   2  -4   5  340.47    6.22
  -2   4  -5  331.86    6.19
  -2   4  -5  338.77    6.41
  -2   4  -5  340.09    6.77
   2  -4   5  341.51    6.75
   2  -4   5  320.84    6.68
   2  -4   6  306.78    5.60
  -2   4  -6  290.67    6.03
  -2   4  -6  294.80    5.56
   2  -4   6  300.29    6.28
  -2   4  -6  309.28    6.35
   2  -4   6  290.88    5.96
   2  -4   6  309.48    6.34
   2  -4   7   39.61    1.27
   2  -4   7   42.35    1.69
  -2   4  -7   42.41    1.28
  -2   4  -7   40.07    1.78
   2  -4   7   42.45    1.80
   2  -4   7   41.95    1.82
  -2   4  -7   41.28    1.83
   2  -4   7   40.71    1.62
   2  -4   8   47.28    1.35
   2  -4   8   51.30    1.99
   2  -4   8   50.25    2.06
  -2   4  -8   46.49    1.87
  -2   4  -8   47.28    2.01
   2  -4   8   45.17    1.81
   2  -4   8   47.56    2.05
  -2   4  -8   41.80    1.94
   2  -4   9  159.90    3.11
   2  -4   9  161.86    4.26
  -2   4  -9  158.90    4.33
  -2   4  -9  159.29    4.10
   2  -4   9  150.76    4.00
   2  -4   9  155.83    4.36
  -2   4  -9  157.33    4.37
   2  -4  10  125.00    2.36
   2  -4  10  125.14    3.80
  -2   4 -10  120.69    3.78
  -2   4 -10  126.13    3.59
   2  -4  10  116.64    3.50
   2  -4  10  124.25    3.87
   2  -4  11    2.50    0.57
  -2   4 -11    2.62    0.53
   2  -4  11    3.04    0.71
  -2   4 -11    1.88    0.55
   2  -4  11    3.63    0.57
   2  -4  12   15.37    1.37
  -2   4 -12   19.68    1.34
  -2   4 -12   17.52    1.43
   2  -4  12   17.78    1.46
   2  -4  13   62.15    2.90
  -2   4 -13   54.72    2.69
   2  -4  13   59.93    2.87
   2  -4  14    8.36    1.16
  -2   4 -14    8.47    1.11
   2  -4  15    1.00    0.75
  -2   4 -15    1.44    0.67
   2  -4  16    2.38    0.83
  -2   4 -16    3.42    0.91
   2  -4  17    1.62    0.78
  -2   4 -17   -0.03    0.65
  -2   3  16    6.82    1.01
   2  -3 -16    5.52    1.04
  -2   3  15   29.00    2.43
  -2   3  15   32.60    2.06
   2  -3 -15   26.94    2.11
  -2   3  14    1.40    0.83
  -2   3  14    1.33    0.55
   2  -3 -14    3.60    0.87
  -2   3  13    0.94    0.51
  -2   3  13    0.52    0.64
  -2   3  13   -0.01    0.49
   2  -3 -13   -0.15    0.51
  -2   3  12    5.24    0.72
  -2   3  12    4.94    0.80
   2  -3 -12    4.30    0.84
  -2   3  11   85.79    2.90
  -2   3  11   83.85    3.04
   2  -3 -11   85.94    3.31
  -2   3  10    0.09    0.29
  -2   3  10   -0.06    0.35
   2  -3 -10    0.24    0.28
   2  -3 -10   -0.09    0.39
   2  -3  -9    4.81    0.69
  -2   3   9    5.53    0.66
  -2   3   9    4.72    0.66
   2  -3  -9    5.76    0.71
   2  -3  -9    5.51    0.80
  -2   3   8   37.33    1.67
   2  -3  -8   36.50    1.62
   2  -3  -8   37.28    1.76
   2  -3  -8   36.84    1.73
  -2   3   8   36.97    1.72
   2  -3  -8   39.07    1.89
   2  -3  -7   43.20    1.81
   2  -3  -7   41.51    1.71
  -2   3   7   42.01    1.74
   2  -3  -7   44.45    1.83
  -2   3   7   41.86    1.78
   2  -3  -7   43.07    1.91
  -2   3   6    4.10    0.54
   2  -3  -6    3.46    0.50
   2  -3  -6    3.23    0.48
   2  -3  -6    3.29    0.53
  -2   3   6    3.46    0.52
   2  -3  -6    4.02    0.61
   2  -3  -5    0.77    0.32
   2  -3  -5    0.37    0.23
  -2   3   5    0.31    0.27
  -2   3   5    0.52    0.35
   2  -3  -5    0.52    0.34
  -2   3   4    1.41    0.31
   2  -3  -4    2.02    0.42
   2  -3  -4    2.13    0.36
  -2   3   4    2.26    0.40
  -2   3   4    2.74    0.50
   2  -3  -4    1.79    0.37
  -2   3   3   37.27    1.43
  -2   3   3   36.05    1.17
   2  -3  -3   34.81    1.13
   2  -3  -3   37.44    1.45
   2  -3  -3   37.37    1.43
  -2   3   3   35.92    1.40
  -2   3   2   42.73    1.49
  -2   3   2   40.82    1.11
   2  -3  -2   41.15    1.49
   2  -3  -2   39.86    1.10
  -2   3   2   41.76    1.48
   2  -3  -2   42.18    1.32
  -2   3   1   19.08    0.94
  -2   3   1   18.95    0.60
   2  -3  -1   19.46    0.98
  -2   3   1   18.94    0.95
  -2   3   1   21.93    0.91
   2  -3  -1   17.72    0.82
  -2   3   0  100.68    2.44
   2  -3   0  102.32    2.45
   2  -3   0   95.19    2.39
   2  -3   0  100.10    2.35
  -2   3   0   96.61    2.34
   2  -3   1  159.63    3.34
  -2   3  -1  159.14    3.34
  -2   3  -1  159.57    3.41
   2  -3   1  159.14    3.41
   2  -3   1  156.88    3.37
  -2   3  -1  154.14    3.36
  -2   3  -2    4.97    0.56
   2  -3   2    4.61    0.45
  -2   3  -2    4.81    0.44
  -2   3  -2    4.66    0.52
   2  -3   2    4.07    0.44
   2  -3   3  159.99    3.31
  -2   3  -3  163.72    3.34
  -2   3  -3  166.70    3.79
  -2   3  -3  166.71    3.39
   2  -3   3  166.14    3.55
  -2   3  -3  164.79    3.56
   2  -3   3  169.67    3.69
  -2   3  -4   24.32    0.90
   2  -3   4   25.16    0.90
  -2   3  -4   25.70    1.06
  -2   3  -4   27.60    1.15
   2  -3   4   26.67    1.13
   2  -3   4   25.28    1.19
   2  -3   5  547.26    9.06
  -2   3  -5  531.55    9.04
  -2   3  -5  531.71    9.70
  -2   3  -5  552.83    9.74
   2  -3   5  533.52    9.69
   2  -3   5  537.77    9.41
   2  -3   5  559.45    9.93
  -2   3  -5  547.31    9.93
  -2   3  -6    4.66    0.55
  -2   3  -6    4.24    0.31
   2  -3   6    3.41    0.51
   2  -3   6    4.17    0.32
  -2   3  -6    3.95    0.54
   2  -3   6    3.76    0.53
   2  -3   6    3.16    0.40
  -2   3  -6    3.79    0.52
   2  -3   6    3.40    0.48
   2  -3   7  133.95    2.55
   2  -3   7  131.98    3.53
  -2   3  -7  136.95    3.50
  -2   3  -7  141.91    3.34
   2  -3   7  133.38    3.46
  -2   3  -7  134.55    3.65
   2  -3   7  137.46    3.65
   2  -3   7  133.31    3.24
   2  -3   8  312.43    5.19
   2  -3   8  318.25    6.77
  -2   3  -8  317.41    6.63
  -2   3  -8  315.63    6.35
   2  -3   8  314.18    6.35
  -2   3  -8  331.61    6.92
   2  -3   8  319.66    6.87
  -2   3  -9   17.34    1.28
   2  -3   9   19.08    1.29
  -2   3  -9   17.79    1.19
  -2   3  -9   17.20    1.05
  -2   3  -9   19.81    1.31
   2  -3   9   16.38    1.05
   2  -3   9   17.17    1.26
   2  -3  10    6.28    0.81
  -2   3 -10    5.07    0.62
  -2   3 -10    5.56    0.71
   2  -3  10    5.53    0.81
   2  -3  10    5.88    0.70
   2  -3  11  207.03    5.63
  -2   3 -11  212.15    5.01
  -2   3 -11  217.69    5.46
   2  -3  11  205.29    5.12
   2  -3  11  207.21    5.60
   2  -3  12   76.22    3.18
  -2   3 -12   74.86    2.97
  -2   3 -12   78.74    2.70
   2  -3  12   74.26    3.12
   2  -3  12   76.25    2.82
   2  -3  13   19.93    1.68
  -2   3 -13   22.15    1.62
  -2   3 -13   21.90    1.41
   2  -3  14    3.20    0.84
  -2   3 -14    4.32    0.81
   2  -3  15   39.02    2.73
  -2   3 -15   39.71    2.39
   2  -3  16    4.01    0.92
  -2   3 -16    3.40    0.84
   2  -3  17    2.17    0.80
  -2   3 -17    2.63    0.82
  -2   2  17    0.81    0.51
   2  -2 -17    1.10    0.73
  -2   2  16   30.71    2.52
  -2   2  16   27.77    2.00
   2  -2 -16   36.35    2.48
  -2   2  15    2.65    0.97
  -2   2  15    3.03    0.75
   2  -2 -15    4.88    0.98
  -2   2  14   -0.68    0.66
  -2   2  14   -0.13    0.40
   2  -2 -14    0.10    0.52
  -2   2  13    3.24    0.67
  -2   2  13    4.01    0.89
  -2   2  13    3.58    0.70
   2  -2 -13    2.64    0.69
  -2   2  12   76.36    2.64
  -2   2  12   69.58    2.83
   2  -2 -12   75.60    3.14
  -2   2  11   17.28    1.17
   2  -2 -11   18.58    1.33
  -2   2  11   17.91    1.31
   2  -2 -11   16.93    1.37
  -2   2  10   59.99    2.17
   2  -2 -10   55.29    2.31
  -2   2  10   57.89    2.35
   2  -2 -10   59.67    2.53
   2  -2 -10   59.38    2.45
   2  -2  -9   24.60    1.51
  -2   2   9   23.01    1.24
  -2   2   9   23.06    1.37
   2  -2  -9   22.97    1.39
   2  -2  -9   21.25    1.42
   2  -2  -8    6.64    0.76
  -2   2   8    6.76    0.67
  -2   2   8    7.98    0.78
   2  -2  -8    7.18    0.76
   2  -2  -8    5.87    0.76
  -2   2   7    0.13    0.24
   2  -2  -7   -0.29    0.32
   2  -2  -7   -0.14    0.30
  -2   2   7    0.17    0.34
   2  -2  -7    0.16    0.34
   2  -2  -6    1.23    0.35
  -2   2   6    1.14    0.36
   2  -2  -6    1.31    0.39
  -2   2   6    0.48    0.41
   2  -2  -6    0.72    0.30
   2  -2  -6    0.84    0.38
  -2   2   5    0.32    0.26
   2  -2  -5   -0.01    0.24
   2  -2  -5    0.52    0.30
   2  -2  -5    0.56    0.30
  -2   2   5   -0.17    0.34
   2  -2  -5    0.42    0.42
   2  -2  -4   -0.06    0.21
  -2   2   4   -0.09    0.28
   2  -2  -4    0.30    0.30
   2  -2  -4    0.31    0.26
  -2   2   4    0.13    0.36
   2  -2  -4    0.02    0.35
  -2   2   3    0.09    0.25
   2  -2  -3    0.17    0.21
   2  -2  -3    0.94    0.38
   2  -2  -3    0.18    0.24
  -2   2   3   -0.21    0.37
   2  -2  -2    4.99    0.50
  -2   2   2    5.59    0.49
   2  -2  -2    5.49    0.34
   2  -2  -2    4.95    0.48
  -2   2   2    5.58    0.54
   2  -2  -1    0.65    0.34
  -2   2   1    0.09    0.24
  -2   2   1    0.38    0.32
   2  -2  -1   -0.02    0.22
   2  -2  -1    0.42    0.24
   2  -2   0   11.09    0.63
  -2   2   0   10.10    0.58
   2  -2   0    9.54    0.58
  -2   2   0   11.02    0.62
  -2   2   0   11.47    0.62
  -2   2  -1    1.47    0.37
   2  -2   1    1.40    0.30
  -2   2  -1    0.98    0.24
   2  -2   1    0.86    0.26
   2  -2   1    1.24    0.26
  -2   2  -2   16.59    0.68
   2  -2   2   16.67    0.67
  -2   2  -2   17.08    0.87
  -2   2  -2   18.81    0.75
   2  -2   2   16.70    0.71
   2  -2   2   17.75    0.88
  -2   2  -3    1.68    0.33
  -2   2  -3    1.39    0.43
  -2   2  -3    1.25    0.20
   2  -2   3    1.35    0.21
  -2   2  -3    1.49    0.32
  -2   2  -3    1.78    0.33
   2  -2   3    1.38    0.38
   2  -2   3    1.42    0.25
  -2   2  -4   16.80    0.57
   2  -2   4   17.31    0.56
  -2   2  -4   18.62    0.92
  -2   2  -4   16.87    0.80
   2  -2   4   17.77    0.80
  -2   2  -4   16.77    0.92
   2  -2   4   17.01    0.68
   2  -2   4   16.91    0.95
  -2   2  -5    3.78    0.21
  -2   2  -5    2.85    0.43
   2  -2   5    3.52    0.50
  -2   2  -5    4.23    0.50
   2  -2   5    3.91    0.22
   2  -2   5    3.63    0.53
   2  -2   5    3.25    0.39
  -2   2  -5    3.77    0.50
   2  -2   5    3.82    0.37
  -2   2  -5    4.18    0.47
  -2   2  -6  604.68   10.93
  -2   2  -6  592.67   10.97
   2  -2   6  592.15   10.90
  -2   2  -6  597.50   10.54
  -2   2  -6  601.61   10.30
   2  -2   6  587.83   10.29
   2  -2   6  615.47   10.98
  -2   2  -6  624.32   11.02
  -2   2  -7    0.46    0.31
  -2   2  -7    0.96    0.35
   2  -2   7    1.03    0.41
  -2   2  -7    1.34    0.29
  -2   2  -7    1.15    0.33
  -2   2  -7    0.99    0.37
   2  -2   7    1.03    0.29
   2  -2   7    0.40    0.36
  -2   2  -8    6.47    0.78
   2  -2   8    7.58    0.81
  -2   2  -8    6.92    0.59
  -2   2  -8    5.44    0.59
   2  -2   8    6.28    0.76
   2  -2   8    5.53    0.56
  -2   2  -8    6.31    0.73
  -2   2  -9  657.80   12.09
   2  -2   9  594.41   11.85
  -2   2  -9  611.02   11.39
  -2   2  -9  607.34   10.93
   2  -2   9  596.35   11.13
  -2   2  -9  656.48   12.00
   2  -2   9  612.79   11.82
   2  -2  10   27.65    1.70
  -2   2 -10   26.63    1.29
  -2   2 -10   28.34    1.52
   2  -2  10   28.66    1.44
   2  -2  10   29.24    1.74
   2  -2  11   20.22    1.53
  -2   2 -11   20.40    1.37
  -2   2 -11   19.06    1.14
   2  -2  11   18.95    1.23
   2  -2  11   20.68    1.51
   2  -2  12   88.53    3.53
  -2   2 -12   93.36    2.85
  -2   2 -12   87.53    3.16
   2  -2  12   90.26    3.07
   2  -2  13   68.95    3.23
  -2   2 -13   74.56    2.58
  -2   2 -13   72.28    2.94
   2  -2  14    5.95    1.08
  -2   2 -14    4.78    0.83
   2  -2  15    1.24    0.74
  -2   2 -15    4.14    0.79
   2  -2  16   15.71    1.76
  -2   2 -16   14.65    1.48
  -2   2 -17    5.06    1.00
   2  -1 -17    1.15    0.67
   2  -1 -17    1.87    0.72
  -2   1  16   -0.62    0.65
  -2   1  16    1.03    0.65
   2  -1 -16    0.45    0.62
   2  -1 -16   -0.04    0.62
  -2   1  15   41.77    2.79
  -2   1  15   38.83    2.29
   2  -1 -15   37.60    2.43
  -2   1  14    9.13    1.32
  -2   1  14    8.26    1.02
   2  -1 -14    7.23    1.06
  -2   1  13    1.54    0.45
  -2   1  13    1.77    0.70
  -2   1  13    1.07    0.53
   2  -1 -13    1.23    0.54
  -2   1  12   10.73    0.89
  -2   1  12   12.98    1.17
   2  -1 -12   10.85    1.17
  -2   1  11  160.76    4.08
   2  -1 -11  166.20    4.57
  -2   1  11  162.59    4.52
   2  -1 -11  165.48    4.57
   2  -1 -11  163.41    4.75
  -2   1  10    9.22    0.79
  -2   1  10   10.37    0.98
   2  -1 -10   10.71    0.98
   2  -1 -10    9.34    0.89
   2  -1 -10    8.92    0.98
   2  -1  -9   81.93    2.85
  -2   1   9   71.37    2.31
   2  -1  -9   76.18    2.64
  -2   1   9   74.61    2.61
   2  -1  -9   73.43    2.72
   2  -1  -9   78.05    2.62
   2  -1  -8  135.86    3.68
  -2   1   8  120.43    3.20
   2  -1  -8  125.12    3.49
  -2   1   8  127.67    3.49
  -2   1   8  136.03    3.73
   2  -1  -8  127.95    3.63
  -2   1   7  856.38   14.86
   2  -1  -7  895.59   15.34
  -2   1   7  855.07   15.17
   2  -1  -7  865.10   15.20
  -2   1   7  900.68   15.46
   2  -1  -7  866.45   15.37
  -2   1   6   54.87    1.78
  -2   1   6   59.93    1.98
   2  -1  -6   55.84    1.95
  -2   1   6   54.70    1.98
   2  -1  -6   56.44    2.01
  -2   1   5   67.69    1.93
  -2   1   5   63.76    2.00
   2  -1  -5   63.71    2.00
   2  -1  -5   65.03    2.07
  -2   1   5   66.66    2.09
  -2   1   4   97.17    2.38
   2  -1  -4   99.48    2.49
  -2   1   4   95.04    2.47
   2  -1  -4   95.74    2.50
  -2   1   4   95.79    2.49
  -2   1   3  207.53    4.07
  -2   1   3  205.30    4.14
   2  -1  -3  200.21    4.11
   2  -1  -3  208.93    4.15
  -2   1   3  206.95    4.14
  -2   1   2    4.25    0.41
   2  -1  -2    4.06    0.40
  -2   1   2    5.12    0.48
   2  -1  -2    3.82    0.42
  -2   1   2    3.86    0.40
  -2   1   1   34.91    1.11
  -2   1   1   36.10    1.10
   2  -1  -1   36.03    1.09
   2  -1  -1   37.67    1.05
  -2   1   0  133.81    2.67
  -2   1   0  133.31    2.76
   2  -1   0  130.34    2.73
   2  -1   0  134.20    2.62
  -2   1   0  132.10    2.61
   2  -1   0  136.60    2.46
  -2   1  -1    2.63    0.27
   2  -1   1    2.94    0.23
  -2   1  -1    3.11    0.23
   2  -1   1    2.76    0.35
  -2   1  -1    3.30    0.39
  -2   1  -1    2.90    0.26
   2  -1   1    2.77    0.23
   2  -1   1    2.07    0.34
   2  -1   2    0.02    0.25
  -2   1  -2   -0.22    0.31
  -2   1  -2    0.13    0.14
   2  -1   2    0.28    0.23
  -2   1  -2   -0.15    0.20
  -2   1  -2    0.25    0.21
  -2   1  -2    0.24    0.15
   2  -1   2    0.13    0.14
   2  -1   2    0.14    0.32
  -2   1  -3    1.34    0.38
  -2   1  -3    1.74    0.38
  -2   1  -3    1.51    0.17
  -2   1  -3    1.75    0.30
   2  -1   3    1.61    0.22
  -2   1  -3    1.39    0.30
  -2   1  -3    1.78    0.24
   2  -1   3    2.25    0.46
   2  -1   3    1.65    0.17
  -2   1  -4    2.08    0.39
   2  -1   4    1.96    0.39
  -2   1  -4    2.29    0.37
   2  -1   4    2.34    0.23
  -2   1  -4    2.40    0.39
   2  -1   4    2.93    0.47
  -2   1  -4    2.46    0.29
  -2   1  -5    3.92    0.50
   2  -1   5    3.56    0.52
  -2   1  -5    3.88    0.53
  -2   1  -5    4.12    0.33
   2  -1   5    3.27    0.54
  -2   1  -5    4.39    0.36
  -2   1  -5    4.03    0.40
  -2   1  -5    3.74    0.48
   2  -1   5    3.49    0.33
  -2   1  -6    0.64    0.29
  -2   1  -6    0.22    0.29
   2  -1   6    0.74    0.40
  -2   1  -6    0.33    0.15
   2  -1   6    0.99    0.42
  -2   1  -6    0.71    0.24
   2  -1   6    0.60    0.22
  -2   1  -6    0.67    0.26
  -2   1  -6    0.72    0.34
  -2   1  -7    9.39    0.81
  -2   1  -7    8.87    0.87
   2  -1   7    7.12    0.76
  -2   1  -7    7.58    0.62
  -2   1  -7    7.30    0.51
   2  -1   7    7.85    0.60
  -2   1  -7    9.07    0.61
  -2   1  -7    7.47    0.76
   2  -1   7    8.04    0.80
  -2   1  -8    0.60    0.32
   2  -1   8    0.56    0.38
  -2   1  -8    0.56    0.22
  -2   1  -8    0.73    0.29
  -2   1  -8    0.39    0.29
   2  -1   8    0.59    0.26
   2  -1   8    1.02    0.49
  -2   1  -8    1.40    0.38
  -2   1  -9   13.90    1.16
   2  -1   9   13.45    1.15
  -2   1  -9   13.86    0.80
  -2   1  -9   14.49    0.98
   2  -1   9   16.08    1.23
  -2   1  -9   15.38    1.18
   2  -1   9   14.19    0.93
  -2   1  -9   14.81    0.94
   2  -1  10   62.73    2.71
  -2   1 -10   65.65    2.03
  -2   1 -10   68.63    2.40
   2  -1  10   66.81    2.72
  -2   1 -10   67.50    2.30
   2  -1  11   44.88    2.35
  -2   1 -11   45.46    2.02
  -2   1 -11   48.57    1.76
  -2   1 -11   47.32    1.97
   2  -1  12    0.88    0.56
  -2   1 -12    1.58    0.39
  -2   1 -12    2.27    0.57
  -2   1 -12    1.37    0.40
   2  -1  13    3.95    0.89
  -2   1 -13    4.25    0.58
  -2   1 -13    5.15    0.77
  -2   1 -13    3.52    0.69
   2  -1  14   28.16    2.17
  -2   1 -14   33.49    2.00
  -2   1 -14   32.96    1.89
   2  -1  15    1.75    0.77
  -2   1 -15    1.14    0.48
  -2   1 -15    1.03    0.54
   2  -1  16   26.09    2.24
  -2   1 -16   23.38    1.82
  -2   1 -17   20.24    1.75
   2   0 -17   41.35    2.79
   2   0 -17   41.38    2.74
  -2   0  16    8.43    1.34
   2   0 -16   11.06    1.44
   2   0 -16    9.52    1.32
  -2   0  15    1.46    0.82
   2   0 -15    1.21    0.65
   2   0 -15    1.16    0.57
  -2   0  14   49.52    2.88
   2   0 -14   40.77    2.51
  -2   0  14   42.72    2.32
   2   0 -14   43.90    2.53
  -2   0  13  154.29    3.94
  -2   0  13  140.73    5.00
  -2   0  13  149.34    4.59
   2   0 -13  147.96    4.79
  -2   0  12    0.26    0.29
  -2   0  12    0.61    0.41
   2   0 -12    1.28    0.55
  -2   0  11    4.09    0.55
  -2   0  11    3.11    0.65
   2   0 -11    2.90    0.64
   2   0 -11    3.97    0.62
  -2   0  10   85.97    2.59
   2   0 -10   92.05    3.07
  -2   0  10   83.05    2.93
   2   0 -10   88.51    3.13
   2   0 -10   93.04    2.93
  -2   0   9  122.46    3.22
  -2   0   9  128.07    3.64
   2   0  -9  133.77    3.71
  -2   0   9  134.36    3.86
   2   0  -9  125.40    3.43
   2   0  -9  127.77    3.76
  -2   0   8   15.26    0.92
  -2   0   8   17.97    1.15
   2   0  -8   15.95    1.11
   2   0  -8   15.86    0.98
  -2   0   8   16.03    1.13
   2   0  -8   16.75    1.18
  -2   0   7  111.94    2.87
  -2   0   7  114.11    3.16
   2   0  -7  118.73    3.20
  -2   0   7  118.43    3.30
   2   0  -7  116.67    2.93
   2   0  -7  115.59    3.26
   2   0  -6  801.75   13.90
  -2   0   6  805.97   13.91
  -2   0   6  794.68   13.98
   2   0  -6  784.60   13.96
  -2   0   5    1.93    0.41
   2   0  -5    1.87    0.39
  -2   0   5    0.86    0.28
   2   0  -5    1.93    0.45
  -2   0   4   36.91    1.38
   2   0  -4   36.96    1.36
   2   0  -4   36.91    1.39
  -2   0   4   37.33    1.37
  -2   0   3   87.85    2.23
   2   0  -3   89.88    2.22
   2   0  -3   89.91    2.22
  -2   0   3   88.98    2.21
  -2   0   2   33.16    1.13
   2   0  -2   33.71    1.11
  -2   0   2   32.60    1.07
   2   0  -2   35.16    1.12
  -2   0   1 1156.14   18.60
   2   0  -1 1142.30   18.59
  -2   0   1 1163.16   18.51
   2   0  -1 1180.85   18.52
   2   0   0   47.03    1.27
  -2   0   0   49.16    1.16
   2   0   0   48.26    1.15
  -2   0   0   45.74    1.16
   2   0   0   47.84    1.16
   2   0   0   49.19    1.08
  -2   0   0   48.62    1.08
   2   0   1   78.55    1.75
  -2   0  -1   78.22    1.75
   2   0   1   82.36    1.85
  -2   0  -1   80.82    1.84
  -2   0  -1   79.85    1.54
   2   0   1   77.32    1.54
  -2   0  -1   82.20    1.84
  -2   0  -2    0.64    0.27
  -2   0  -2    1.15    0.28
   2   0   2   -0.03    0.23
   2   0   2    0.39    0.24
  -2   0  -2    0.86    0.26
  -2   0  -2    0.71    0.25
   2   0   2    1.03    0.35
  -2   0  -3    0.57    0.14
  -2   0  -3   -0.15    0.28
  -2   0  -3    0.44    0.25
   2   0   3    0.17    0.29
  -2   0  -3    0.30    0.22
  -2   0  -3    0.97    0.15
  -2   0  -3    1.01    0.26
   2   0   3    0.56    0.37
  -2   0  -3    0.48    0.14
   2   0   4    8.62    0.68
  -2   0  -4   10.37    0.69
  -2   0  -4   10.88    0.39
   2   0   4   10.39    0.75
  -2   0  -4    9.98    0.71
  -2   0  -4    9.78    0.46
  -2   0  -4   10.46    0.47
  -2   0  -4   10.35    0.72
   2   0   4   11.72    0.81
  -2   0  -5   18.85    1.02
   2   0   5   18.02    1.04
   2   0   5   18.92    1.08
  -2   0  -5   19.04    1.09
  -2   0  -5   18.15    0.74
  -2   0  -5   17.64    0.55
  -2   0  -5   17.73    0.72
  -2   0  -5   18.08    1.02
   2   0   5   19.85    1.10
  -2   0  -6    8.15    0.72
  -2   0  -6    7.74    0.75
   2   0   6    8.70    0.80
  -2   0  -6    8.09    0.56
  -2   0  -6    7.17    0.39
  -2   0  -6    6.92    0.50
   2   0   6    8.31    0.77
  -2   0  -6    8.05    0.73
  -2   0  -7    1.49    0.41
   2   0   7    1.85    0.45
  -2   0  -7    1.65    0.41
  -2   0  -7    1.68    0.24
   2   0   7    1.35    0.44
  -2   0  -7    2.19    0.36
  -2   0  -7    2.34    0.38
  -2   0  -7    1.89    0.45
  -2   0  -8   -0.38    0.36
   2   0   8    0.58    0.45
  -2   0  -8    0.11    0.16
  -2   0  -8    0.71    0.38
   2   0   8   -0.52    0.42
  -2   0  -8    0.45    0.24
  -2   0  -8    0.16    0.23
  -2   0  -9    3.96    0.61
   2   0   9    4.03    0.71
  -2   0  -9    4.10    0.42
  -2   0  -9    4.09    0.55
  -2   0  -9    3.65    0.52
  -2   0  -9    4.85    0.69
   2   0  10    3.05    0.68
  -2   0 -10    3.07    0.41
  -2   0 -10    2.84    0.51
  -2   0 -10    3.19    0.53
   2   0  11   65.94    2.97
  -2   0 -11   69.53    2.54
  -2   0 -11   69.78    2.12
  -2   0 -11   73.99    2.53
   2   0  12   43.22    2.47
  -2   0 -12   42.75    1.65
  -2   0 -12   42.99    2.03
  -2   0 -12   43.73    2.00
   2   0  13   -0.18    0.50
  -2   0 -13   -0.21    0.36
  -2   0 -13    0.71    0.47
   2   0  14   48.44    2.93
  -2   0 -14   54.94    2.57
  -2   0 -14   61.33    2.61
   2   0  15    5.64    1.22
  -2   0 -15    4.10    0.79
  -2   0 -15    5.26    0.84
   2   0  16   14.38    1.70
  -2   0 -16   12.41    1.29
  -2   0 -16   12.21    1.24
  -2  -1  17    2.46    0.89
   2   1 -17    3.88    1.05
   2   1 -17    3.13    0.83
  -2  -1  16    1.48    0.62
   2   1 -16    2.43    0.80
   2   1 -16    1.84    0.81
  -2  -1  15    5.98    1.15
   2   1 -15    5.98    1.05
   2   1 -15    7.42    1.17
  -2  -1  14    1.30    0.36
  -2  -1  14    1.24    0.65
   2   1 -14    0.81    0.48
   2   1 -14    0.31    0.50
  -2  -1  13   25.29    1.37
  -2  -1  13   26.52    1.38
  -2  -1  13   24.79    1.92
   2   1 -13   26.55    1.92
   2   1 -13   25.98    1.86
  -2  -1  12  113.88    3.21
   2   1 -12  120.66    4.12
  -2  -1  12  110.41    3.78
   2   1 -12  117.41    3.61
   2   1 -12  119.44    4.04
  -2  -1  11    1.44    0.40
  -2  -1  11    1.32    0.54
   2   1 -11    1.55    0.44
   2   1 -11    1.13    0.56
   2   1 -11    2.06    0.60
  -2  -1  10    3.07    0.47
   2   1 -10    3.24    0.56
  -2  -1  10    2.40    0.71
   2   1 -10    2.20    0.52
   2   1 -10    2.55    0.57
   2   1 -10    2.88    0.55
   2   1  -9  217.61    5.56
  -2  -1   9  219.57    5.39
   2   1  -9  235.66    5.50
  -2  -1   9  244.63    5.69
   2   1  -9  220.73    4.97
   2   1  -9  226.78    5.54
   2   1  -8  134.11    3.56
  -2  -1   8  115.70    3.39
   2   1  -8  114.99    3.00
  -2  -1   8  123.16    3.55
   2   1  -8  116.18    3.46
  -2  -1   7   23.76    1.30
   2   1  -7   25.69    1.34
  -2  -1   7   25.78    1.36
   2   1  -7   22.33    1.28
   2   1  -7   22.38    1.02
  -2  -1   6  409.13    7.92
   2   1  -6  416.54    7.95
  -2  -1   6  414.73    7.99
   2   1  -6  403.19    7.94
   2   1  -6  407.66    7.27
  -2  -1   5   90.53    2.53
   2   1  -5   89.49    2.51
   2   1  -5   89.84    2.54
  -2  -1   5   88.69    2.53
   2   1  -5   88.71    2.01
   2   1  -4  204.99    4.19
  -2  -1   4  193.11    4.14
   2   1  -4  190.08    3.46
   2   1  -4  188.01    4.11
  -2  -1   4  190.33    4.11
  -2  -1   3  234.20    4.62
   2   1  -3  229.69    4.59
   2   1  -3  229.94    4.59
  -2  -1   3  230.54    4.57
   2   1  -3  228.02    4.57
   2   1  -2    6.20    0.50
  -2  -1   2    5.73    0.53
  -2  -1   2    6.11    0.47
   2   1  -2    6.11    0.51
   2   1  -1  615.68   10.06
  -2  -1   1  607.59   10.16
   2   1  -1  605.10   10.16
  -2  -1   1  604.90   10.13
  -2  -1   0   32.34    1.06
   2   1   0   31.99    0.85
   2   1   0   31.83    0.93
  -2  -1   0   29.24    0.83
  -2  -1   0   28.77    0.81
   2   1   0   30.57    0.84
   2   1   1   28.59    0.99
  -2  -1  -1   22.24    0.76
   2   1   1   26.65    0.81
  -2  -1  -1   23.00    0.91
   2   1   1   22.99    0.61
  -2  -1  -1   21.00    0.58
   2   1   1   20.43    0.65
  -2  -1  -1   20.54    0.78
   2   1   1   24.22    0.90
  -2  -1  -2   40.59    1.32
   2   1   2   40.64    1.32
   2   1   2   41.40    1.14
  -2  -1  -2   41.50    1.37
  -2  -1  -2   43.55    1.16
  -2  -1  -2   42.73    1.19
   2   1   2   41.42    1.18
  -2  -1  -2   39.15    0.87
   2   1   2   42.84    1.34
  -2  -1  -2   40.55    1.29
  -2  -1  -3    8.61    0.68
  -2  -1  -3    7.67    0.46
   2   1   3    7.16    0.64
  -2  -1  -3    8.24    0.52
   2   1   3    7.99    0.46
   2   1   3    7.43    0.62
  -2  -1  -3    8.01    0.60
   2   1   3    9.13    0.71
  -2  -1  -3    8.51    0.65
  -2  -1  -4    0.83    0.22
   2   1   4    1.18    0.38
  -2  -1  -4    0.55    0.33
   2   1   4    0.56    0.19
   2   1   4    0.79    0.41
  -2  -1  -4    0.89    0.33
   2   1   4    0.81    0.38
  -2  -1  -4    0.65    0.29
  -2  -1  -5   46.68    1.23
  -2  -1  -5   44.72    1.71
   2   1   5   43.24    1.70
   2   1   5   44.51    1.20
  -2  -1  -5   46.73    1.82
   2   1   5   45.75    1.78
   2   1   5   46.47    1.00
  -2  -1  -5   47.93    1.78
  -2  -1  -5   46.70    1.37
  -2  -1  -6  225.76    4.03
   2   1   6  223.27    5.03
  -2  -1  -6  228.12    5.06
  -2  -1  -6  215.85    5.17
   2   1   6  213.96    5.09
   2   1   6  216.49    4.01
  -2  -1  -6  220.03    3.89
   2   1   6  222.78    3.89
  -2  -1  -6  221.07    5.05
  -2  -1  -6  218.70    4.42
  -2  -1  -7   47.14    1.21
   2   1   7   45.60    1.97
  -2  -1  -7   47.36    1.99
   2   1   7   44.29    1.99
   2   1   7   45.39    1.21
  -2  -1  -7   46.98    1.25
   2   1   7   49.34    1.26
  -2  -1  -7   48.35    1.61
  -2  -1  -7   51.07    2.06
   2   1   8   27.69    1.56
  -2  -1  -8   26.75    0.82
  -2  -1  -8   28.70    1.60
   2   1   8   25.15    1.56
   2   1   8   26.27    0.83
   2   1   8   25.84    0.94
  -2  -1  -8   26.87    0.96
  -2  -1  -8   27.20    1.24
  -2  -1  -8   28.65    1.60
  -2  -1  -9   50.02    2.27
   2   1   9   48.65    2.31
   2   1   9   45.13    1.16
  -2  -1  -9   48.01    1.46
   2   1   9   46.69    1.44
  -2  -1  -9   49.35    1.84
  -2  -1  -9   51.84    2.29
   2   1  10   85.11    1.71
   2   1  10   78.55    3.19
  -2  -1 -10   81.61    2.19
  -2  -1 -10   80.74    2.64
   2   1  11   33.75    2.12
  -2  -1 -11   34.63    1.35
  -2  -1 -11   32.42    1.65
   2   1  12   40.18    2.42
  -2  -1 -12   43.05    2.04
  -2  -1 -12   41.68    1.58
  -2  -1 -12   41.90    1.98
   2   1  13   31.22    2.24
  -2  -1 -13   33.16    1.85
  -2  -1 -13   30.79    1.76
   2   1  14    5.59    1.04
  -2  -1 -14    5.30    0.85
  -2  -1 -14    5.52    0.83
   2   1  15   58.58    3.37
  -2  -1 -15   62.03    2.82
  -2  -1 -15   60.23    2.75
   2   1  16    0.13    0.67
  -2  -1 -16    0.53    0.53
  -2  -1 -16    1.22    0.55
  -2  -2  17    2.70    0.78
  -2  -2  16   -0.02    0.61
   2   2 -16   -0.24    0.54
  -2  -2  15    2.69    0.84
   2   2 -15    1.50    0.69
  -2  -2  14    6.03    1.03
  -2  -2  14    7.73    0.76
   2   2 -14    9.19    1.23
  -2  -2  13    4.74    0.63
  -2  -2  13    2.88    0.70
  -2  -2  13    3.83    0.59
   2   2 -13    2.46    0.68
   2   2 -13    4.02    0.80
  -2  -2  12    0.87    0.37
  -2  -2  12    0.76    0.34
   2   2 -12   -0.25    0.47
   2   2 -12    1.40    0.56
   2   2 -12    0.75    0.36
  -2  -2  11    0.97    0.34
   2   2 -11    0.36    0.41
   2   2 -11    0.55    0.34
   2   2 -11    0.64    0.54
  -2  -2  10   11.55    0.88
   2   2 -10   15.89    1.31
   2   2 -10   12.89    0.93
   2   2 -10   14.03    1.22
  -2  -2   9    4.13    0.53
   2   2  -9    4.80    0.69
  -2  -2   9    4.14    0.65
   2   2  -9    3.45    0.65
   2   2  -9    4.10    0.50
   2   2  -9    3.57    0.66
  -2  -2   8    8.28    0.72
   2   2  -8    9.48    0.88
   2   2  -8    7.73    0.62
   2   2  -8    9.08    0.87
  -2  -2   8    9.11    0.89
   2   2  -8    7.96    0.87
  -2  -2   7  223.98    4.83
   2   2  -7  228.16    5.24
   2   2  -7  227.17    5.33
  -2  -2   7  233.70    5.32
   2   2  -7  221.29    4.44
   2   2  -7  229.44    5.28
  -2  -2   6    4.57    0.54
   2   2  -6    4.94    0.62
   2   2  -6    4.65    0.61
  -2  -2   6    5.43    0.63
   2   2  -6    5.93    0.72
   2   2  -6    4.28    0.37
  -2  -2   5    5.13    0.55
   2   2  -5    5.36    0.59
  -2  -2   5    6.08    0.64
   2   2  -5    4.62    0.60
   2   2  -5    4.68    0.33
  -2  -2   4  152.51    3.40
   2   2  -4  148.32    3.51
   2   2  -4  148.18    3.51
   2   2  -4  145.20    2.59
  -2  -2   4  148.80    3.49
  -2  -2   3  877.61   14.92
   2   2  -3  887.26   14.98
   2   2  -3  901.80   14.98
  -2  -2   3  882.86   14.96
  -2  -2   2  137.82    3.13
   2   2  -2  137.04    3.09
   2   2  -2  134.83    3.03
  -2  -2   2  134.84    3.02
   2   2  -1 2262.34   35.77
  -2  -2   1 2322.00   35.81
   2   2  -1 2302.98   35.57
  -2  -2   1 2227.69   35.54
   2   2  -1 2286.06   35.66
  -2  -2   1 2195.32   34.94
  -2  -2   0 9999.00  155.43
   2   2   0 9789.47  155.38
  -2  -2   0 9975.12  155.05
  -2  -2   0 9763.21  154.85
   2   2   1  210.62    4.11
   2   2   1  210.87    3.52
  -2  -2  -1  194.93    3.96
   2   2   1  183.86    3.90
  -2  -2  -1  182.46    3.58
   2   2   1  197.11    3.65
  -2  -2  -1  184.61    3.72
  -2  -2  -2  479.79    8.40
   2   2   2  471.11    8.39
  -2  -2  -2  479.97    8.22
  -2  -2  -2  468.12    7.69
  -2  -2  -2  472.49    8.30
   2   2   2  464.88    7.69
   2   2   2  461.07    8.17
  -2  -2  -2  449.80    7.78
  -2  -2  -2  455.54    8.17
   2   2   3  178.28    3.95
  -2  -2  -3  180.78    3.96
   2   2   3  173.54    3.91
  -2  -2  -3  178.75    3.69
  -2  -2  -3  173.98    3.35
   2   2   3  171.98    3.63
  -2  -2  -3  173.57    3.91
  -2  -2  -3  170.29    3.34
  -2  -2  -4  315.78    5.81
  -2  -2  -4  320.75    6.28
   2   2   4  309.74    6.24
   2   2   4  308.08    6.25
  -2  -2  -4  321.79    6.33
  -2  -2  -4  316.59    5.63
   2   2   4  297.88    5.72
   2   2   4  307.25    5.30
  -2  -2  -4  312.10    6.21
   2   2   5   47.75    1.83
  -2  -2  -5   47.93    1.86
  -2  -2  -5   46.80    1.47
  -2  -2  -5   51.23    1.96
   2   2   5   46.94    1.86
   2   2   5   44.41    1.42
   2   2   5   45.80    1.16
  -2  -2  -5   50.71    1.88
   2   2   6    7.69    0.78
  -2  -2  -6    6.18    0.74
  -2  -2  -6    6.82    0.53
   2   2   6    7.61    0.54
  -2  -2  -6    6.99    0.78
   2   2   6    8.07    0.82
   2   2   6    7.45    0.42
  -2  -2  -6    6.65    0.71
  -2  -2  -7  284.16    5.25
   2   2   7  290.34    6.30
  -2  -2  -7  282.63    6.26
   2   2   7  255.98    6.19
   2   2   7  265.97    5.19
   2   2   7  272.13    4.95
  -2  -2  -7  284.20    5.64
  -2  -2  -7  267.73    6.19
  -2  -2  -8  109.92    2.56
   2   2   8  110.73    3.48
  -2  -2  -8  113.55    3.53
   2   2   8  105.18    2.54
   2   2   8  107.77    3.55
   2   2   8  109.11    2.45
  -2  -2  -8  115.95    3.57
  -2  -2  -8  111.93    3.03
   2   2   9   10.61    1.07
  -2  -2  -9   11.12    0.64
   2   2   9   10.79    1.11
   2   2   9   10.45    0.63
   2   2   9   10.11    0.62
  -2  -2  -9   10.77    0.87
  -2  -2 -10   76.00    1.95
   2   2  10   77.09    3.18
   2   2  10   74.40    1.97
   2   2  10   77.37    2.08
  -2  -2 -10   77.97    2.63
   2   2  11  105.43    3.99
   2   2  11  106.06    2.46
   2   2  11  111.20    2.74
  -2  -2 -11  104.81    3.32
   2   2  12   35.38    2.32
   2   2  12   37.60    1.17
   2   2  12   38.48    1.49
  -2  -2 -12   36.25    1.89
   2   2  13   70.36    3.44
  -2  -2 -13   70.69    2.84
   2   2  14   64.06    3.40
  -2  -2 -14   57.50    2.65
   2   2  15   37.19    2.67
  -2  -2 -15   32.67    2.03
  -2  -2 -15   32.87    2.04
  -2  -2 -16   48.22    2.57
  -2  -2 -16   46.97    2.56
  -2  -3  17    3.92    1.08
  -2  -3  16   25.99    2.20
   2   3 -16   27.64    2.28
  -2  -3  15    3.60    0.85
   2   3 -15    3.61    0.95
  -2  -3  14   20.39    1.81
  -2  -3  14   18.35    1.22
   2   3 -14   14.16    1.57
  -2  -3  13   24.12    1.39
  -2  -3  13   22.56    1.76
   2   3 -13   22.11    1.83
   2   3 -13   25.93    1.56
  -2  -3  12    0.18    0.29
  -2  -3  12   -0.29    0.50
   2   3 -12    0.17    0.34
   2   3 -12    0.24    0.48
  -2  -3  11    2.67    0.48
   2   3 -11    3.51    0.79
   2   3 -11    2.49    0.47
  -2  -3  10    6.30    0.70
   2   3 -10    7.27    0.96
   2   3 -10    6.39    0.64
  -2  -3   9    2.33    0.47
   2   3  -9    1.53    0.46
   2   3  -9    1.93    0.36
   2   3  -9    1.69    0.62
  -2  -3   8    5.49    0.64
   2   3  -8    5.32    0.72
   2   3  -8    5.43    0.50
  -2  -3   8    5.71    0.75
   2   3  -8    4.58    0.73
  -2  -3   7   18.67    1.10
   2   3  -7   20.87    1.30
   2   3  -7   21.39    1.35
   2   3  -7   19.77    0.85
  -2  -3   7   19.86    1.27
  -2  -3   6   11.16    0.85
   2   3  -6   10.51    0.93
   2   3  -6   12.08    0.96
   2   3  -6   11.04    0.55
  -2  -3   6   11.73    0.94
  -2  -3   5    4.74    0.58
   2   3  -5    5.89    0.66
   2   3  -5    4.56    0.63
  -2  -3   5    4.56    0.59
  -2  -3   4   40.76    1.58
  -2  -3   4   40.63    1.66
   2   3  -4   41.15    1.67
   2   3  -4   43.24    1.68
  -2  -3   4   43.29    1.68
  -2  -3   4   40.72    0.91
   2   3  -3   57.02    1.91
   2   3  -3   59.17    1.95
  -2  -3   3   56.47    1.91
  -2  -3   3   58.35    1.92
   2   3  -3   57.22    1.89
   2   3  -2   16.47    0.93
  -2  -3   2   16.32    0.90
  -2  -3   2   17.70    1.01
   2   3  -2   16.47    0.94
  -2  -3   1   24.73    1.06
   2   3  -1   25.36    1.09
  -2  -3   1   26.47    1.23
   2   3  -1   24.41    1.13
   2   3   0   71.20    1.93
  -2  -3   0   72.70    1.93
   2   3   0   71.55    2.10
  -2  -3   0   72.78    2.17
   2   3   1   84.77    2.39
  -2  -3  -1   85.92    2.37
   2   3   1   85.49    1.68
  -2  -3  -1   82.80    2.11
   2   3   1   85.80    2.34
   2   3   1   81.43    2.07
  -2  -3  -1   80.46    2.06
   2   3   2    0.68    0.28
  -2  -3  -2    0.63    0.27
   2   3   2    0.95    0.14
  -2  -3  -2    1.10    0.40
   2   3   2    0.71    0.38
  -2  -3  -2    0.94    0.25
  -2  -3  -3  144.97    3.39
  -2  -3  -3  145.24    3.54
   2   3   3  141.22    3.51
  -2  -3  -3  143.35    3.42
   2   3   3  142.52    3.32
  -2  -3  -3  138.27    2.60
   2   3   3  137.00    3.35
  -2  -3  -3  142.38    3.04
  -2  -3  -3  142.44    3.41
  -2  -3  -4   41.93    1.56
   2   3   4   41.76    1.72
  -2  -3  -4   45.98    1.80
  -2  -3  -4   42.61    1.71
   2   3   4   42.20    1.53
  -2  -3  -4   42.12    1.15
   2   3   4   40.80    1.67
  -2  -3  -4   41.12    1.37
  -2  -3  -4   44.21    1.71
  -2  -3  -5   10.57    0.76
   2   3   5   11.64    0.94
  -2  -3  -5   11.79    0.94
   2   3   5   11.40    0.93
  -2  -3  -5   10.17    0.89
   2   3   5   10.82    0.74
  -2  -3  -5   10.43    0.60
   2   3   5   10.52    0.58
  -2  -3  -5   10.86    0.90
  -2  -3  -6  248.59    5.19
   2   3   6  257.94    5.81
  -2  -3  -6  268.17    5.91
   2   3   6  258.13    5.84
   2   3   6  234.74    5.10
   2   3   6  253.41    4.74
  -2  -3  -6  260.23    5.85
   2   3   7    7.49    0.85
  -2  -3  -7    7.62    0.85
  -2  -3  -7    5.85    0.56
   2   3   7    5.15    0.77
   2   3   7    6.66    0.59
   2   3   7    6.46    0.48
  -2  -3  -7    6.15    0.76
  -2  -3  -8   30.81    1.31
   2   3   8   29.55    1.73
  -2  -3  -8   31.39    1.78
   2   3   8   33.62    1.88
   2   3   8   30.55    1.31
   2   3   8   30.92    1.14
  -2  -3  -8   31.83    1.78
  -2  -3  -9  170.82    3.86
   2   3   9  167.76    4.89
   2   3   9  167.75    4.95
   2   3   9  165.40    3.86
   2   3   9  171.77    3.65
  -2  -3  -9  174.55    4.38
   2   3  10    4.86    0.87
  -2  -3 -10    4.34    0.50
   2   3  10    4.58    0.88
   2   3  10    4.30    0.50
   2   3  10    5.33    0.50
  -2  -3 -10    4.48    0.67
  -2  -3 -11    1.40    0.35
   2   3  11    1.80    0.67
   2   3  11    1.60    0.31
   2   3  11    2.04    0.37
  -2  -3 -11    1.70    0.52
  -2  -3 -12   52.36    1.74
   2   3  12   52.37    2.90
   2   3  12   53.87    1.83
  -2  -3 -12   53.47    2.40
   2   3  13   47.44    2.87
  -2  -3 -13   51.51    2.44
   2   3  14   10.16    1.48
  -2  -3 -14    7.56    1.03
   2   3  15    8.65    1.36
  -2  -3 -15    8.82    1.13
  -2  -3 -16    1.20    0.57
  -2  -4  17    2.45    0.90
  -2  -4  16   16.84    1.74
  -2  -4  15   64.41    3.28
   2   4 -15   64.46    3.46
  -2  -4  14    0.80    0.52
   2   4 -14    0.67    0.54
  -2  -4  13   19.75    1.32
  -2  -4  13   19.78    1.66
   2   4 -13   19.14    1.74
  -2  -4  12  141.09    4.45
  -2  -4  12  138.26    3.91
   2   4 -12  136.67    4.74
   2   4 -12  134.08    3.70
  -2  -4  11    0.94    0.42
   2   4 -11    1.05    0.64
   2   4 -11    1.06    0.35
  -2  -4  10   48.84    2.05
   2   4 -10   48.24    2.45
   2   4 -10   49.63    1.79
  -2  -4   9   18.04    1.19
   2   4  -9   15.89    1.34
   2   4  -9   16.75    0.93
  -2  -4   8   62.99    2.32
   2   4  -8   63.61    2.65
   2   4  -8   71.66    2.72
  -2  -4   7   50.44    2.01
   2   4  -7   52.92    2.29
   2   4  -7   56.85    2.32
  -2  -4   7   52.61    1.51
  -2  -4   7   53.65    2.26
  -2  -4   6   51.26    1.98
   2   4  -6   49.37    2.13
   2   4  -6   51.55    2.14
  -2  -4   6   51.85    2.15
  -2  -4   6   48.49    1.32
  -2  -4   6   48.71    2.07
  -2  -4   5  113.04    3.16
  -2  -4   5  114.08    3.31
   2   4  -5  120.87    3.39
   2   4  -5  111.86    3.30
  -2  -4   5  107.35    2.20
  -2  -4   5  109.22    3.24
   2   4  -4  174.24    4.15
  -2  -4   4  174.98    4.19
   2   4  -4  178.98    4.31
  -2  -4   4  171.84    4.24
   2   4  -4  176.58    4.26
  -2  -4   4  165.17    3.06
  -2  -4   3   74.96    2.44
   2   4  -3   83.93    2.54
   2   4  -3   80.03    2.48
  -2  -4   3   81.39    2.53
   2   4  -2  166.63    3.87
  -2  -4   2  153.96    3.76
  -2  -4   2  167.25    3.99
   2   4  -2  153.68    3.85
   2   4  -1   57.82    1.92
  -2  -4   1   56.19    1.88
  -2  -4   1   60.89    2.10
   2   4  -1   58.17    2.03
   2   4   0  371.48    6.99
  -2  -4   0  363.70    6.94
  -2  -4   0  363.26    6.52
   2   4   0  355.78    7.21
  -2  -4   0  379.44    7.33
   2   4   1   41.17    1.69
   2   4   1   41.76    1.51
  -2  -4  -1   42.03    1.50
   2   4   1   41.95    1.68
   2   4   1   41.84    0.95
  -2  -4  -1   43.20    1.41
  -2  -4  -1   42.25    1.72
  -2  -4  -2  442.30    8.32
   2   4   2  426.11    8.26
  -2  -4  -2  424.90    7.82
   2   4   2  407.37    8.15
  -2  -4  -2  435.05    7.89
   2   4   3   37.59    1.64
  -2  -4  -3   36.56    1.59
  -2  -4  -3   37.05    1.39
  -2  -4  -3   36.22    1.51
   2   4   3   34.84    1.53
   2   4   3   36.35    1.47
  -2  -4  -4   45.11    1.89
  -2  -4  -4   40.35    1.69
   2   4   4   41.70    1.81
   2   4   4   40.52    1.68
  -2  -4  -4   40.78    0.95
  -2  -4  -4   42.75    1.76
   2   4   4   38.71    1.63
  -2  -4  -4   41.38    1.52
  -2  -4  -5  371.13    7.47
   2   4   5  374.82    7.82
  -2  -4  -5  399.41    7.96
   2   4   5  368.88    7.67
  -2  -4  -5  387.11    7.83
   2   4   5  357.39    7.38
  -2  -4  -5  374.06    6.44
   2   4   5  387.05    6.96
  -2  -4  -5  377.68    7.19
  -2  -4  -5  366.38    7.74
   2   4   6    8.99    0.93
  -2  -4  -6    8.02    0.89
  -2  -4  -6    9.00    0.78
   2   4   6    8.97    0.91
  -2  -4  -6    9.24    0.56
   2   4   6    7.52    0.70
   2   4   6   10.01    0.66
  -2  -4  -6    8.22    0.85
   2   4   7    1.59    0.54
  -2  -4  -7    0.89    0.39
  -2  -4  -7    1.18    0.35
   2   4   7    1.60    0.51
   2   4   7    1.45    0.35
   2   4   7    1.68    0.32
  -2  -4  -7    1.63    0.44
   2   4   8  200.76    5.38
  -2  -4  -8  208.02    4.72
   2   4   8  202.53    4.25
   2   4   8  203.76    5.44
   2   4   8  187.66    4.58
  -2  -4  -9    2.74    0.47
   2   4   9    4.06    0.78
   2   4   9    2.59    0.46
   2   4   9    3.49    0.75
   2   4   9    2.93    0.41
   2   4  10   13.43    1.34
  -2  -4 -10   13.98    0.98
   2   4  10   12.64    1.34
   2   4  10   13.63    0.99
   2   4  10   14.81    0.89
  -2  -4 -10   14.03    1.16
  -2  -4 -11    8.28    0.78
   2   4  11    6.20    1.01
   2   4  11    7.42    1.13
   2   4  11    7.68    0.74
   2   4  11    8.13    0.69
  -2  -4 -11    7.87    0.96
  -2  -4 -12   52.72    1.97
   2   4  12   54.19    2.98
   2   4  12   52.74    1.87
  -2  -4 -12   46.85    2.36
   2   4  13   10.96    1.43
  -2  -4 -13   13.82    1.29
   2   4  14   14.88    1.71
  -2  -4 -14   16.61    1.50
  -2  -4 -15    5.95    1.02
  -2  -4 -16    3.58    0.87
  -2  -5  16    0.14    0.58
  -2  -5  15    0.86    0.55
   2   5 -15   -0.20    0.65
  -2  -5  14   25.08    1.86
   2   5 -14   29.28    2.28
  -2  -5  13   24.66    1.56
  -2  -5  13   23.47    1.71
   2   5 -13   24.70    2.04
  -2  -5  12   84.84    3.01
  -2  -5  12   76.80    3.10
   2   5 -12   80.94    3.61
  -2  -5  11    6.29    0.82
  -2  -5  11    6.15    0.83
   2   5 -11    6.70    1.11
  -2  -5  10   89.07    3.06
  -2  -5  10   92.14    3.07
   2   5 -10   85.59    3.48
  -2  -5   9   29.84    1.64
   2   5  -9   28.55    1.86
  -2  -5   8   25.90    1.51
   2   5  -8   23.74    1.62
  -2  -5   8   25.13    1.04
  -2  -5   7  105.02    3.26
   2   5  -7  102.85    3.50
  -2  -5   7  102.48    2.38
  -2  -5   6  102.71    3.23
   2   5  -6  101.40    3.37
   2   5  -6  110.92    3.48
  -2  -5   6  105.46    3.44
  -2  -5   6  104.83    2.31
  -2  -5   6  107.37    3.43
   2   5  -5   96.83    3.01
  -2  -5   5   96.30    3.06
   2   5  -5   97.92    3.18
  -2  -5   5   99.63    3.20
   2   5  -5   99.07    3.21
  -2  -5   5   94.68    2.09
   2   5  -4  183.79    4.57
  -2  -5   4  187.26    4.65
  -2  -5   4  192.60    4.70
   2   5  -4  186.43    4.68
  -2  -5   4  181.34    3.48
   2   5  -3  127.31    3.57
  -2  -5   3  134.66    3.64
  -2  -5   3  131.75    3.66
   2   5  -3  124.12    3.53
  -2  -5   2  114.10    3.24
   2   5  -2  115.82    3.26
   2   5  -2  114.06    3.31
  -2  -5   2  118.85    3.40
   2   5  -1  140.86    3.63
  -2  -5   1  136.40    3.57
  -2  -5   1  142.09    3.83
   2   5  -1  142.69    3.79
  -2  -5   1  137.78    2.86
   2   5   0   20.27    1.16
  -2  -5   0   21.16    1.16
  -2  -5   0   20.59    0.88
  -2  -5   0   20.53    1.28
   2   5   0   21.27    1.27
  -2  -5  -1  133.87    3.71
   2   5   1  140.25    3.70
   2   5   1  135.24    3.42
  -2  -5  -1  134.37    3.41
   2   5   1  131.42    2.35
   2   5   1  129.96    3.64
  -2  -5  -1  140.34    3.12
  -2  -5  -2  503.95    9.52
   2   5   2  478.28    9.38
  -2  -5  -2  479.92    8.99
   2   5   2  470.44    9.34
  -2  -5  -2  476.38    8.80
  -2  -5  -3   42.05    1.88
   2   5   3   44.82    1.95
  -2  -5  -3   44.80    1.75
   2   5   3   45.96    1.93
  -2  -5  -3   44.87    1.72
  -2  -5  -4    0.13    0.38
   2   5   4    0.71    0.36
   2   5   4    0.48    0.33
   2   5   4    0.51    0.45
  -2  -5  -4    0.40    0.26
  -2  -5  -5    0.39    0.34
   2   5   5    0.99    0.39
   2   5   5    1.27    0.44
   2   5   5    0.18    0.38
  -2  -5  -5    0.70    0.36
  -2  -5  -5    0.55    0.26
  -2  -5  -6  491.76    9.63
   2   5   6  476.00    9.94
  -2  -5  -6  517.33   10.15
  -2  -5  -6  481.52    9.29
   2   5   6  489.29    8.99
   2   5   6  477.81    9.77
   2   5   6  466.42    9.50
  -2  -5  -6  492.87    8.11
   2   5   7    4.06    0.72
  -2  -5  -7    3.04    0.55
   2   5   7    3.50    0.46
  -2  -5  -7    3.90    0.57
   2   5   7    2.49    0.49
  -2  -5  -7    3.55    0.37
   2   5   7    3.69    0.68
   2   5   8    2.14    0.65
  -2  -5  -8    2.05    0.50
   2   5   8    2.65    0.43
   2   5   8    2.93    0.67
  -2  -5  -8    2.05    0.35
   2   5   8    2.24    0.50
  -2  -5  -9  107.76    3.30
   2   5   9  102.68    3.81
   2   5   9  108.42    2.91
   2   5   9  103.20    3.26
   2   5   9  107.66    3.89
   2   5  10   93.83    3.78
  -2  -5 -10   94.19    3.07
   2   5  10   97.59    3.14
   2   5  10   98.63    3.85
   2   5  10   99.21    2.79
   2   5  11   -0.30    0.51
  -2  -5 -11   -0.04    0.33
   2   5  11    1.26    0.67
   2   5  11    0.25    0.32
   2   5  11   -0.13    0.27
  -2  -5 -11    0.26    0.41
   2   5  12   19.39    1.79
  -2  -5 -12   18.78    1.25
   2   5  12   20.27    1.84
   2   5  12   19.50    1.14
  -2  -5 -12   18.15    1.51
   2   5  13   48.52    2.98
  -2  -5 -13   48.35    2.55
   2   5  14   30.10    2.46
  -2  -5 -14   24.73    1.89
  -2  -5 -15    0.50    0.58
  -2  -6  14   13.72    1.35
   2   6 -14   13.35    1.59
  -2  -6  13   -0.03    0.43
  -2  -6  13    0.25    0.35
   2   6 -13    1.09    0.78
  -2  -6  12    3.28    0.69
  -2  -6  12    3.54    0.72
   2   6 -12    4.27    0.96
  -2  -6  11    2.74    0.58
  -2  -6  11    2.98    0.67
   2   6 -11    3.33    0.86
  -2  -6  10  123.29    3.94
  -2  -6  10  126.98    3.63
   2   6 -10  124.54    4.47
  -2  -6   9  132.02    4.11
  -2  -6   9  138.55    3.68
   2   6  -9  141.40    4.66
  -2  -6   9  142.20    3.27
  -2  -6   8    0.06    0.35
  -2  -6   8    0.67    0.22
   2   6  -8    0.47    0.46
  -2  -6   7   39.66    1.99
   2   6  -7   40.77    2.17
  -2  -6   7   40.69    1.33
   2   6  -6  103.66    3.36
  -2  -6   6  103.26    3.44
   2   6  -6  105.85    3.60
  -2  -6   6  106.07    2.41
   2   6  -5   19.01    1.31
  -2  -6   5   20.19    1.38
   2   6  -5   19.29    1.40
  -2  -6   5   18.14    1.35
  -2  -6   5   18.97    0.81
  -2  -6   4   23.11    1.49
   2   6  -4   22.24    1.41
  -2  -6   4   21.66    1.42
   2   6  -4   21.63    1.43
   2   6  -3    7.60    0.85
  -2  -6   3    6.09    0.81
   2   6  -3    7.55    0.84
  -2  -6   3    6.70    0.79
  -2  -6   2   33.68    1.00
  -2  -6   2   36.71    1.87
   2   6  -2   37.05    1.83
  -2  -6   2   34.48    1.71
   2   6  -2   34.86    1.74
  -2  -6   1   21.34    0.83
   2   6  -1   21.88    1.40
  -2  -6   1   20.93    1.41
  -2  -6   1   20.59    1.28
   2   6  -1   21.57    1.35
  -2  -6   0    4.83    0.43
  -2  -6   0    4.74    0.75
   2   6   0    4.22    0.65
   2   6   0    3.82    0.60
  -2  -6   0    5.35    0.66
   2   6   1   94.20    3.08
  -2  -6  -1   95.98    3.20
   2   6   1   92.24    2.89
  -2  -6  -1   90.67    2.87
   2   6   1   90.64    3.08
  -2  -6  -1   96.77    2.48
  -2  -6  -2  123.95    3.76
   2   6   2  117.04    3.60
  -2  -6  -2  122.18    3.41
  -2  -6  -2  122.32    3.12
   2   6   2  123.19    3.69
   2   6   3   11.78    1.07
  -2  -6  -3   12.34    1.11
   2   6   3   10.80    1.01
  -2  -6  -3   12.58    0.96
   2   6   4    2.49    0.48
  -2  -6  -4    1.06    0.44
   2   6   4    2.21    0.54
   2   6   4    2.39    0.57
  -2  -6  -4    2.50    0.49
  -2  -6  -5   15.52    1.24
   2   6   5   15.23    1.25
  -2  -6  -5   16.15    1.11
   2   6   5   17.63    1.27
   2   6   5   16.03    1.16
  -2  -6  -6   15.47    1.21
   2   6   6   13.14    1.20
   2   6   6   17.66    1.10
  -2  -6  -6   15.95    1.15
   2   6   6   16.26    1.23
   2   6   6   15.06    1.20
   2   6   7   28.73    1.83
  -2  -6  -7   26.39    1.61
  -2  -6  -7   28.21    1.56
   2   6   7   30.79    1.46
  -2  -6  -7   27.67    0.72
   2   6   7   29.90    1.77
   2   6   7   28.85    1.69
   2   6   8  101.47    3.78
  -2  -6  -8  105.90    3.46
  -2  -6  -8  106.63    3.37
   2   6   8  103.12    3.01
   2   6   8   99.93    3.41
   2   6   8  103.29    3.70
  -2  -6  -8  105.30    2.29
   2   6   9    0.87    0.58
  -2  -6  -9    0.80    0.41
  -2  -6  -9    0.56    0.38
   2   6   9    0.37    0.27
   2   6   9    0.49    0.50
  -2  -6  -9    0.32    0.20
   2   6   9    0.03    0.32
   2   6  10    9.39    1.25
  -2  -6 -10   11.34    1.08
   2   6  10    9.37    1.22
  -2  -6 -10    9.51    0.71
   2   6  10   10.76    1.08
   2   6  10   10.08    0.86
   2   6  11   61.72    3.19
  -2  -6 -11   60.84    2.56
   2   6  11   62.57    3.21
  -2  -6 -11   65.66    2.18
   2   6  11   62.64    2.28
  -2  -6 -11   64.77    2.93
   2   6  12    1.60    0.79
   2   6  12    1.62    0.64
  -2  -6 -12    1.19    0.46
  -2  -6 -12    0.62    0.52
   2   6  13   20.96    2.00
   2   6  13   23.67    2.09
  -2  -6 -13   18.31    1.70
   2   6  14   17.10    1.91
  -2  -6 -14   17.28    1.63
  -2  -6 -15   47.86    2.77
  -2  -7  13   45.29    2.37
   2   7 -13   45.21    2.91
  -2  -7  12   50.16    2.53
   2   7 -12   57.85    3.21
  -2  -7  11   17.14    1.19
  -2  -7  11   16.23    1.43
   2   7 -11   14.72    1.62
  -2  -7  10   52.65    2.57
  -2  -7  10   58.79    2.14
   2   7 -10   54.59    2.93
  -2  -7  10   55.73    1.85
  -2  -7   9   61.14    2.75
  -2  -7   9   62.38    2.09
   2   7  -9   63.39    3.07
  -2  -7   9   65.23    1.95
  -2  -7   8    3.49    0.44
  -2  -7   8    3.57    0.74
   2   7  -8    4.42    0.89
  -2  -7   8    4.39    0.45
  -2  -7   7    0.19    0.46
  -2  -7   7   -0.02    0.18
  -2  -7   7   -0.17    0.21
   2   7  -7    0.50    0.53
  -2  -7   6   66.95    1.67
  -2  -7   6   68.41    2.84
   2   7  -6   68.16    2.93
  -2  -7   6   68.95    1.89
  -2  -7   5   13.42    1.24
   2   7  -5   13.11    1.22
  -2  -7   5   13.39    0.74
  -2  -7   4    0.04    0.45
   2   7  -4   -0.11    0.37
  -2  -7   3    4.29    0.76
   2   7  -3    4.13    0.70
  -2  -7   2   43.05    2.19
  -2  -7   2   44.32    1.10
  -2  -7   2   42.37    2.04
   2   7  -2   47.53    2.19
  -2  -7   1    0.86    0.43
  -2  -7   1    0.36    0.37
   2   7  -1    0.68    0.41
  -2  -7   0    0.09    0.42
   2   7   0   -0.03    0.35
  -2  -7   0    0.05    0.28
   2   7   1    0.27    0.44
  -2  -7  -1    0.22    0.47
   2   7   1    0.50    0.40
  -2  -7  -1   -0.27    0.29
  -2  -7  -2    7.70    0.98
   2   7   2    8.57    0.97
  -2  -7  -2    7.82    0.84
  -2  -7  -3    2.04    0.61
   2   7   3    2.87    0.60
  -2  -7  -3    1.76    0.45
  -2  -7  -4   -0.18    0.44
   2   7   4    0.21    0.44
  -2  -7  -4    0.29    0.31
   2   7   5    0.58    0.38
  -2  -7  -5    0.01    0.45
   2   7   5    0.52    0.48
  -2  -7  -5   -0.10    0.32
  -2  -7  -6    0.70    0.48
   2   7   6    0.71    0.45
   2   7   6    0.03    0.41
   2   7   6   -0.01    0.35
  -2  -7  -6    0.74    0.43
   2   7   7   14.21    1.36
  -2  -7  -7   13.57    1.25
  -2  -7  -7   14.70    1.23
   2   7   7   14.30    1.08
   2   7   7   14.86    1.30
  -2  -7  -8   84.96    3.29
   2   7   8   81.61    3.48
   2   7   8   89.89    2.92
   2   7   8   87.38    3.44
  -2  -7  -9   18.50    1.48
   2   7   9   18.68    1.66
   2   7   9   22.27    1.36
   2   7   9   20.43    1.67
   2   7  10    7.31    1.16
  -2  -7 -10    7.76    1.00
   2   7  10    7.96    0.84
   2   7  10    7.43    1.09
   2   7  11   49.64    2.88
  -2  -7 -11   47.65    2.41
   2   7  11   48.30    2.88
   2   7  12   31.22    2.41
   2   7  12   32.66    2.46
  -2  -7 -12   31.95    1.95
  -2  -7 -12   30.83    2.15
   2   7  13   18.27    1.91
   2   7  13   18.17    1.92
  -2  -7 -13   18.57    1.76
  -2  -7 -14    5.97    1.18
  -2  -7 -15   33.70    2.48
  -2  -8  12    0.10    0.43
   2   8 -12    0.17    0.68
  -2  -8  11   97.41    3.84
   2   8 -11  105.76    4.46
  -2  -8  10    0.52    0.53
   2   8 -10   -0.18    0.58
  -2  -8   9   57.85    2.83
   2   8  -9   61.90    3.18
  -2  -8   8   43.30    2.40
   2   8  -8   48.13    2.66
  -2  -8   8   41.24    1.49
  -2  -8   7   34.05    2.08
  -2  -8   7   31.75    0.82
   2   8  -7   33.75    2.17
  -2  -8   7   35.58    1.33
  -2  -8   6    3.80    0.80
   2   8  -6    2.98    0.77
  -2  -8   6    3.29    0.42
  -2  -8   5   50.18    2.54
   2   8  -5   49.05    2.52
  -2  -8   5   46.69    1.63
  -2  -8   4  102.33    3.78
   2   8  -4  103.03    3.74
  -2  -8   3   14.26    1.35
   2   8  -3   14.75    1.32
  -2  -8   2    4.82    0.81
   2   8  -2    5.71    0.88
  -2  -8   1   41.23    2.28
   2   8  -1   38.44    2.07
   2   8   0   46.20    2.30
  -2  -8   0   45.57    2.41
   2   8   0   46.24    2.23
   2   8   0   45.25    1.23
   2   8   1    0.88    0.54
   2   8   1    1.28    0.46
  -2  -8  -1    0.48    0.49
   2   8   2    0.77    0.53
  -2  -8  -2    1.11    0.56
  -2  -8  -3   48.99    2.51
   2   8   3   44.85    2.34
   2   8   4   11.10    1.20
  -2  -8  -4   12.03    1.27
   2   8   5    7.41    1.02
  -2  -8  -5    7.83    1.03
   2   8   6   12.84    1.33
  -2  -8  -6   13.02    1.29
   2   8   6   10.74    1.09
  -2  -8  -7    7.51    1.00
   2   8   7    7.63    1.09
   2   8   7    5.91    0.80
   2   8   7    7.68    1.03
   2   8   8   -0.05    0.53
  -2  -8  -8   -0.23    0.48
   2   8   8   -0.03    0.37
   2   8   8   -0.36    0.50
   2   8   9    0.15    0.62
  -2  -8  -9   -0.05    0.47
   2   8   9    0.29    0.32
   2   8   9    0.81    0.59
  -2  -8 -10    1.49    0.67
   2   8  10    1.59    0.80
   2   8  10    1.99    0.49
   2   8  10    2.26    0.79
   2   8  11   14.27    1.58
   2   8  11   15.75    1.74
  -2  -8 -11   14.74    1.43
   2   8  12    1.51    0.65
   2   8  12    1.15    0.70
  -2  -8 -12    1.26    0.57
  -2  -8 -13    6.24    1.12
  -2  -8 -14   19.79    1.89
  -2  -9  12   19.97    1.78
  -2  -9  11   13.40    1.48
   2   9 -11   14.55    1.70
  -2  -9  10   15.96    1.58
   2   9 -10   17.26    1.80
  -2  -9   9    0.01    0.52
   2   9  -9    0.31    0.53
  -2  -9   8    1.77    0.74
   2   9  -8    2.41    0.79
  -2  -9   7   21.21    1.77
   2   9  -7   22.28    1.89
  -2  -9   7   21.27    1.07
  -2  -9   6   23.55    1.87
   2   9  -6   29.36    2.10
  -2  -9   6   26.86    1.24
  -2  -9   5    6.95    1.08
  -2  -9   5    5.92    0.61
   2   9  -5    7.04    1.04
  -2  -9   4    0.13    0.53
   2   9  -4    1.05    0.63
  -2  -9   3   38.35    2.34
   2   9  -3   35.00    2.14
  -2  -9   2   80.10    3.44
   2   9  -2   70.56    3.10
   2   9  -1    4.33    0.97
  -2  -9   1    6.45    1.08
   2   9  -1    3.44    0.47
   2   9   0    0.58    0.51
   2   9   0   -0.01    0.45
  -2  -9   0    0.42    0.55
   2   9   0    0.59    0.16
   2   9   1  294.58    7.44
  -2  -9  -1  307.84    7.82
   2   9   2    1.60    0.61
  -2  -9  -2    0.95    0.62
  -2  -9  -3   12.32    1.39
   2   9   3   13.39    1.36
  -2  -9  -4   79.50    3.47
   2   9   4   70.30    3.18
   2   9   5   56.80    2.87
  -2  -9  -5   54.86    2.86
   2   9   6   10.91    1.31
  -2  -9  -6   10.27    1.26
  -2  -9  -7   30.60    2.16
   2   9   7   35.08    2.34
   2   9   7   31.21    1.87
   2   9   8   12.96    1.49
  -2  -9  -8   13.15    1.43
   2   9   8   14.37    1.26
   2   9   8   13.25    1.36
   2   9   9    2.91    0.87
  -2  -9  -9    2.15    0.81
   2   9   9    2.47    0.65
   2   9   9    2.07    0.66
   2   9  10   19.26    1.79
  -2  -9 -10   19.09    1.74
   2   9  10   21.85    2.02
   2   9  11   20.28    1.91
   2   9  11   19.91    1.99
  -2  -9 -11   21.08    1.86
   2   9  12    3.63    0.96
  -2  -9 -12    4.26    1.02
  -2  -9 -13    1.53    0.76
  -2 -10  11   20.62    1.87
  -2 -10  10   39.40    2.59
  -2 -10   9    2.60    0.88
   2  10  -9    0.05    0.56
  -2 -10   8    0.95    0.67
   2  10  -8    1.76    0.73
  -2 -10   7    9.58    1.34
   2  10  -7    9.01    1.35
  -2 -10   6   41.51    2.62
   2  10  -6   40.61    2.62
  -2 -10   5  103.52    4.23
   2  10  -5  100.87    4.18
  -2 -10   5   99.82    2.91
  -2 -10   4   16.86    1.65
   2  10  -4   16.75    1.61
  -2 -10   3   12.78    1.44
   2  10  -3   11.75    1.37
  -2 -10   2   71.33    3.44
   2  10  -2   67.23    3.20
   2  10  -2   73.96    2.24
   2  10  -1  101.84    4.02
  -2 -10   1  106.40    4.26
   2  10  -1  110.72    4.13
   2  10  -1  104.93    2.51
   2  10   0    4.78    0.89
   2  10   0    3.44    0.78
  -2 -10   0    2.76    0.74
  -2 -10  -1   23.87    1.96
   2  10   1   21.60    1.80
   2  10   2  142.37    4.87
  -2 -10  -2  141.53    5.07
  -2 -10  -3   30.35    2.20
   2  10   3   31.02    2.15
  -2 -10  -4    3.17    0.78
   2  10   4    3.16    0.86
   2  10   5   46.86    2.75
  -2 -10  -5   55.51    3.03
  -2 -10  -6   14.12    1.56
   2  10   6   14.20    1.56
  -2 -10  -7   38.67    2.68
   2  10   7   38.39    2.55
   2  10   7   37.16    2.18
  -2 -10  -8    0.16    0.59
   2  10   8   -0.22    0.53
   2  10   8    1.43    0.58
  -2 -10  -9   22.74    2.01
   2  10   9   24.56    2.13
  -2 -10 -10   13.23    1.53
   2  10  11    3.89    1.05
  -2 -10 -11    3.38    0.85
  -2 -11  11    3.20    1.03
  -2 -11  10    8.95    1.37
  -2 -11   9   -0.19    0.74
  -2 -11   8    2.91    0.73
  -2 -11   7    0.26    0.61
   2  11  -7   -0.17    0.62
  -2 -11   6    0.44    0.65
   2  11  -6    0.32    0.63
  -2 -11   5    0.63    0.69
   2  11  -5    1.89    0.87
  -2 -11   4   27.40    2.26
   2  11  -4   33.27    2.39
   2  11  -3    8.50    1.23
  -2 -11   3   14.61    1.65
   2  11  -2    5.25    1.03
  -2 -11   2    4.27    0.96
   2  11  -1    9.21    1.29
   2  11  -1   10.35    1.34
  -2 -11   1   10.15    1.40
  -2 -11   0   62.98    3.39
   2  11   0   61.28    3.16
   2  11   1    0.07    0.57
  -2 -11  -1   -0.07    0.70
  -2 -11  -2   59.12    3.27
   2  11   2   50.63    2.89
  -2 -11  -3   11.52    1.50
   2  11   3   12.57    1.44
   2  11   4   25.73    2.13
  -2 -11  -4   26.02    2.19
   2  11   5   18.99    1.78
  -2 -11  -5   18.17    1.79
  -2 -11  -6    1.15    0.68
   2  11   6    1.57    0.77
   2  11   6    1.67    0.69
  -2 -11  -7   60.27    3.37
   2  11   7   61.68    3.40
   2  11   7   62.27    3.03
  -2 -11  -8    7.38    1.23
   2  11   8    9.33    1.21
  -2 -11  -9    1.44    0.66
  -2 -12   7   -1.12    0.80
  -2 -12   6   24.30    2.16
  -2 -12   5    1.58    0.74
   2  12  -5    1.16    0.67
   2  12  -4    8.32    1.32
  -2 -12   4    9.08    1.38
   2  12  -3    5.32    1.11
  -2 -12   3    4.28    1.01
  -2 -12   2   13.12    1.66
   2  12  -2   11.48    1.50
   2  12  -2   11.95    1.53
   2  12  -1    2.86    0.87
  -2 -12   1    5.37    1.09
   2  12   0    4.78    1.08
  -2 -12   0    5.58    1.08
   2  12   1    0.93    0.66
  -2 -12  -1    0.97    0.67
  -2 -12  -2    9.92    1.41
   2  12   2    7.10    1.21
   2  12   3    6.33    1.20
  -2 -12  -3    8.56    1.39
   2  12   4    0.92    0.58
  -2 -12  -4    1.40    0.74
   2  12   5    2.57    0.90
   2  12   6    7.55    1.20
   2  12   7   98.76    4.13
   3 -14   5   15.77    1.71
  -3  13   3   -0.26    0.72
  -3  13   2    0.91    0.57
   3 -13  -2    0.04    0.58
  -3  13   1   21.52    1.64
   3 -13  -1   17.93    1.91
   3 -13   0    0.97    0.60
  -3  13   0    0.76    0.46
   3 -13   1   11.29    1.51
  -3  13  -1   13.48    1.30
  -3  13  -2   15.50    1.42
   3 -13   2   16.35    1.74
   3 -13   3    0.60    0.64
  -3  13  -3    1.86    0.62
   3 -13   4    6.57    1.10
   3 -13   5   28.16    2.24
   3 -13   5   32.44    2.28
  -3  13  -6   20.13    1.79
   3 -13   6   18.09    1.83
   3 -13   6   18.09    1.72
  -3  13  -7    1.71    0.82
   3 -13   7    1.93    0.75
   3 -13   7    2.42    0.80
   3 -13   8   43.41    2.80
  -3  13  -8   43.83    2.82
  -3  12   8   52.43    2.81
  -3  12   8   50.11    3.09
  -3  12   7   29.32    2.01
   3 -12  -7   32.55    2.52
  -3  12   7   32.26    2.43
  -3  12   6    1.84    0.67
   3 -12  -6    1.58    0.73
  -3  12   6    0.39    0.57
  -3  12   5    1.47    0.53
   3 -12  -5    0.78    0.68
  -3  12   5    0.90    0.76
   3 -12  -4   13.49    1.60
  -3  12   4   15.20    1.33
  -3  12   4   15.02    1.66
  -3  12   3   11.68    1.23
   3 -12  -3   14.86    1.68
  -3  12   3   14.67    1.65
  -3  12   2    2.28    0.62
   3 -12  -2    2.99    0.86
   3 -12  -1    0.03    0.56
  -3  12   1    0.16    0.43
   3 -12   0   16.75    1.70
  -3  12   0   19.78    1.47
  -3  12  -1   -0.43    0.49
   3 -12   1   -0.46    0.54
  -3  12  -1    0.39    0.39
   3 -12   2    3.67    0.84
  -3  12  -2    3.78    0.74
  -3  12  -2    4.07    0.74
   3 -12   3   15.54    1.65
  -3  12  -3   13.56    1.27
   3 -12   4    0.51    0.68
  -3  12  -4    0.14    0.45
   3 -12   5    1.67    0.75
   3 -12   5    3.55    0.93
  -3  12  -5    1.58    0.61
  -3  12  -5    0.53    0.61
   3 -12   6    0.76    0.71
  -3  12  -6    0.42    0.66
  -3  12  -6    0.11    0.52
   3 -12   6   -0.46    0.49
   3 -12   7   31.48    2.25
  -3  12  -7   29.38    2.17
  -3  12  -7   33.15    2.52
   3 -12   7   28.44    2.08
  -3  12  -8    6.57    1.18
   3 -12   8    4.57    0.98
   3 -12   8    5.69    1.01
  -3  12  -9    4.44    1.04
   3 -12   9    4.20    0.92
  -3  11  11    1.39    0.65
  -3  11  11   -0.62    0.73
   3 -11 -10   25.47    2.21
  -3  11  10   24.16    1.94
  -3  11  10   27.85    2.26
  -3  11  10   24.17    2.06
  -3  11   9   25.36    1.92
   3 -11  -9   28.82    2.31
  -3  11   9   23.99    2.06
  -3  11   9   28.26    2.11
   3 -11  -8    1.06    0.71
  -3  11   8    0.30    0.50
  -3  11   8    0.26    0.62
  -3  11   8   -0.56    0.47
  -3  11   7   11.84    1.25
   3 -11  -7    9.33    1.35
  -3  11   7   10.04    1.34
  -3  11   7   10.97    1.24
  -3  11   6   17.87    1.47
   3 -11  -6   15.20    1.65
  -3  11   6   15.21    1.60
  -3  11   6   17.13    1.43
   3 -11  -5   25.00    2.07
  -3  11   5   24.51    1.64
  -3  11   5   21.77    1.86
  -3  11   5   23.35    1.57
   3 -11  -4    1.57    0.66
  -3  11   4    2.02    0.57
  -3  11   4    3.67    0.91
  -3  11   4    3.30    0.63
   3 -11  -3    0.67    0.62
  -3  11   3    0.95    0.48
  -3  11   3    0.53    0.56
  -3  11   3    0.57    0.46
   3 -11  -2  107.45    4.31
  -3  11   2  109.15    3.56
  -3  11   2  110.35    2.99
  -3  11   1    3.63    0.66
   3 -11  -1    3.76    0.90
   3 -11   0    3.81    0.98
  -3  11   0    3.40    0.65
  -3  11   0    2.97    0.56
   3 -11   1    6.17    1.06
  -3  11  -1    7.60    0.88
  -3  11  -1    9.07    0.94
   3 -11   2    4.71    0.98
  -3  11  -2    5.99    0.83
  -3  11  -2    5.99    0.82
   3 -11   3    3.54    0.90
  -3  11  -3    5.48    0.81
   3 -11   4    0.32    0.57
  -3  11  -4    3.62    0.73
   3 -11   5    4.06    0.87
   3 -11   5    3.04    0.76
  -3  11  -5    4.96    0.87
  -3  11  -5    5.46    1.06
   3 -11   6    2.66    0.75
  -3  11  -6    3.94    0.76
  -3  11  -6    3.51    0.94
   3 -11   6    2.61    0.72
   3 -11   7    1.34    0.63
  -3  11  -7    1.71    0.62
  -3  11  -7    2.18    0.80
   3 -11   7    2.02    0.70
   3 -11   8   29.21    2.00
  -3  11  -8   28.48    2.18
  -3  11  -8   26.01    2.18
   3 -11   8   27.56    1.98
  -3  11  -9    1.15    0.74
   3 -11   9    0.30    0.44
   3 -11   9    1.54    0.64
  -3  11  -9    0.95    0.68
  -3  11 -10    7.01    1.21
   3 -11  10    4.14    0.88
  -3  11 -10    6.65    1.23
   3 -11  11   11.26    1.34
  -3  10  13   11.99    1.53
   3 -10 -12   24.30    2.16
  -3  10  12   24.63    2.08
  -3  10  12   20.33    2.04
   3 -10 -11   10.89    1.41
  -3  10  11   11.49    1.42
  -3  10  11    8.98    1.41
   3 -10 -10   34.68    2.45
  -3  10  10   32.80    2.21
  -3  10  10   40.73    2.62
  -3  10  10   35.94    2.48
   3 -10  -9   52.69    3.01
  -3  10   9   55.33    2.78
  -3  10   9   52.28    2.93
  -3  10   9   54.53    2.94
   3 -10  -8   23.45    1.97
  -3  10   8   21.68    1.69
  -3  10   8   18.37    1.71
  -3  10   8   22.96    1.82
   3 -10  -7   52.16    2.91
  -3  10   7   46.76    2.35
  -3  10   7   52.37    2.82
  -3  10   7   49.19    2.55
  -3  10   6    0.97    0.49
   3 -10  -6    2.29    0.78
  -3  10   6    0.42    0.54
  -3  10   6    1.99    0.63
  -3  10   5   13.98    1.18
   3 -10  -5   13.24    1.47
  -3  10   5   13.20    1.42
   3 -10  -4   23.09    1.88
  -3  10   4   26.45    1.57
  -3  10   4   24.89    1.87
   3 -10  -3    7.61    1.13
  -3  10   3    7.59    0.88
  -3  10   3    8.68    1.15
  -3  10   2    7.07    0.80
   3 -10  -2    4.93    0.90
   3 -10  -1   -0.05    0.50
  -3  10   1    0.32    0.33
   3 -10   0   22.18    1.73
  -3  10   0   21.39    1.35
  -3  10   0   21.98    1.35
   3 -10   1    8.63    1.12
  -3  10  -1    7.49    0.82
  -3  10  -1    7.11    0.81
  -3  10  -1    8.19    0.42
   3 -10   2   14.30    1.38
  -3  10  -2   13.05    1.12
   3 -10   3    6.19    0.93
  -3  10  -3    6.11    0.83
   3 -10   4   32.75    2.06
  -3  10  -4   33.87    2.21
  -3  10  -4   31.66    1.90
   3 -10   5   12.14    1.21
   3 -10   5   11.13    1.24
  -3  10  -5   11.79    1.23
  -3  10  -5   10.52    1.29
   3 -10   6    1.50    0.57
  -3  10  -6    1.19    0.54
  -3  10  -6    0.53    0.56
   3 -10   6    0.60    0.43
  -3  10  -7    0.24    0.56
   3 -10   7   -0.46    0.51
   3 -10   7   -0.10    0.46
  -3  10  -7    0.10    0.56
  -3  10  -8   16.42    1.62
   3 -10   8   14.39    1.33
   3 -10   8   14.61    1.39
  -3  10  -8   17.78    1.72
  -3  10  -9    0.60    0.57
   3 -10   9    1.15    0.48
   3 -10   9    0.83    0.54
  -3  10  -9    1.43    0.63
  -3  10 -10    1.32    0.62
   3 -10  10    1.90    0.71
  -3  10 -10    1.34    0.77
  -3  10 -11    7.16    1.27
   3 -10  11    6.58    1.08
  -3  10 -11    4.67    0.97
   3 -10  12   -0.42    0.57
  -3  10 -12   -0.17    0.68
   3  -9 -14   21.49    1.93
  -3   9  14   15.94    1.72
   3  -9 -13    0.61    0.62
  -3   9  13   -0.13    0.57
   3  -9 -12    9.03    1.28
  -3   9  12   12.01    1.55
  -3   9  12    9.67    1.30
   3  -9 -12   12.39    1.56
   3  -9 -11   36.28    2.45
  -3   9  11   36.53    2.59
  -3   9  11   37.63    2.43
   3  -9 -11   40.30    2.71
   3  -9 -10   31.38    2.26
  -3   9  10   29.18    2.10
  -3   9  10   32.43    2.33
  -3   9   9   32.00    1.98
   3  -9  -9   31.71    2.21
  -3   9   9   33.01    2.19
  -3   9   9   33.31    2.25
   3  -9  -8   -0.09    0.56
  -3   9   8    0.58    0.47
  -3   9   8   -0.09    0.56
   3  -9  -7  257.26    7.04
  -3   9   7  259.49    6.35
  -3   9   7  252.01    6.84
   3  -9  -6   14.35    1.42
  -3   9   6   15.66    1.23
  -3   9   6   16.46    1.49
   3  -9  -6   13.79    0.97
  -3   9   5   18.81    1.29
   3  -9  -5   16.11    1.50
  -3   9   5   19.57    1.58
   3  -9  -5   18.22    1.09
   3  -9  -4  135.18    4.57
  -3   9   4  137.70    3.83
  -3   9   4  144.59    4.59
   3  -9  -4  137.40    3.56
   3  -9  -3  110.61    4.01
  -3   9   3  109.39    3.25
  -3   9   3  114.10    3.97
   3  -9  -3  112.38    3.12
  -3   9   2    0.34    0.33
   3  -9  -2    0.69    0.58
   3  -9  -1   39.41    2.22
  -3   9   1   37.41    1.69
  -3   9   1   40.30    1.74
   3  -9   0  162.53    4.96
  -3   9   0  161.17    4.12
  -3   9   0  171.49    4.29
  -3   9  -1   10.21    0.89
   3  -9   1    9.90    1.11
  -3   9  -1   10.71    0.96
   3  -9   2    3.25    0.69
  -3   9  -2    3.29    0.29
  -3   9  -2    2.99    0.57
   3  -9   3    3.38    0.66
  -3   9  -3    3.87    0.80
  -3   9  -3    4.70    0.27
  -3   9  -3    4.05    0.70
   3  -9   4  263.27    6.63
  -3   9  -4  272.81    6.96
  -3   9  -4  265.43    6.50
   3  -9   5    0.92    0.51
   3  -9   5    0.12    0.39
  -3   9  -5    0.65    0.47
  -3   9  -5    1.29    0.54
  -3   9  -6    6.18    0.90
   3  -9   6    6.94    0.90
   3  -9   6    6.74    0.96
  -3   9  -6    5.60    0.94
   3  -9   7   21.47    1.51
  -3   9  -7   27.86    1.92
  -3   9  -7   24.39    1.86
   3  -9   7   24.73    1.71
   3  -9   8   23.32    1.55
  -3   9  -8   22.02    1.79
  -3   9  -8   20.79    1.79
   3  -9   8   23.11    1.70
   3  -9   9   33.12    1.83
  -3   9  -9   32.22    2.28
  -3   9  -9   30.39    2.19
   3  -9   9   32.33    2.03
   3  -9  10   33.11    1.79
  -3   9 -10   30.98    2.36
  -3   9 -10   34.46    2.37
   3  -9  10   30.76    2.03
  -3   9 -11   13.28    1.61
  -3   9 -11   12.89    1.51
   3  -9  11   14.05    1.45
  -3   9 -12   15.54    1.78
  -3   9 -12   14.59    1.62
   3  -9  12   12.63    1.41
  -3   9 -13   28.96    2.36
   3  -9  13   28.38    2.13
   3  -9  14    7.89    1.22
  -3   8  15    2.42    0.80
   3  -8 -14    1.01    0.67
  -3   8  14    2.71    0.79
   3  -8 -13    6.92    1.12
  -3   8  13    4.60    1.07
  -3   8  13    6.55    1.10
   3  -8 -13    7.20    1.29
   3  -8 -12   12.38    1.39
  -3   8  12    7.66    1.33
  -3   8  12   10.08    1.30
   3  -8 -12   10.29    1.44
   3  -8 -11   -0.64    0.61
  -3   8  11   -0.02    0.55
  -3   8  11   -0.08    0.56
   3  -8 -11    0.09    0.57
   3  -8 -10    0.04    0.53
  -3   8  10   -0.28    0.53
   3  -8 -10   -0.27    0.52
  -3   8   9   32.06    1.93
   3  -8  -9   33.69    2.15
  -3   8   9   37.26    2.24
   3  -8  -9   35.46    1.75
  -3   8   8    2.12    0.57
   3  -8  -8    1.45    0.51
  -3   8   8    1.52    0.57
   3  -8  -8    2.16    0.49
   3  -8  -7   39.56    1.96
  -3   8   7   37.51    1.92
   3  -8  -7   34.47    2.13
  -3   8   7   41.08    2.25
   3  -8  -7   39.83    1.73
  -3   8   6  156.62    4.21
   3  -8  -6  152.54    4.79
  -3   8   6  152.16    4.68
   3  -8  -6  152.41    3.85
   3  -8  -5  123.56    4.16
  -3   8   5  124.63    3.53
  -3   8   5  123.27    4.08
   3  -8  -5  124.05    3.30
   3  -8  -4   26.66    1.76
  -3   8   4   24.88    1.35
  -3   8   4   26.78    1.72
   3  -8  -4   24.50    1.26
  -3   8   3    6.62    0.68
   3  -8  -3    6.58    0.90
  -3   8   3    6.61    0.88
   3  -8  -3    6.21    0.64
   3  -8  -2  495.21   10.53
  -3   8   2  512.71    9.47
   3  -8  -2  507.66    9.53
   3  -8  -1   29.54    1.81
  -3   8   1   30.67    1.40
  -3   8   1   32.89    1.51
   3  -8   0    0.25    0.43
  -3   8   0    1.62    0.38
  -3   8   0    1.28    0.38
   3  -8   1  324.54    7.46
  -3   8  -1  329.09    6.94
  -3   8  -2  321.36    7.28
   3  -8   2  293.10    7.03
  -3   8  -2  307.71    6.75
  -3   8  -3  185.25    5.00
   3  -8   3  169.65    4.78
  -3   8  -3  176.93    5.03
  -3   8  -3  185.07    3.55
  -3   8  -3  178.63    4.74
   3  -8   4   14.19    1.19
  -3   8  -4   16.65    1.29
  -3   8  -4   14.95    1.24
  -3   8  -4   15.12    0.70
  -3   8  -4   13.11    1.22
   3  -8   5  463.31    9.73
  -3   8  -5  489.39    8.41
  -3   8  -5  481.34    9.83
  -3   8  -5  481.50   10.08
  -3   8  -5  476.48   10.21
   3  -8   5  471.71    9.89
   3  -8   6  112.74    3.57
  -3   8  -6  116.91    3.61
  -3   8  -6  118.25    3.98
  -3   8  -6  116.62    3.98
   3  -8   6  117.22    3.78
   3  -8   7   32.38    1.72
  -3   8  -7   31.81    1.70
  -3   8  -7   35.45    2.12
  -3   8  -7   30.49    1.95
   3  -8   7   31.00    1.86
   3  -8   8  233.42    5.63
  -3   8  -8  236.32    6.58
  -3   8  -8  235.11    5.60
  -3   8  -8  236.34    6.43
   3  -8   8  230.74    6.07
   3  -8   9   45.37    1.99
  -3   8  -9   41.10    1.90
  -3   8  -9   46.04    2.64
  -3   8  -9   46.86    2.56
   3  -8   9   46.47    2.38
   3  -8  10   75.03    2.60
  -3   8 -10   76.90    3.63
  -3   8 -10   79.22    3.46
   3  -8  10   76.57    3.22
  -3   8 -11   69.55    3.56
  -3   8 -11   61.73    3.11
   3  -8  11   57.68    2.86
  -3   8 -12   15.15    1.75
  -3   8 -12   13.39    1.50
   3  -8  12   15.44    1.51
  -3   8 -13   19.68    2.05
  -3   8 -13   20.11    1.88
   3  -8  13   16.52    1.62
  -3   8 -14   30.81    2.40
   3  -8  14   27.42    2.10
   3  -8  15    9.95    1.40
  -3   7  15   35.37    2.41
  -3   7  14    7.56    1.32
  -3   7  14    5.56    1.06
   3  -7 -14    6.18    1.11
   3  -7 -13    2.23    0.74
  -3   7  13    3.67    0.96
  -3   7  13    3.30    0.87
   3  -7 -13    2.13    0.81
   3  -7 -12    2.48    0.74
  -3   7  12    2.20    0.78
  -3   7  12    2.08    0.68
   3  -7 -12    1.66    0.80
   3  -7 -11    6.20    0.97
  -3   7  11    5.21    0.92
   3  -7 -11    7.88    1.19
   3  -7 -10   13.68    1.34
  -3   7  10   13.35    1.35
   3  -7 -10   11.96    1.38
   3  -7  -9   35.79    2.12
  -3   7   9   33.77    2.05
  -3   7   8    6.72    0.86
   3  -7  -8    5.76    0.91
   3  -7  -8    4.86    0.72
  -3   7   8    6.09    0.88
   3  -7  -8    7.26    0.79
  -3   7   7   98.24    3.17
   3  -7  -7   99.52    3.19
   3  -7  -7   98.06    3.55
  -3   7   7   97.96    3.52
   3  -7  -7   97.11    2.95
   3  -7  -6   16.14    1.34
  -3   7   6   19.89    1.23
   3  -7  -6   16.99    1.17
  -3   7   6   18.28    1.39
   3  -7  -6   16.21    1.06
  -3   7   5    2.04    0.46
   3  -7  -5    3.34    0.52
   3  -7  -5    1.85    0.57
  -3   7   5    1.84    0.55
   3  -7  -5    1.38    0.39
  -3   7   4   -0.01    0.27
   3  -7  -4    0.01    0.38
  -3   7   4    0.18    0.41
   3  -7  -4    0.18    0.27
   3  -7  -3  121.42    3.83
  -3   7   3  133.58    4.02
  -3   7   3  116.35    3.06
  -3   7   3  119.97    3.77
   3  -7  -3  132.55    3.95
   3  -7  -3  124.54    3.23
   3  -7  -2   94.47    3.28
  -3   7   2  102.65    3.44
  -3   7   2   96.45    2.59
   3  -7  -2  104.25    3.38
   3  -7  -2   99.37    2.79
   3  -7  -1   56.36    2.37
  -3   7   1   56.71    2.42
  -3   7   1   53.74    1.75
   3  -7  -1   57.40    2.38
  -3   7   1   52.07    1.92
   3  -7  -1   53.94    1.96
  -3   7   0   34.80    1.34
   3  -7   0   33.71    1.79
  -3   7   0   35.96    1.86
   3  -7   0   35.58    1.83
  -3   7   0   32.82    1.51
   3  -7   1  138.91    4.00
  -3   7  -1  146.32    4.13
   3  -7   1  142.73    4.09
  -3   7  -1  139.71    3.71
   3  -7   2   64.67    2.49
  -3   7  -2   68.65    2.58
   3  -7   2   67.63    2.60
  -3   7  -2   64.77    2.55
  -3   7  -2   66.25    2.38
   3  -7   3   75.63    2.70
  -3   7  -3   80.95    2.82
  -3   7  -3   77.93    1.98
  -3   7  -3   76.35    2.70
  -3   7  -3   79.35    2.86
   3  -7   3   75.95    2.82
   3  -7   4   50.02    2.10
  -3   7  -4   54.13    2.22
  -3   7  -4   52.47    1.57
  -3   7  -4   52.82    2.27
  -3   7  -4   51.56    2.27
   3  -7   4   51.19    2.25
   3  -7   4   49.15    2.17
  -3   7  -5   -0.09    0.21
  -3   7  -5   -0.45    0.41
  -3   7  -5    0.49    0.34
   3  -7   5   -0.48    0.36
   3  -7   5   -0.23    0.36
   3  -7   5    0.30    0.36
  -3   7  -5    0.02    0.42
   3  -7   6   14.21    1.05
  -3   7  -6   14.25    1.07
  -3   7  -6   15.45    1.31
  -3   7  -6   14.82    0.90
  -3   7  -6   15.56    1.27
   3  -7   6   14.72    1.19
   3  -7   7  125.13    3.48
  -3   7  -7  124.38    3.48
  -3   7  -7  119.18    4.11
  -3   7  -7  127.97    4.07
   3  -7   7  123.32    3.87
  -3   7  -8    0.80    0.34
  -3   7  -8    0.23    0.49
   3  -7   8    0.44    0.31
   3  -7   8    0.04    0.39
   3  -7   8    1.40    0.45
  -3   7  -8    0.89    0.49
   3  -7   9   50.87    1.93
  -3   7  -9   46.57    2.62
  -3   7  -9   52.34    1.93
  -3   7  -9   50.27    2.51
   3  -7   9   51.74    2.45
   3  -7  10   54.14    1.93
  -3   7 -10   59.13    3.04
  -3   7 -10   55.15    2.72
   3  -7  10   54.10    2.61
   3  -7  11   10.52    1.22
  -3   7 -11   13.58    1.38
  -3   7 -12   19.79    1.73
   3  -7  12   15.78    1.51
  -3   7 -13   36.07    2.35
   3  -7  13   31.88    2.22
   3  -7  14   18.30    1.73
  -3   7 -14   15.09    1.64
   3  -7  15   17.82    1.78
  -3   7 -15   15.35    1.69
  -3   7 -16   14.22    1.78
  -3   6  16    1.67    0.68
  -3   6  15   22.93    1.91
  -3   6  14   79.58    4.09
  -3   6  14   66.48    3.24
   3  -6 -14   68.42    3.60
  -3   6  13   54.72    3.29
  -3   6  13   48.88    2.67
   3  -6 -13   52.88    3.03
   3  -6 -12   29.20    1.91
  -3   6  12   26.63    1.91
   3  -6 -12   32.35    2.27
   3  -6 -11   21.11    1.61
  -3   6  11   21.83    1.67
   3  -6 -11   26.62    1.98
   3  -6 -10  127.34    4.17
  -3   6  10  129.49    4.25
   3  -6 -10  136.91    4.61
   3  -6  -9  152.79    4.61
  -3   6   9  158.87    4.70
   3  -6  -9  160.10    4.94
   3  -6  -8  102.71    3.54
   3  -6  -8  108.01    3.38
  -3   6   8  104.44    3.57
   3  -6  -7  117.78    3.77
   3  -6  -7  115.12    3.39
  -3   6   7  121.27    3.45
  -3   6   7  112.93    3.69
  -3   6   6  140.02    4.11
  -3   6   6  123.70    3.41
   3  -6  -6  124.43    3.42
   3  -6  -6  124.09    3.86
  -3   6   6  124.85    3.83
   3  -6  -6  128.47    3.41
  -3   6   5  100.50    2.83
  -3   6   5  104.29    3.43
   3  -6  -5  103.67    2.87
   3  -6  -5  100.11    3.33
  -3   6   5  100.68    3.30
   3  -6  -5  104.99    2.90
   3  -6  -4  100.20    2.71
  -3   6   4  100.89    2.71
  -3   6   4  113.99    3.50
   3  -6  -4  101.80    3.33
  -3   6   4  105.53    3.33
   3  -6  -4  113.08    2.94
  -3   6   3  150.01    3.42
  -3   6   3  167.86    4.38
   3  -6  -3  147.09    4.17
  -3   6   3  154.23    4.19
   3  -6  -3  156.00    3.69
  -3   6   2   26.72    1.09
  -3   6   2   31.89    1.66
   3  -6  -2   30.47    1.62
  -3   6   2   29.76    1.58
   3  -6  -2   29.94    1.59
   3  -6  -2   29.54    1.33
  -3   6   1  354.02    7.41
   3  -6  -1  348.30    7.30
  -3   6   1  339.91    6.26
   3  -6  -1  350.72    7.32
  -3   6   1  334.70    6.75
   3  -6  -1  341.43    6.79
  -3   6   0   28.60    1.07
   3  -6   0   29.53    1.54
  -3   6   0   30.06    1.57
  -3   6   0   26.26    1.29
   3  -6   0   28.03    1.34
   3  -6   0   28.17    1.50
  -3   6  -1    0.89    0.56
  -3   6  -1    1.00    0.40
   3  -6   1    0.40    0.39
   3  -6   2  209.22    4.96
  -3   6  -2  217.97    5.06
   3  -6   2  212.27    5.09
  -3   6  -2  206.42    5.06
  -3   6  -2  225.18    5.03
  -3   6  -3   22.31    1.28
   3  -6   3   23.69    1.30
  -3   6  -3   22.52    1.34
  -3   6  -3   24.39    1.39
   3  -6   3   21.86    1.32
  -3   6  -4   16.18    1.06
   3  -6   4   15.72    1.05
  -3   6  -4   15.67    0.83
  -3   6  -4   14.55    1.13
  -3   6  -4   16.66    1.18
   3  -6   4   14.92    1.11
   3  -6   4   14.63    1.10
   3  -6   5  107.52    3.03
  -3   6  -5  108.81    3.08
  -3   6  -5  110.39    3.51
  -3   6  -5  110.97    2.81
  -3   6  -5  111.29    3.40
   3  -6   5  111.77    3.38
   3  -6   5  110.42    3.37
   3  -6   6  439.41    8.29
  -3   6  -6  432.49    9.18
  -3   6  -6  417.44    8.14
  -3   6  -6  431.95    8.29
   3  -6   6  449.45    8.95
  -3   6  -6  427.88    8.91
   3  -6   6  428.48    8.87
  -3   6  -7    6.17    0.89
  -3   6  -7    6.52    0.69
  -3   6  -7    6.84    0.66
   3  -6   7    5.69    0.59
  -3   6  -7    7.04    0.84
   3  -6   7    5.53    0.75
   3  -6   7    7.01    0.85
   3  -6   8   48.60    1.75
  -3   6  -8   50.53    1.78
  -3   6  -8   54.53    2.61
  -3   6  -8   51.21    2.33
   3  -6   8   52.51    2.11
   3  -6   8   52.16    2.34
   3  -6   9   78.63    2.24
  -3   6  -9   78.00    2.20
  -3   6  -9   75.63    2.99
   3  -6   9   72.92    2.94
   3  -6   9   75.18    2.70
   3  -6  10  431.00    7.57
  -3   6 -10  396.43    9.06
   3  -6  10  403.05    9.12
   3  -6  10  398.26    8.56
  -3   6 -11    7.05    0.98
   3  -6  11    7.50    1.01
  -3   6 -12   11.50    1.27
   3  -6  12   10.43    1.22
  -3   6 -13   67.92    3.18
   3  -6  13   64.24    3.12
  -3   6 -14   19.93    1.78
   3  -6  14   18.31    1.74
   3  -6  15    1.48    0.73
  -3   6 -15    1.92    0.76
  -3   6 -16    0.80    0.68
  -3   5  16   22.60    1.94
  -3   5  15    1.44    0.72
  -3   5  15    0.40    0.56
   3  -5 -15    1.54    0.59
  -3   5  14    1.81    0.85
  -3   5  14    1.47    0.65
   3  -5 -14    3.17    0.85
  -3   5  13   10.77    1.23
   3  -5 -13   11.17    1.38
  -3   5  12    1.22    0.60
   3  -5 -12    2.92    0.75
   3  -5 -11   28.03    1.75
  -3   5  11   28.54    1.84
   3  -5 -11   28.71    2.01
   3  -5 -10   31.78    1.81
  -3   5  10   28.86    1.79
   3  -5 -10   28.74    1.93
   3  -5  -9   96.55    3.26
   3  -5  -9   98.22    3.35
  -3   5   9   99.55    3.43
   3  -5  -9   99.56    3.62
   3  -5  -8   21.55    1.36
   3  -5  -8   24.91    1.54
  -3   5   8   25.27    1.59
  -3   5   8   24.35    1.55
   3  -5  -8   23.69    1.60
   3  -5  -7  158.03    4.39
  -3   5   7  172.27    4.59
   3  -5  -7  161.68    4.13
  -3   5   7  163.29    4.46
  -3   5   6  123.97    3.66
   3  -5  -6  110.29    3.44
   3  -5  -6  111.46    3.08
  -3   5   6  115.28    3.50
  -3   5   5  138.09    3.90
  -3   5   5  130.97    3.25
   3  -5  -5  132.68    3.78
   3  -5  -5  134.68    3.28
  -3   5   5  133.00    3.77
  -3   5   4  167.63    4.27
   3  -5  -4  149.19    3.46
   3  -5  -4  157.95    4.14
  -3   5   4  156.10    3.49
  -3   5   4  159.04    4.12
   3  -5  -4  160.56    3.76
   3  -5  -3  295.40    5.57
  -3   5   3  316.84    6.60
  -3   5   3  293.87    5.56
   3  -5  -3  306.41    6.49
  -3   5   3  301.74    6.45
   3  -5  -3  296.83    5.99
   3  -5  -2  170.86    4.26
  -3   5   2  180.21    4.37
  -3   5   2  171.21    3.41
  -3   5   2  167.72    4.23
   3  -5  -2  171.34    3.90
   3  -5  -1  151.16    3.85
  -3   5   1  148.76    2.98
  -3   5   1  156.51    3.93
   3  -5  -1  157.93    3.90
  -3   5   1  154.26    3.60
   3  -5  -1  147.31    3.56
  -3   5   0  431.67    7.46
  -3   5   0  448.79    8.56
   3  -5   0  447.08    8.50
   3  -5   0  448.26    8.51
  -3   5   0  432.43    8.23
   3  -5   0  443.80    8.29
   3  -5   1  148.39    3.70
  -3   5  -1  149.93    3.74
  -3   5  -1  149.69    3.66
   3  -5   1  148.99    3.68
   3  -5   1  151.45    3.78
   3  -5   2    7.44    0.72
  -3   5  -2    6.27    0.63
  -3   5  -2    6.11    0.67
  -3   5  -2    6.58    0.71
   3  -5   2    7.24    0.71
   3  -5   3   40.87    1.60
  -3   5  -3   41.24    1.63
  -3   5  -3   41.90    1.78
   3  -5   3   40.82    1.69
  -3   5  -3   41.94    1.73
   3  -5   4  271.39    5.58
  -3   5  -4  276.42    5.65
  -3   5  -4  281.40    5.46
  -3   5  -4  281.73    6.17
   3  -5   4  268.94    5.89
  -3   5  -4  273.85    5.92
   3  -5   4  274.93    6.02
   3  -5   5   73.29    2.17
  -3   5  -5   74.35    2.22
  -3   5  -5   74.39    2.22
  -3   5  -5   72.28    2.67
   3  -5   5   76.46    2.49
  -3   5  -5   75.54    2.51
   3  -5   5   70.09    2.51
   3  -5   6   52.45    1.70
  -3   5  -6   53.31    2.31
  -3   5  -6   51.25    1.89
  -3   5  -6   50.36    1.69
   3  -5   6   52.07    2.06
  -3   5  -6   51.51    2.06
   3  -5   6   51.21    2.13
   3  -5   7  108.17    2.63
  -3   5  -7  103.23    3.09
  -3   5  -7  105.67    2.63
  -3   5  -7  106.22    3.58
   3  -5   7  102.51    3.22
  -3   5  -7  106.55    3.26
   3  -5   7  105.91    3.36
   3  -5   7  109.89    2.99
   3  -5   8   74.09    1.99
  -3   5  -8   75.90    2.00
  -3   5  -8   75.33    2.71
   3  -5   8   75.79    2.71
   3  -5   8   72.25    2.77
   3  -5   8   73.34    2.41
  -3   5  -9    1.01    0.22
   3  -5   9    0.56    0.20
   3  -5   9    0.69    0.44
   3  -5   9    0.42    0.30
  -3   5  -9    0.72    0.39
   3  -5   9    0.93    0.42
   3  -5  10   37.62    1.03
  -3   5 -10   36.22    1.96
  -3   5 -10   39.54    1.88
   3  -5  10   35.21    2.03
   3  -5  10   37.15    1.77
  -3   5 -11  219.78    5.79
  -3   5 -11  212.71    5.37
   3  -5  11  222.90    6.00
   3  -5  11  213.89    5.32
  -3   5 -12   68.71    2.97
   3  -5  12   70.14    3.14
   3  -5  13    2.18    0.71
  -3   5 -13    2.86    0.73
  -3   5 -14   16.57    1.57
   3  -5  14   18.72    1.75
  -3   5 -15  171.12    5.55
   3  -5  15  171.75    5.81
  -3   5 -16    1.23    0.63
  -3   4  17    1.17    0.60
  -3   4  16   17.39    1.68
   3  -4 -16   20.29    1.95
  -3   4  15   16.03    1.86
  -3   4  15   14.23    1.48
   3  -4 -15   14.47    1.64
  -3   4  14    6.47    1.05
   3  -4 -14    4.74    1.04
  -3   4  13   98.89    3.76
   3  -4 -13  100.12    4.05
  -3   4  12    7.27    1.00
   3  -4 -12    8.05    1.11
  -3   4  11  120.02    3.96
   3  -4 -11  117.69    4.18
  -3   4  10    3.06    0.62
  -3   4  10    3.87    0.74
   3  -4 -10    3.02    0.70
  -3   4   9   13.40    1.13
   3  -4  -9   13.24    1.10
   3  -4  -9   13.95    1.12
  -3   4   9   11.75    1.10
   3  -4  -9   12.33    1.17
   3  -4  -8  126.72    3.62
  -3   4   8  130.88    3.84
   3  -4  -8  130.93    3.76
   3  -4  -8  134.45    3.90
  -3   4   8  125.35    3.78
   3  -4  -8  122.09    3.90
  -3   4   7    9.85    0.94
   3  -4  -7    9.93    0.85
   3  -4  -7    9.90    0.91
   3  -4  -7   10.80    0.96
  -3   4   7   11.29    0.98
   3  -4  -7    9.61    0.95
   3  -4  -6   13.59    0.91
  -3   4   6   16.81    1.15
   3  -4  -6   15.48    1.09
   3  -4  -6   17.89    1.22
  -3   4   6   14.88    1.09
   3  -4  -6   14.52    1.14
  -3   4   5   75.78    2.57
   3  -4  -5   75.42    2.51
   3  -4  -5   70.65    2.10
   3  -4  -5   77.52    2.55
  -3   4   5   71.48    2.47
  -3   4   4   77.16    2.53
   3  -4  -4   78.55    2.51
   3  -4  -4   74.85    2.01
   3  -4  -4   77.55    2.50
  -3   4   4   74.37    2.46
   3  -4  -3    5.56    0.66
  -3   4   3    4.60    0.62
  -3   4   3    5.14    0.41
   3  -4  -3    4.95    0.40
  -3   4   3    7.14    0.71
   3  -4  -3    4.88    0.54
   3  -4  -2    5.46    0.36
  -3   4   2    6.04    0.66
   3  -4  -2    5.68    0.64
  -3   4   2    5.35    0.36
  -3   4   2    5.56    0.65
   3  -4  -2    5.28    0.54
  -3   4   1   92.06    1.84
  -3   4   1   98.08    2.74
   3  -4  -1   93.31    2.66
  -3   4   1   97.98    2.70
  -3   4   1   99.32    2.58
   3  -4  -1   94.45    2.53
  -3   4   0    9.94    0.77
   3  -4   0   10.50    0.80
  -3   4   0    9.50    0.39
   3  -4   0    8.68    0.72
  -3   4   0    9.81    0.76
   3  -4   0    8.30    0.69
  -3   4  -1   50.17    1.74
   3  -4   1   53.46    1.76
   3  -4   1   47.79    1.70
  -3   4  -1   50.10    1.77
   3  -4   1   48.43    1.76
   3  -4   2   27.62    1.21
  -3   4  -2   29.13    1.23
  -3   4  -2   28.45    1.34
   3  -4   2   27.68    1.32
   3  -4   2   28.04    1.24
  -3   4  -2   29.62    1.27
  -3   4  -3    0.26    0.35
   3  -4   3    0.63    0.28
  -3   4  -3    0.56    0.25
   3  -4   3    0.37    0.33
  -3   4  -3    0.64    0.31
   3  -4   3    0.47    0.25
  -3   4  -4   71.16    2.02
   3  -4   4   74.06    2.02
  -3   4  -4   71.52    2.12
  -3   4  -4   72.53    2.48
   3  -4   4   77.27    2.27
  -3   4  -4   77.11    2.29
   3  -4   4   78.94    2.47
  -3   4  -5  173.88    3.65
   3  -4   5  177.62    3.63
  -3   4  -5  175.90    4.02
  -3   4  -5  169.05    4.40
  -3   4  -5  177.05    4.08
   3  -4   5  169.99    4.02
   3  -4   5  161.98    4.21
   3  -4   6   78.15    1.96
  -3   4  -6   78.67    1.98
  -3   4  -6   80.06    2.50
  -3   4  -6   76.30    2.77
  -3   4  -6   79.36    2.46
   3  -4   6   76.44    2.41
   3  -4   6   81.92    2.70
   3  -4   6   75.41    2.16
   3  -4   7   25.51    0.92
  -3   4  -7   24.85    1.40
  -3   4  -7   26.85    0.93
   3  -4   7   26.50    1.36
  -3   4  -7   26.32    1.37
  -3   4  -7   26.45    1.52
   3  -4   7   25.59    1.49
   3  -4   7   27.43    1.22
   3  -4   8  115.82    2.31
  -3   4  -8  116.44    3.52
  -3   4  -8  113.97    2.30
  -3   4  -8  110.17    3.45
  -3   4  -8  114.64    3.32
   3  -4   8  111.02    3.29
  -3   4  -8  121.75    3.66
   3  -4   8  109.63    3.53
   3  -4   8  109.01    2.96
  -3   4  -9   52.55    2.33
  -3   4  -9   49.86    1.94
  -3   4  -9   52.02    2.14
   3  -4   9   48.52    1.87
   3  -4   9   49.37    2.29
  -3   4 -10    0.61    0.35
   3  -4  10    0.32    0.29
   3  -4  10   -0.17    0.46
  -3   4 -10    0.45    0.38
  -3   4 -11  131.80    3.69
  -3   4 -11  137.36    4.10
   3  -4  11  128.97    3.70
   3  -4  11  135.97    4.38
  -3   4 -12   89.41    3.30
  -3   4 -12   88.97    2.96
   3  -4  12   90.37    3.06
   3  -4  12   93.95    3.64
  -3   4 -13   15.06    1.34
   3  -4  13   12.53    1.35
   3  -4  14   10.97    1.33
  -3   4 -14    9.59    1.12
  -3   4 -15   22.42    1.80
  -3   4 -16   27.75    2.07
  -3   3  17   12.50    1.47
  -3   3  16    8.49    1.21
   3  -3 -16    9.67    1.40
  -3   3  15   44.84    3.01
  -3   3  15   36.68    2.33
   3  -3 -15   41.17    2.66
  -3   3  14    0.80    0.57
   3  -3 -14    0.47    0.58
  -3   3  13    1.94    0.67
   3  -3 -13    1.48    0.67
  -3   3  12   21.54    1.49
  -3   3  12   21.34    1.59
   3  -3 -12   25.80    1.87
  -3   3  11   46.25    2.13
  -3   3  11   45.43    2.26
   3  -3 -11   43.62    2.34
  -3   3  10   67.75    2.58
  -3   3  10   67.22    2.70
   3  -3 -10   65.83    2.82
  -3   3   9   43.67    1.97
   3  -3  -9   47.90    2.11
   3  -3  -9   45.95    2.11
  -3   3   9   44.59    2.08
   3  -3  -9   45.04    2.20
  -3   3   8  272.03    6.14
   3  -3  -8  281.94    6.15
  -3   3   8  263.02    6.19
   3  -3  -8  289.62    6.38
   3  -3  -8  262.83    6.35
  -3   3   7   31.39    1.58
   3  -3  -7   34.33    1.54
   3  -3  -7   32.55    1.58
   3  -3  -7   33.85    1.66
  -3   3   7   31.90    1.62
   3  -3  -7   33.32    1.72
   3  -3  -6  101.34    2.96
   3  -3  -6   97.55    2.72
  -3   3   6  100.52    2.96
   3  -3  -6  102.37    3.04
  -3   3   6  100.59    3.01
   3  -3  -6   99.65    3.07
   3  -3  -5    6.00    0.54
  -3   3   5    7.07    0.71
   3  -3  -5    6.60    0.70
  -3   3   5    6.37    0.70
   3  -3  -5    6.67    0.70
   3  -3  -5    6.64    0.74
   3  -3  -4  120.07    3.21
   3  -3  -4  120.24    2.73
  -3   3   4  122.67    3.25
   3  -3  -4  125.69    3.28
  -3   3   4  122.99    3.24
   3  -3  -4  130.66    3.30
   3  -3  -3    0.22    0.16
  -3   3   3    0.20    0.29
   3  -3  -3    0.23    0.34
  -3   3   3    0.69    0.38
   3  -3  -3    0.22    0.27
   3  -3  -2   -0.14    0.40
  -3   3   2    0.48    0.29
   3  -3  -2    0.00    0.12
  -3   3   2    0.10    0.33
   3  -3  -2    0.21    0.26
   3  -3  -2    0.35    0.27
   3  -3  -1   97.22    2.57
  -3   3   1  102.54    2.62
  -3   3   1   97.84    2.57
  -3   3   1   95.49    2.52
   3  -3  -1   97.97    2.52
  -3   3   0   47.75    1.58
   3  -3   0   48.63    1.60
  -3   3   0   45.71    1.57
  -3   3   0   46.72    1.61
   3  -3   0   44.56    1.57
  -3   3  -1    3.95    0.24
   3  -3   1    4.33    0.48
  -3   3  -1    5.41    0.51
  -3   3  -1    5.59    0.61
   3  -3   1    4.51    0.53
   3  -3   1    5.87    0.53
  -3   3  -2   85.65    2.17
   3  -3   2   84.30    2.14
   3  -3   2   83.14    2.41
  -3   3  -2   84.42    2.42
   3  -3   2   81.62    2.14
  -3   3  -2   83.09    2.15
   3  -3   2   86.43    2.42
  -3   3  -3   50.80    1.46
  -3   3  -3   50.80    1.50
   3  -3   3   52.41    1.50
  -3   3  -3   51.11    1.87
  -3   3  -3   49.49    1.57
   3  -3   3   50.36    1.57
   3  -3   3   55.18    1.88
  -3   3  -4    8.20    0.61
   3  -3   4    8.09    0.51
  -3   3  -4    7.57    0.50
  -3   3  -4    9.33    0.83
  -3   3  -4    7.55    0.64
   3  -3   4    8.73    0.63
  -3   3  -4    8.99    0.65
   3  -3   4    8.32    0.76
  -3   3  -5   18.71    1.00
   3  -3   5   18.89    0.74
  -3   3  -5   19.44    0.76
  -3   3  -5   20.64    1.12
  -3   3  -5   20.69    1.24
  -3   3  -5   17.73    0.95
   3  -3   5   18.27    0.94
  -3   3  -5   19.88    1.17
   3  -3   5   19.00    1.13
   3  -3   5   18.34    0.80
  -3   3  -6    0.04    0.29
  -3   3  -6   -0.43    0.46
  -3   3  -6    0.04    0.13
  -3   3  -6    0.27    0.25
   3  -3   6    0.10    0.12
  -3   3  -6   -0.13    0.23
   3  -3   6    0.12    0.35
   3  -3   6    0.34    0.27
  -3   3  -6    0.50    0.38
   3  -3   6    0.15    0.17
  -3   3  -7    0.06    0.08
  -3   3  -7   -0.26    0.36
  -3   3  -7    0.45    0.36
   3  -3   7    0.31    0.45
  -3   3  -7   -0.02    0.34
  -3   3  -7    0.31    0.31
   3  -3   7    0.31    0.27
   3  -3   7    0.00    0.17
  -3   3  -8   43.21    1.98
  -3   3  -8   42.95    2.02
  -3   3  -8   42.57    1.57
  -3   3  -8   44.32    1.78
   3  -3   8   44.19    1.58
   3  -3   8   41.56    2.01
  -3   3  -8   47.61    2.11
  -3   3  -9    5.83    0.77
   3  -3   9    6.15    0.80
  -3   3  -9    6.18    0.60
   3  -3   9    5.57    0.81
   3  -3   9    5.97    0.61
  -3   3  -9    5.36    0.66
   3  -3  10   39.46    2.06
  -3   3 -10   43.01    1.92
  -3   3 -10   40.21    1.62
   3  -3  10   35.82    1.60
   3  -3  10   39.17    2.11
   3  -3  11   15.94    1.40
  -3   3 -11   19.38    1.33
  -3   3 -11   17.68    1.09
   3  -3  11   16.02    1.10
   3  -3  11   19.79    1.53
   3  -3  12    0.30    0.46
  -3   3 -12    0.18    0.31
   3  -3  12    0.17    0.51
   3  -3  12    0.07    0.30
  -3   3 -12    0.55    0.36
   3  -3  13   53.49    2.80
  -3   3 -13   53.79    2.49
   3  -3  13   57.24    2.89
   3  -3  14   20.26    1.80
  -3   3 -14   20.47    1.57
   3  -3  15   55.58    3.16
  -3   3 -15   62.88    2.92
   3  -3  16    5.05    1.09
  -3   3 -16    4.36    0.87
  -3   2  17   18.45    1.80
  -3   2  16   25.35    2.35
  -3   2  16   21.92    1.88
   3  -2 -16   26.07    2.16
  -3   2  15   13.84    1.72
  -3   2  15    8.08    1.12
   3  -2 -15   11.09    1.40
  -3   2  14   31.86    2.07
   3  -2 -14   34.58    2.33
  -3   2  13   93.20    3.24
  -3   2  13   95.97    3.63
   3  -2 -13   93.72    3.79
  -3   2  12   99.66    3.28
  -3   2  12  101.43    3.65
   3  -2 -12  101.10    3.83
  -3   2  11    3.70    0.61
  -3   2  11    5.50    0.85
   3  -2 -11    4.10    0.74
  -3   2  10   56.53    2.24
  -3   2  10   52.84    2.34
   3  -2 -10   54.01    2.48
   3  -2  -9   70.92    2.67
  -3   2   9   68.78    2.47
  -3   2   9   69.60    2.66
   3  -2  -9   78.90    2.80
   3  -2  -9   70.46    2.76
   3  -2  -8   85.94    2.80
  -3   2   8   83.67    2.69
  -3   2   8   80.86    2.79
   3  -2  -8   90.15    2.92
   3  -2  -8   79.69    2.87
  -3   2   7   88.69    2.74
   3  -2  -7   89.39    2.72
   3  -2  -7   96.02    2.93
  -3   2   7   86.80    2.81
   3  -2  -7   92.25    2.96
  -3   2   6  271.51    5.91
   3  -2  -6  277.05    5.73
   3  -2  -6  287.14    6.09
  -3   2   6  285.97    6.05
   3  -2  -6  289.90    6.13
   3  -2  -5   36.30    1.36
  -3   2   5   34.46    1.50
   3  -2  -5   36.32    1.56
  -3   2   5   36.06    1.55
   3  -2  -5   35.75    1.57
  -3   2   4    1.18    0.36
  -3   2   4    0.67    0.36
   3  -2  -4    0.87    0.34
   3  -2  -4    0.92    0.38
  -3   2   3  333.11    6.40
   3  -2  -3  316.22    6.34
  -3   2   3  332.98    6.38
   3  -2  -3  332.91    6.32
   3  -2  -2  226.07    4.62
  -3   2   2  223.47    4.60
   3  -2  -2  221.46    4.56
  -3   2   2  220.51    4.58
   3  -2  -2  226.76    4.48
   3  -2  -1   75.06    2.03
  -3   2   1   73.71    2.02
  -3   2   1   69.88    1.96
   3  -2  -1   69.78    1.94
   3  -2  -1   73.44    2.03
   3  -2   0  201.52    4.10
  -3   2   0  208.18    4.14
  -3   2   0  203.26    4.06
   3  -2   0  200.40    4.04
  -3   2   0  207.72    4.25
   3  -2   0  203.76    4.22
   3  -2   1  196.69    3.89
  -3   2  -1  199.18    3.90
  -3   2  -1  193.43    3.36
  -3   2  -1  195.39    4.12
   3  -2   1  194.33    4.12
   3  -2   1  191.94    3.72
  -3   2  -1  200.75    3.86
  -3   2  -2    2.36    0.44
   3  -2   2    1.53    0.36
  -3   2  -2    2.04    0.25
  -3   2  -2    2.29    0.31
   3  -2   2    2.56    0.32
   3  -2   2    3.05    0.47
   3  -2   2    1.85    0.26
  -3   2  -3   47.59    1.38
  -3   2  -3   46.01    1.28
  -3   2  -3   43.65    1.66
  -3   2  -3   47.29    1.30
   3  -2   3   45.98    1.29
  -3   2  -3   45.52    1.64
   3  -2   3   46.56    1.67
  -3   2  -4    1.82    0.45
  -3   2  -4    1.04    0.36
  -3   2  -4    1.29    0.21
  -3   2  -4    1.01    0.28
   3  -2   4    1.29    0.18
  -3   2  -4    1.90    0.41
   3  -2   4    1.83    0.46
  -3   2  -4    1.60    0.27
   3  -2   4    1.29    0.24
  -3   2  -5   56.49    1.88
  -3   2  -5   58.14    1.30
  -3   2  -5   58.11    2.04
  -3   2  -5   60.31    2.16
   3  -2   5   58.10    1.65
  -3   2  -5   58.36    1.66
   3  -2   5   63.69    2.15
  -3   2  -5   61.49    2.11
   3  -2   5   58.50    1.43
  -3   2  -6    2.02    0.49
  -3   2  -6    1.90    0.46
  -3   2  -6    1.73    0.38
   3  -2   6    2.14    0.52
   3  -2   6    1.92    0.27
  -3   2  -6    1.66    0.34
  -3   2  -6    2.83    0.52
  -3   2  -7    1.33    0.39
  -3   2  -7    1.16    0.40
  -3   2  -7    1.48    0.27
   3  -2   7    2.28    0.49
  -3   2  -7    1.62    0.41
   3  -2   7    1.08    0.23
  -3   2  -7    1.32    0.32
  -3   2  -8    0.47    0.34
   3  -2   8    0.99    0.41
  -3   2  -8    0.57    0.37
  -3   2  -8    0.65    0.21
  -3   2  -8    0.72    0.39
   3  -2   8    0.46    0.22
  -3   2  -8    0.34    0.28
   3  -2   8    0.42    0.42
  -3   2  -9    7.98    0.86
  -3   2  -9    6.52    0.87
   3  -2   9    6.13    0.78
  -3   2  -9    5.97    0.52
   3  -2   9    5.47    0.56
  -3   2  -9    6.36    0.67
   3  -2   9    6.29    0.86
   3  -2  10    3.33    0.66
  -3   2 -10    4.01    0.46
  -3   2 -10    3.81    0.58
   3  -2  10    4.07    0.52
   3  -2  10    3.93    0.76
   3  -2  11    5.74    0.89
  -3   2 -11    6.40    0.60
   3  -2  11    5.91    0.89
  -3   2 -11    6.73    0.76
   3  -2  12    0.46    0.46
  -3   2 -12    0.36    0.31
   3  -2  12    0.40    0.60
  -3   2 -12   -0.28    0.35
   3  -2  13    7.39    1.12
  -3   2 -13    6.42    0.87
   3  -2  14    8.54    1.26
  -3   2 -14    5.62    0.87
   3  -2  15   12.19    1.51
  -3   2 -15   15.17    1.39
   3  -2  16    4.38    1.08
  -3   2 -16    3.41    0.82
  -3   1  17    3.72    0.91
  -3   1  16   10.39    1.53
  -3   1  16    6.95    1.13
   3  -1 -16    9.49    1.40
   3  -1 -16    7.63    1.22
  -3   1  15    8.68    1.37
  -3   1  15    9.58    1.20
   3  -1 -15    8.42    1.25
  -3   1  14    6.51    0.98
   3  -1 -14    6.24    1.08
  -3   1  13   25.25    1.55
  -3   1  13   27.99    1.88
   3  -1 -13   29.96    2.03
  -3   1  12  111.42    3.41
  -3   1  12  104.79    3.70
   3  -1 -12   99.73    3.80
  -3   1  11    8.28    0.82
  -3   1  11    6.95    0.89
   3  -1 -11    7.66    0.88
   3  -1 -11    9.53    1.10
  -3   1  10    0.19    0.27
  -3   1  10    1.16    0.52
   3  -1 -10    1.47    0.53
   3  -1 -10    0.62    0.30
  -3   1   9  174.76    4.35
  -3   1   9  167.19    4.57
   3  -1  -9  178.92    4.67
   3  -1  -9  168.98    4.71
  -3   1   9  176.71    4.79
  -3   1   8   88.61    2.74
  -3   1   8   88.74    2.95
   3  -1  -8  100.45    3.09
   3  -1  -8   89.35    3.03
  -3   1   8   97.05    3.14
  -3   1   7  176.93    4.21
  -3   1   7  173.58    4.40
   3  -1  -7  180.71    4.46
   3  -1  -7  179.18    4.50
  -3   1   7  183.79    4.58
  -3   1   6  105.97    2.91
  -3   1   6  106.05    3.05
   3  -1  -6  113.03    3.12
  -3   1   6  109.84    3.14
   3  -1  -6  107.43    3.09
  -3   1   5  165.02    3.88
  -3   1   5  165.64    3.99
   3  -1  -5  172.34    4.04
   3  -1  -5  167.00    4.01
  -3   1   5  183.68    4.14
  -3   1   4   76.20    2.23
  -3   1   4   78.13    2.29
   3  -1  -4   78.61    2.28
  -3   1   4   77.57    2.26
   3  -1  -4   75.98    2.25
  -3   1   3   27.32    1.17
  -3   1   3   24.87    1.15
   3  -1  -3   26.32    1.15
   3  -1  -3   25.65    1.13
  -3   1   3   26.47    1.12
  -3   1   2  184.29    3.80
   3  -1  -2  183.55    3.80
  -3   1   2  175.75    3.66
   3  -1  -2  179.44    3.68
   3  -1  -1 1030.06   17.13
   3  -1  -1 1040.42   16.98
  -3   1   1 1044.42   16.98
   3  -1  -1 1040.16   16.79
  -3   1   1 1032.18   16.79
   3  -1   0   10.47    0.44
  -3   1   0   11.16    0.75
   3  -1   0   10.91    0.69
   3  -1   0   10.78    0.59
  -3   1   0   10.93    0.59
   3  -1   0   11.31    0.51
   3  -1   1   35.12    0.99
  -3   1  -1   36.28    1.00
  -3   1  -1   44.97    1.44
   3  -1   1   41.85    1.46
   3  -1   1   37.46    1.08
  -3   1  -1   38.04    1.09
   3  -1   1   35.58    0.84
   3  -1   1   42.36    1.38
  -3   1  -2  128.25    2.66
   3  -1   2  129.36    2.65
   3  -1   2  131.24    3.01
  -3   1  -2  129.61    3.02
  -3   1  -2  124.43    2.47
   3  -1   2  127.52    2.35
   3  -1   2  136.31    3.01
  -3   1  -2  126.71    2.96
   3  -1   3    6.31    0.52
  -3   1  -3    6.37    0.49
  -3   1  -3    6.18    0.41
  -3   1  -3    6.39    0.62
  -3   1  -3    6.64    0.35
   3  -1   3    5.78    0.31
  -3   1  -3    5.89    0.33
  -3   1  -3    7.11    0.60
   3  -1   3    6.66    0.65
  -3   1  -4   10.29    0.46
   3  -1   4   11.39    0.73
  -3   1  -4   10.40    0.69
  -3   1  -4   10.09    0.78
  -3   1  -4   10.68    0.79
  -3   1  -4   11.30    0.50
   3  -1   4   10.38    0.80
  -3   1  -4   11.06    0.78
  -3   1  -5   39.80    1.54
  -3   1  -5   39.41    0.90
  -3   1  -5   41.99    1.72
  -3   1  -5   40.06    0.90
  -3   1  -5   38.14    1.61
  -3   1  -5   39.10    1.16
  -3   1  -5   39.82    0.98
   3  -1   5   45.17    1.74
  -3   1  -5   38.78    1.63
  -3   1  -6  232.77    5.14
  -3   1  -6  229.98    5.38
  -3   1  -6  223.60    5.22
  -3   1  -6  232.66    4.12
  -3   1  -6  234.09    4.48
   3  -1   6  232.27    5.31
  -3   1  -6  237.40    4.29
  -3   1  -6  234.62    5.33
  -3   1  -7    7.33    0.77
   3  -1   7    8.56    0.86
  -3   1  -7    9.00    0.91
  -3   1  -7    8.01    0.58
  -3   1  -7    8.10    0.45
   3  -1   7    9.33    0.89
  -3   1  -7    8.77    0.86
  -3   1  -7    7.62    0.53
  -3   1  -8   17.10    1.23
  -3   1  -8   18.23    1.36
   3  -1   8   16.34    1.29
  -3   1  -8   18.13    0.98
  -3   1  -8   17.78    0.74
  -3   1  -8   18.65    0.90
  -3   1  -8   19.93    1.32
   3  -1   8   16.33    1.27
  -3   1  -9   34.60    1.84
  -3   1  -9   35.93    1.97
   3  -1   9   29.96    1.78
  -3   1  -9   30.75    1.10
  -3   1  -9   29.21    1.36
   3  -1   9   31.94    1.81
  -3   1  -9   32.31    1.33
   3  -1  10   14.02    1.29
  -3   1 -10   13.90    0.97
  -3   1 -10   14.33    0.76
   3  -1  10   14.61    1.31
  -3   1 -10   15.32    0.95
   3  -1  11    1.49    0.56
  -3   1 -11    0.84    0.23
   3  -1  11    0.16    0.44
  -3   1 -11    1.25    0.39
  -3   1 -11    1.09    0.38
   3  -1  12    0.35    0.49
  -3   1 -12    0.85    0.30
  -3   1 -12    1.29    0.40
  -3   1 -12    0.75    0.36
   3  -1  13    0.69    0.59
  -3   1 -13   -0.45    0.37
  -3   1 -13    0.14    0.37
   3  -1  14    1.84    0.86
  -3   1 -14    0.18    0.34
   3  -1  15   -0.14    0.58
  -3   1 -15    1.08    0.60
   3  -1  16    8.97    1.41
  -3   0  16    6.00    1.27
   3   0 -16    4.93    1.00
   3   0 -16    5.65    1.26
  -3   0  15   11.03    1.48
  -3   0  15   10.41    1.26
   3   0 -15    6.55    1.10
   3   0 -15    8.54    1.23
  -3   0  14    0.41    0.55
   3   0 -14    1.46    0.68
   3   0 -14    0.96    0.61
  -3   0  13    2.91    0.56
  -3   0  13    1.41    0.57
   3   0 -13    1.82    0.62
  -3   0  12    1.12    0.42
  -3   0  12    0.39    0.47
   3   0 -12    0.05    0.45
   3   0 -12    0.45    0.35
  -3   0  11    1.03    0.38
  -3   0  11    0.42    0.39
   3   0 -11    0.74    0.43
   3   0 -11    0.62    0.34
  -3   0  10   -0.18    0.31
  -3   0  10   -0.53    0.44
   3   0 -10    0.13    0.43
   3   0 -10    0.24    0.31
  -3   0   9    1.18    0.33
   3   0  -9    0.43    0.32
  -3   0   9   -0.10    0.44
  -3   0   9    0.74    0.37
   3   0  -9    1.07    0.33
   3   0  -9    1.33    0.42
  -3   0   8   10.65    0.85
  -3   0   8   11.29    0.99
   3   0  -8   11.11    0.98
  -3   0   8   12.03    1.04
   3   0  -8    9.56    0.94
   3   0  -8   10.05    0.76
  -3   0   7  221.89    5.27
   3   0  -7  235.27    5.35
  -3   0   7  238.03    5.44
   3   0  -7  223.24    5.31
  -3   0   6   32.49    1.52
   3   0  -6   30.94    1.48
  -3   0   6   32.08    1.52
   3   0  -6   29.96    1.48
  -3   0   5    8.82    0.78
   3   0  -5   10.51    0.82
  -3   0   5    9.25    0.77
   3   0  -5    8.19    0.74
  -3   0   4   93.67    2.59
   3   0  -4   93.14    2.58
  -3   0   4   94.41    2.56
   3   0  -4   92.25    2.55
  -3   0   3  483.32    8.73
   3   0  -3  485.91    8.73
   3   0  -3  481.28    8.65
  -3   0   3  486.84    8.66
  -3   0   2  118.54    2.76
   3   0  -2  119.17    2.75
  -3   0   2  115.13    2.65
   3   0  -2  116.82    2.67
   3   0  -1    0.72    0.24
  -3   0   1    0.68    0.31
   3   0  -1    0.72    0.29
   3   0  -1    0.68    0.24
  -3   0   1    0.47    0.23
   3   0   0 1416.72   23.19
  -3   0   0 1453.98   22.93
   3   0   0 1458.79   22.94
  -3   0   0 1403.35   22.75
   3   0   0 1443.30   22.76
   3   0   0 1452.89   22.94
   3   0   1   61.90    1.61
  -3   0  -1   61.09    1.74
   3   0   1   62.79    1.74
  -3   0  -1   64.04    1.46
   3   0   1   62.27    1.45
   3   0   1   63.21    1.70
  -3   0  -1   62.54    1.69
  -3   0  -1   63.60    1.31
   3   0   2  277.79    5.14
  -3   0  -2  270.94    5.14
   3   0   2  271.96    5.24
  -3   0  -2  274.22    5.24
   3   0   2  268.23    4.60
  -3   0  -2  278.53    4.60
  -3   0  -2  285.50    5.31
   3   0   2  270.96    5.29
  -3   0  -3   61.75    1.54
  -3   0  -3   63.67    1.86
   3   0   3   62.17    1.84
  -3   0  -3   60.27    1.96
   3   0   3   62.69    1.82
  -3   0  -3   59.59    1.80
   3   0   3   63.25    1.92
  -3   0  -3   65.76    1.94
   3   0   4  132.34    3.18
  -3   0  -4  133.86    3.21
  -3   0  -4  133.17    3.40
  -3   0  -4  132.48    2.64
  -3   0  -4  136.04    3.20
  -3   0  -4  132.18    2.37
  -3   0  -4  134.07    2.40
  -3   0  -4  135.07    3.34
   3   0   4  138.45    3.37
  -3   0  -5    1.65    0.34
  -3   0  -5    1.86    0.43
  -3   0  -5    1.86    0.21
   3   0   5    1.86    0.40
  -3   0  -5    1.71    0.39
  -3   0  -5    2.31    0.41
  -3   0  -5    1.94    0.23
   3   0   5    2.13    0.47
  -3   0  -5    1.54    0.20
  -3   0  -6   48.98    1.90
   3   0   6   46.86    1.85
  -3   0  -6   47.94    1.09
  -3   0  -6   46.29    1.98
   3   0   6   45.35    1.95
  -3   0  -6   45.87    1.80
  -3   0  -6   46.70    1.32
  -3   0  -6   47.20    1.31
  -3   0  -6   47.73    1.94
   3   0   6   46.49    1.93
  -3   0  -7   50.83    2.05
   3   0   7   47.98    1.99
  -3   0  -7   48.08    2.13
   3   0   7   48.59    2.10
  -3   0  -7   47.11    1.02
  -3   0  -7   50.58    1.50
  -3   0  -7   54.13    2.15
   3   0   7   51.64    2.12
  -3   0  -7   47.85    1.45
  -3   0  -8    8.38    0.86
   3   0   8    7.43    0.89
  -3   0  -8    7.75    0.87
  -3   0  -8    6.36    0.35
  -3   0  -8    7.34    0.58
  -3   0  -8    7.81    0.85
   3   0   8    7.47    0.87
  -3   0  -8    6.51    0.54
   3   0   9    7.97    0.92
  -3   0  -9    7.50    0.43
  -3   0  -9    7.69    0.67
   3   0   9    7.48    0.92
  -3   0  -9    7.64    0.66
   3   0  10  108.44    3.84
  -3   0 -10  109.74    2.42
  -3   0 -10  111.39    3.07
  -3   0 -10  112.11    3.00
   3   0  11    5.35    0.89
  -3   0 -11    5.12    0.43
  -3   0 -11    4.40    0.57
  -3   0 -11    5.07    0.65
   3   0  12   47.73    2.68
  -3   0 -12   52.91    1.60
  -3   0 -12   48.83    2.11
  -3   0 -12   51.88    2.09
   3   0  13   51.89    2.90
  -3   0 -13   51.48    2.26
  -3   0 -13   53.99    2.23
   3   0  14   29.13    2.25
  -3   0 -14   30.31    1.75
  -3   0 -14   23.66    1.53
   3   0  15   10.16    1.44
  -3   0 -15   11.26    1.10
  -3   0 -15   10.81    1.13
  -3  -1  16    6.15    1.15
   3   1 -16    5.43    1.08
   3   1 -16    5.18    1.07
  -3  -1  15   16.29    1.75
   3   1 -15   14.51    1.59
   3   1 -15   13.83    1.59
  -3  -1  14   22.01    1.41
   3   1 -14   22.29    1.89
   3   1 -14   22.15    1.84
  -3  -1  13   38.18    1.87
  -3  -1  13   33.52    2.11
   3   1 -13   39.22    2.39
   3   1 -13   36.71    1.90
   3   1 -13   34.72    2.24
  -3  -1  12    3.98    0.63
  -3  -1  12    2.94    0.71
   3   1 -12    4.26    0.82
   3   1 -12    3.75    0.83
   3   1 -12    4.92    0.70
  -3  -1  11    0.20    0.27
  -3  -1  11    1.06    0.55
   3   1 -11    0.13    0.30
   3   1 -11    0.35    0.51
   3   1 -11   -0.17    0.48
  -3  -1  10    3.09    0.51
  -3  -1  10    1.69    0.62
   3   1 -10    4.64    0.58
   3   1 -10    3.10    0.64
   3   1 -10    2.54    0.66
  -3  -1   9    5.54    0.79
   3   1  -9    7.59    0.84
   3   1  -9    6.27    0.61
   3   1  -9    5.73    0.80
  -3  -1   8   14.53    1.14
   3   1  -8   17.30    1.22
  -3  -1   8   16.97    1.24
   3   1  -8   16.36    1.22
   3   1  -8   16.62    0.90
  -3  -1   7    2.08    0.49
   3   1  -7    2.87    0.55
  -3  -1   7    2.52    0.52
   3   1  -7    2.00    0.50
   3   1  -7    1.79    0.30
  -3  -1   6   23.11    1.29
   3   1  -6   23.67    1.30
  -3  -1   6   23.59    1.32
   3   1  -6   21.74    0.86
   3   1  -6   20.94    1.23
  -3  -1   5    1.31    0.44
   3   1  -5    1.10    0.35
   3   1  -5    1.02    0.42
  -3  -1   5    0.60    0.34
   3   1  -4   52.36    1.84
  -3  -1   4   51.77    1.85
  -3  -1   4   54.10    1.84
   3   1  -4   53.00    1.83
   3   1  -3  134.80    3.24
  -3  -1   3  140.00    3.28
  -3  -1   3  133.43    3.19
   3   1  -3  140.60    3.24
   3   1  -2   42.79    1.39
  -3  -1   2   41.13    1.45
   3   1  -2   41.82    1.43
   3   1  -2   41.28    0.94
  -3  -1   2   41.36    1.39
   3   1  -1  284.54    5.32
   3   1  -1  286.32    5.17
  -3  -1   1  286.49    5.34
   3   1  -1  278.49    4.85
  -3  -1   1  286.98    5.26
  -3  -1   0    1.71    0.41
   3   1   0    2.07    0.33
  -3  -1   0    1.78    0.31
   3   1   0    1.85    0.30
  -3  -1   0    1.87    0.28
  -3  -1   0    1.79    0.26
   3   1   0    2.42    0.29
   3   1   0    2.06    0.31
   3   1   1  119.84    2.78
  -3  -1  -1  122.32    2.66
  -3  -1  -1  122.77    2.76
   3   1   1  116.56    2.62
   3   1   1  119.69    2.21
   3   1   1  118.69    2.42
   3   1   1  120.91    2.64
  -3  -1  -1  113.41    2.59
   3   1   2    0.44    0.35
  -3  -1  -2    0.05    0.22
  -3  -1  -2   -0.28    0.23
  -3  -1  -2    0.04    0.26
   3   1   2    0.25    0.25
   3   1   2    0.36    0.15
  -3  -1  -2    0.10    0.23
   3   1   2    0.28    0.32
  -3  -1  -3    4.15    0.41
  -3  -1  -3    3.47    0.38
  -3  -1  -3    4.57    0.56
   3   1   3    3.57    0.40
   3   1   3    4.35    0.54
  -3  -1  -3    3.35    0.45
  -3  -1  -3    3.26    0.43
   3   1   3    4.91    0.56
  -3  -1  -4    5.20    0.51
  -3  -1  -4    5.65    0.63
  -3  -1  -4    5.48    0.45
   3   1   4    5.23    0.59
  -3  -1  -4    4.07    0.50
  -3  -1  -4    5.48    0.59
   3   1   4    5.92    0.65
  -3  -1  -5  143.28    3.04
  -3  -1  -5  147.72    3.45
  -3  -1  -5  148.17    3.87
   3   1   5  144.00    3.67
  -3  -1  -5  150.69    3.74
  -3  -1  -5  144.51    3.72
   3   1   5  153.42    3.80
  -3  -1  -6   55.37    2.22
   3   1   6   49.48    2.14
  -3  -1  -6   52.08    1.87
  -3  -1  -6   52.06    1.44
   3   1   6   57.04    2.13
  -3  -1  -6   57.57    2.13
  -3  -1  -6   54.51    2.13
  -3  -1  -6   54.52    1.56
   3   1   6   53.71    2.12
  -3  -1  -7    0.92    0.36
  -3  -1  -7    1.38    0.40
   3   1   7    1.77    0.48
   3   1   7    1.70    0.52
  -3  -1  -7    1.98    0.25
  -3  -1  -7    1.81    0.45
  -3  -1  -7    1.69    0.29
  -3  -1  -7    1.30    0.41
  -3  -1  -8   62.93    2.64
   3   1   8   57.91    2.51
  -3  -1  -8   59.57    1.43
   3   1   8   57.29    2.41
  -3  -1  -8   61.36    2.47
  -3  -1  -8   62.58    2.51
  -3  -1  -8   57.94    1.85
   3   1   9   21.06    1.57
   3   1   9   20.53    1.47
  -3  -1  -9   21.41    0.66
  -3  -1  -9   21.12    1.11
   3   1  10  214.60    5.99
  -3  -1 -10  219.11    4.91
  -3  -1 -10  222.59    4.95
   3   1  11   62.30    2.96
  -3  -1 -11   66.16    2.31
  -3  -1 -11   64.09    2.31
   3   1  12  157.56    5.28
  -3  -1 -12  162.14    4.27
  -3  -1 -12  162.24    4.28
   3   1  13  102.87    4.26
  -3  -1 -13  103.02    3.35
  -3  -1 -13  103.29    3.34
   3   1  14   17.06    1.81
  -3  -1 -14   17.73    1.35
  -3  -1 -14   17.35    1.33
   3   1  15   27.09    2.34
  -3  -1 -15   29.66    1.81
  -3  -1 -15   29.13    1.78
  -3  -2  17    4.54    1.04
  -3  -2  16   33.36    2.51
   3   2 -16   30.71    2.43
  -3  -2  15  123.11    4.92
   3   2 -15  138.54    5.15
  -3  -2  14   -0.03    0.34
   3   2 -14    2.02    0.80
  -3  -2  13    8.78    0.90
   3   2 -13    8.52    1.18
   3   2 -13    8.92    0.91
   3   2 -13    6.95    1.09
  -3  -2  12  190.05    4.91
  -3  -2  12  195.21    4.97
   3   2 -12  200.80    5.85
   3   2 -12  197.59    4.80
   3   2 -12  201.92    5.79
  -3  -2  11   32.71    1.66
   3   2 -11   29.70    1.94
   3   2 -11   29.38    1.44
   3   2 -11   30.86    1.93
  -3  -2  10    2.48    0.49
   3   2 -10    1.98    0.39
   3   2 -10    1.19    0.59
   3   2 -10    1.92    0.60
  -3  -2   9   35.79    1.68
   3   2  -9   36.55    1.97
  -3  -2   9   34.62    1.88
   3   2  -9   33.81    1.34
   3   2  -9   35.49    1.92
  -3  -2   8   26.21    1.40
   3   2  -8   27.43    1.63
  -3  -2   8   26.03    1.58
   3   2  -8   28.83    1.62
  -3  -2   8   28.25    1.62
   3   2  -8   27.54    1.08
   3   2  -8   27.71    1.62
  -3  -2   7    1.60    0.43
  -3  -2   7    0.92    0.43
   3   2  -7    2.04    0.50
   3   2  -7    1.25    0.23
  -3  -2   7    1.78    0.48
   3   2  -7    1.39    0.44
   3   2  -7    1.79    0.54
  -3  -2   6   22.89    1.23
   3   2  -6   20.47    1.27
  -3  -2   6   19.84    1.28
   3   2  -6   24.97    1.38
   3   2  -6   22.67    0.76
  -3  -2   6   22.69    1.34
  -3  -2   5   15.50    1.00
   3   2  -5   17.49    1.13
   3   2  -5   15.14    1.03
  -3  -2   5   16.64    1.10
   3   2  -5   14.53    0.47
  -3  -2   5   15.05    1.02
  -3  -2   4    1.43    0.42
  -3  -2   4    1.43    0.41
   3   2  -4    3.18    0.53
  -3  -2   4    2.04    0.39
   3   2  -4    2.16    0.43
  -3  -2   3   21.97    1.15
   3   2  -3   23.25    1.13
   3   2  -3   24.62    1.18
  -3  -2   3   25.21    1.17
  -3  -2   2   32.81    1.39
   3   2  -2   33.36    1.32
   3   2  -2   31.80    1.25
  -3  -2   2   31.88    1.29
  -3  -2   1    0.87    0.39
   3   2  -1    0.48    0.24
  -3  -2   1    0.75    0.24
   3   2  -1    0.06    0.24
  -3  -2   1    0.64    0.15
  -3  -2   0   75.82    2.16
   3   2   0   71.22    1.90
  -3  -2   0   71.75    1.78
   3   2   0   73.31    1.80
  -3  -2   0   71.23    1.70
   3   2   1    2.87    0.48
   3   2   1    2.59    0.32
  -3  -2  -1    2.56    0.44
   3   2   1    2.12    0.38
   3   2   1    2.48    0.32
   3   2   1    2.16    0.27
  -3  -2  -1    2.29    0.26
  -3  -2  -1    2.22    0.31
   3   2   2   43.53    1.59
   3   2   2   40.44    1.44
   3   2   2   40.59    1.23
  -3  -2  -2   39.82    1.21
  -3  -2  -2   43.17    1.56
  -3  -2  -2   41.59    1.47
  -3  -2  -2   38.50    1.05
   3   2   2   40.28    1.15
   3   2   2   39.50    1.07
  -3  -2  -2   40.62    1.42
   3   2   3    0.36    0.26
  -3  -2  -3    0.50    0.24
  -3  -2  -3    0.14    0.27
  -3  -2  -3    0.07    0.25
   3   2   3    0.71    0.40
  -3  -2  -3    0.39    0.32
  -3  -2  -3    0.35    0.16
  -3  -2  -3    0.55    0.30
  -3  -2  -4   53.36    1.96
   3   2   4   51.06    1.91
  -3  -2  -4   52.85    1.98
  -3  -2  -4   52.21    1.55
  -3  -2  -4   51.73    1.66
   3   2   4   48.24    1.59
  -3  -2  -4   49.47    1.28
  -3  -2  -4   54.85    1.93
   3   2   5   35.95    1.67
  -3  -2  -5   36.70    1.36
  -3  -2  -5   38.30    1.71
  -3  -2  -5   39.49    1.39
   3   2   5   35.63    1.30
  -3  -2  -5   36.13    1.72
   3   2   5   37.62    0.85
  -3  -2  -5   33.64    1.60
   3   2   6  143.29    3.88
  -3  -2  -6  149.35    3.96
  -3  -2  -6  140.66    3.19
  -3  -2  -6  144.87    4.04
  -3  -2  -6  136.54    3.33
   3   2   6  138.99    3.93
   3   2   6  132.30    3.09
   3   2   6  140.01    2.44
  -3  -2  -6  143.56    3.90
   3   2   7    4.90    0.71
  -3  -2  -7    4.36    0.65
  -3  -2  -7    3.94    0.44
  -3  -2  -7    4.71    0.72
  -3  -2  -7    4.44    0.55
   3   2   7    4.60    0.71
   3   2   7    4.77    0.46
   3   2   7    4.40    0.24
  -3  -2  -7    3.32    0.53
  -3  -2  -7    3.96    0.47
  -3  -2  -8  126.73    2.88
   3   2   8  130.23    3.95
  -3  -2  -8  135.96    4.01
  -3  -2  -8  124.89    3.42
   3   2   8  120.59    3.91
   3   2   8  120.69    2.83
   3   2   8  127.75    2.34
  -3  -2  -8  125.47    3.21
   3   2   9   80.32    3.21
   3   2   9   81.67    2.09
  -3  -2  -9   86.47    2.14
   3   2   9   87.04    3.25
  -3  -2  -9   85.19    2.59
   3   2  10   17.72    0.79
   3   2  10   17.63    1.53
   3   2  10   15.26    1.39
  -3  -2 -10   15.85    0.75
  -3  -2 -10   17.76    1.13
   3   2  11   -0.01    0.58
  -3  -2 -11    0.07    0.16
  -3  -2 -11   -0.06    0.36
   3   2  12   10.98    1.35
  -3  -2 -12   12.56    1.06
   3   2  13   50.00    2.98
  -3  -2 -13   51.51    2.24
  -3  -2 -13   54.20    2.34
   3   2  14   55.80    3.25
  -3  -2 -14   62.24    2.58
  -3  -2 -14   59.50    2.57
   3   2  15   13.76    1.71
  -3  -2 -15   14.10    1.28
  -3  -2 -17    0.02    0.58
  -3  -3  17   41.27    2.85
  -3  -3  16    1.02    0.62
  -3  -3  15    8.84    1.30
   3   3 -15    6.68    1.20
  -3  -3  14   39.17    2.49
  -3  -3  14   43.87    2.11
   3   3 -14   39.63    2.63
  -3  -3  13  147.69    4.29
   3   3 -13  159.05    5.32
  -3  -3  12   11.51    1.04
   3   3 -12   10.90    1.28
   3   3 -12   11.81    0.93
  -3  -3  11  136.42    3.93
   3   3 -11  136.73    4.56
   3   3 -11  131.90    3.39
  -3  -3  10  206.86    5.11
   3   3 -10  210.74    5.76
   3   3 -10  203.80    4.41
  -3  -3   9    4.74    0.69
   3   3  -9    6.08    0.89
   3   3  -9    4.33    0.43
  -3  -3   8   36.25    1.72
   3   3  -8   38.50    1.93
   3   3  -8   37.43    1.96
   3   3  -8   34.11    1.14
  -3  -3   7  347.70    7.28
   3   3  -7  360.85    7.68
   3   3  -7  369.98    7.72
   3   3  -7  343.54    6.03
  -3  -3   7  359.72    7.68
  -3  -3   6  117.69    3.32
   3   3  -6  120.32    3.52
   3   3  -6  114.67    3.46
  -3  -3   6  118.36    3.49
  -3  -3   5  110.89    3.17
   3   3  -5  118.69    3.35
   3   3  -5  112.01    3.25
  -3  -3   5  110.37    3.27
  -3  -3   4  174.77    4.25
   3   3  -4  181.60    4.28
   3   3  -4  178.91    4.31
  -3  -3   4  173.83    4.27
  -3  -3   3  208.04    4.70
  -3  -3   3  207.92    4.56
   3   3  -3  198.38    4.53
   3   3  -3  207.41    4.66
  -3  -3   3  199.26    4.59
  -3  -3   2   61.40    2.11
   3   3  -2   63.52    1.97
   3   3  -2   60.88    2.01
  -3  -3   2   65.23    1.97
  -3  -3   2   59.02    1.17
   3   3  -1  168.05    3.97
  -3  -3   1  171.70    4.00
   3   3  -1  174.01    3.70
  -3  -3   1  164.10    3.63
   3   3  -1  165.52    3.77
  -3  -3   1  157.81    3.06
   3   3   0  254.65    5.37
  -3  -3   0  266.11    5.46
   3   3   0  260.04    4.99
  -3  -3   0  250.88    4.95
  -3  -3   0  250.31    4.71
   3   3   1  359.72    7.12
   3   3   1  361.43    7.04
  -3  -3  -1  367.75    7.12
   3   3   1  356.92    6.31
  -3  -3  -1  377.35    6.57
   3   3   1  359.87    6.56
  -3  -3  -1  353.46    6.60
   3   3   2  299.75    6.16
  -3  -3  -2  300.42    5.97
  -3  -3  -2  305.97    6.04
   3   3   2  290.81    5.22
   3   3   2  288.68    5.96
  -3  -3  -2  295.00    5.43
   3   3   2  292.42    5.43
  -3  -3  -2  294.31    5.78
  -3  -3  -3   18.32    1.14
   3   3   3   18.80    1.16
  -3  -3  -3   19.89    1.13
  -3  -3  -3   18.09    0.73
  -3  -3  -3   20.81    1.10
   3   3   3   18.92    1.04
  -3  -3  -3   17.30    0.78
  -3  -3  -3   18.71    1.06
  -3  -3  -4    3.12    0.46
   3   3   4    2.53    0.43
  -3  -3  -4    2.61    0.47
  -3  -3  -4    3.88    0.37
   3   3   4    4.61    0.64
  -3  -3  -4    4.08    0.61
  -3  -3  -4    2.87    0.48
  -3  -3  -4    4.04    0.39
   3   3   5  102.97    3.15
  -3  -3  -5  105.59    2.84
  -3  -3  -5  100.21    3.16
  -3  -3  -5  101.17    2.42
  -3  -3  -5  104.75    3.21
   3   3   5   97.32    2.70
  -3  -3  -5  100.78    2.41
   3   3   5  101.51    2.20
  -3  -3  -5   98.19    3.06
   3   3   6  311.92    6.88
  -3  -3  -6  310.36    6.22
  -3  -3  -6  332.20    7.05
   3   3   6  311.87    6.90
   3   3   6  286.26    6.08
  -3  -3  -6  317.52    7.04
  -3  -3  -6  310.21    5.94
   3   3   6  306.81    5.43
  -3  -3  -6  318.71    6.90
   3   3   7    1.60    0.55
  -3  -3  -7    2.17    0.42
  -3  -3  -7    1.90    0.52
   3   3   7    1.56    0.37
  -3  -3  -7    1.92    0.38
  -3  -3  -7    2.01    0.54
   3   3   7    1.74    0.54
   3   3   7    1.89    0.23
  -3  -3  -7    1.82    0.48
   3   3   8    0.12    0.42
  -3  -3  -8    0.94    0.28
   3   3   8    1.28    0.32
  -3  -3  -8    0.67    0.28
   3   3   8    0.68    0.43
   3   3   8    0.65    0.18
   3   3   9  160.41    4.82
  -3  -3  -9  157.54    3.73
  -3  -3  -9  162.71    4.09
   3   3   9  153.13    4.78
   3   3   9  153.79    3.67
   3   3   9  163.25    3.15
  -3  -3  -9  158.81    4.08
   3   3  10    5.60    0.88
  -3  -3 -10    5.94    0.57
   3   3  10    4.82    0.90
   3   3  10    5.35    0.55
  -3  -3 -10    3.14    0.59
   3   3  10    5.25    0.39
  -3  -3 -10    4.70    0.66
   3   3  11   29.16    2.02
  -3  -3 -11   28.74    1.22
   3   3  11   26.62    1.99
   3   3  11   27.30    1.21
   3   3  11   28.93    0.99
  -3  -3 -11   28.65    1.60
   3   3  12  110.52    4.48
  -3  -3 -12  121.30    2.87
  -3  -3 -12  121.99    3.76
   3   3  13   -0.25    0.72
  -3  -3 -13   -0.16    0.42
   3   3  14   -0.02    0.63
  -3  -3 -14    0.37    0.39
  -3  -3 -15    0.00    0.49
  -3  -4  17    4.10    1.08
  -3  -4  16   40.00    2.68
  -3  -4  15    8.08    1.23
   3   4 -15    9.40    1.37
  -3  -4  14   14.12    1.23
  -3  -4  14   10.54    1.30
   3   4 -14   13.12    1.54
  -3  -4  13   91.95    3.28
   3   4 -13   90.74    3.95
  -3  -4  12    6.04    0.84
   3   4 -12    5.45    0.96
  -3  -4  11    0.36    0.40
   3   4 -11    0.55    0.53
   3   4 -11    0.44    0.22
  -3  -4  10    1.47    0.54
   3   4 -10    0.21    0.52
  -3  -4   9  210.79    5.28
   3   4  -9  207.98    5.71
  -3  -4   8    1.42    0.46
   3   4  -8    0.55    0.44
  -3  -4   7    8.00    0.85
   3   4  -7    7.86    0.93
  -3  -4   6  225.43    5.44
   3   4  -6  228.64    5.64
   3   4  -6  239.46    5.71
  -3  -4   6  237.39    5.70
  -3  -4   5  142.89    3.92
   3   4  -5  144.13    3.96
   3   4  -5  145.91    4.02
  -3  -4   5  144.74    4.00
  -3  -4   4   25.78    1.43
  -3  -4   4   23.07    1.36
   3   4  -4   27.63    1.46
   3   4  -4   26.79    1.47
  -3  -4   4   26.72    1.46
  -3  -4   3   12.49    0.99
   3   4  -3   12.20    0.95
   3   4  -3   11.40    0.93
  -3  -4   3   12.66    0.95
   3   4  -2  194.03    4.58
  -3  -4   2  198.18    4.65
  -3  -4   2  202.52    4.44
   3   4  -2  195.57    4.40
   3   4  -2  181.70    4.41
  -3  -4   2  179.97    3.37
   3   4  -1   25.64    1.44
  -3  -4   1   29.57    1.52
   3   4  -1   28.91    1.36
  -3  -4   1   27.14    1.27
  -3  -4   1   22.07    0.85
  -3  -4   0  189.53    4.50
   3   4   0  181.93    4.40
  -3  -4   0  174.95    4.00
   3   4   0  187.87    4.09
  -3  -4   0  176.92    3.70
   3   4   1  569.43   10.74
   3   4   1  571.59    9.53
  -3  -4  -1  586.35   10.78
  -3  -4  -1  588.30   10.28
   3   4   1  586.40   10.72
  -3  -4  -1  558.61   10.14
   3   4   1  585.10   10.21
  -3  -4  -1  557.98   10.06
   3   4   2  120.60    3.41
  -3  -4  -2  121.71    3.37
  -3  -4  -2  121.19    3.13
   3   4   2  118.66    2.36
   3   4   2  120.38    3.31
   3   4   2  119.37    2.90
  -3  -4  -2  119.90    2.89
  -3  -4  -2  118.30    3.04
   3   4   3   38.32    1.78
  -3  -4  -3   40.05    1.69
  -3  -4  -3   38.30    1.69
   3   4   3   38.94    1.68
  -3  -4  -3   36.46    1.37
  -3  -4  -3   37.63    1.60
  -3  -4  -4   60.24    2.33
  -3  -4  -4   53.19    2.05
   3   4   4   53.03    2.19
  -3  -4  -4   58.30    2.18
   3   4   4   49.76    1.94
  -3  -4  -4   48.64    1.65
  -3  -4  -4   50.50    2.02
  -3  -4  -5  142.81    3.97
  -3  -4  -5  132.69    3.58
   3   4   5  128.83    3.83
  -3  -4  -5  129.85    2.73
   3   4   5  125.23    3.46
  -3  -4  -5  136.39    3.86
  -3  -4  -5  129.84    3.12
  -3  -4  -5  132.73    3.76
  -3  -4  -6   69.12    2.40
   3   4   6   69.50    2.71
  -3  -4  -6   73.75    2.81
   3   4   6   72.72    2.72
  -3  -4  -6   73.17    2.79
  -3  -4  -6   70.80    1.88
   3   4   6   64.72    2.30
  -3  -4  -6   71.43    2.14
   3   4   6   73.29    1.93
  -3  -4  -6   70.58    2.68
  -3  -4  -7  160.79    4.08
   3   4   7  158.96    4.61
   3   4   7  167.91    3.42
  -3  -4  -7  155.74    3.76
  -3  -4  -7  166.76    4.78
  -3  -4  -7  160.23    3.56
   3   4   7  160.31    4.60
   3   4   7  153.85    3.97
   3   4   8   55.14    2.57
  -3  -4  -8   52.91    2.05
   3   4   8   57.49    1.63
   3   4   8   57.89    2.62
  -3  -4  -8   58.30    1.91
   3   4   8   52.04    2.02
   3   4   9    3.42    0.80
  -3  -4  -9    2.38    0.46
   3   4   9    2.52    0.45
  -3  -4  -9    1.81    0.40
   3   4   9    2.17    0.72
   3   4   9    2.64    0.33
   3   4  10   40.22    2.37
  -3  -4 -10   41.93    1.76
   3   4  10   41.28    2.44
  -3  -4 -10   39.49    1.77
   3   4  10   39.49    1.71
   3   4  10   42.85    1.37
  -3  -4 -10   41.17    1.97
   3   4  11  121.55    4.45
  -3  -4 -11  116.26    3.22
   3   4  11  114.15    4.38
  -3  -4 -11  117.14    3.51
   3   4  11  118.64    2.70
  -3  -4 -11  111.16    3.66
   3   4  12    4.08    0.99
  -3  -4 -12    3.76    0.67
   3   4  12    3.84    0.90
  -3  -4 -12    4.19    0.54
  -3  -4 -12    3.69    0.71
   3   4  13    0.01    0.59
  -3  -4 -13   -0.31    0.44
  -3  -4 -13    0.00    0.36
  -3  -4 -14  107.51    3.80
   3   4  14  104.02    4.69
  -3  -4 -14  106.50    3.82
  -3  -5  15    1.18    0.71
  -3  -5  14   37.50    2.32
  -3  -5  14   37.27    2.08
   3   5 -14   38.16    2.65
  -3  -5  13   42.16    2.36
  -3  -5  13   39.33    2.14
   3   5 -13   41.52    2.69
  -3  -5  12   35.68    2.01
   3   5 -12   38.87    2.49
  -3  -5  11   92.98    3.37
   3   5 -11   97.33    3.95
  -3  -5  10    1.08    0.45
   3   5 -10    0.03    0.48
  -3  -5   9   27.70    1.69
   3   5  -9   29.44    1.94
  -3  -5   8    9.32    0.99
   3   5  -8    8.96    1.08
  -3  -5   7    2.84    0.58
   3   5  -7    3.67    0.72
  -3  -5   6   17.25    1.29
   3   5  -6   17.54    1.33
  -3  -5   5   35.88    1.83
   3   5  -5   32.85    1.77
  -3  -5   5   35.20    1.82
   3   5  -5   36.36    1.86
  -3  -5   5   35.11    1.84
  -3  -5   4   16.01    1.21
   3   5  -4   15.64    1.19
  -3  -5   4   16.78    1.22
   3   5  -4   14.81    1.13
   3   5  -3    1.57    0.46
  -3  -5   3    2.82    0.63
   3   5  -3    2.19    0.50
   3   5  -3    1.16    0.43
  -3  -5   3    1.90    0.48
   3   5  -2   14.76    1.12
  -3  -5   2   15.13    1.15
   3   5  -2   12.74    0.99
  -3  -5   2   13.24    0.99
  -3  -5   1   62.05    2.44
   3   5  -1   60.73    2.36
  -3  -5   1   62.84    2.20
   3   5  -1   62.96    2.22
  -3  -5   0    2.03    0.33
   3   5   0    1.91    0.47
  -3  -5   0    2.11    0.57
  -3  -5   0    1.55    0.40
   3   5   0    2.27    0.46
   3   5   1  155.01    4.13
  -3  -5  -1  148.31    3.53
   3   5   1  146.53    2.83
  -3  -5  -1  152.08    4.12
   3   5   1  143.39    3.99
  -3  -5  -1  143.02    3.62
   3   5   1  151.30    3.69
   3   5   2    2.49    0.58
   3   5   2    1.30    0.40
   3   5   2    1.64    0.15
  -3  -5  -2    1.56    0.50
  -3  -5  -2    1.94    0.41
   3   5   2    1.34    0.36
  -3  -5  -2    1.84    0.38
   3   5   3    3.20    0.57
  -3  -5  -3    2.57    0.49
  -3  -5  -3    2.82    0.60
   3   5   3    2.29    0.59
  -3  -5  -3    2.12    0.43
  -3  -5  -3    2.74    0.44
  -3  -5  -4    1.78    0.50
   3   5   4    0.44    0.32
  -3  -5  -4    1.30    0.40
   3   5   4    1.18    0.52
  -3  -5  -4    1.80    0.44
  -3  -5  -4    1.67    0.39
   3   5   5    0.48    0.32
  -3  -5  -5    0.18    0.37
  -3  -5  -5    0.41    0.40
   3   5   5    0.35    0.48
  -3  -5  -5    0.42    0.34
  -3  -5  -5    0.16    0.25
   3   5   6   18.47    1.44
  -3  -5  -6   20.22    1.33
  -3  -5  -6   18.97    0.71
  -3  -5  -6   18.77    1.38
   3   5   6   19.94    1.28
  -3  -5  -6   18.04    1.08
   3   5   6   19.32    1.00
  -3  -5  -6   19.37    1.39
  -3  -5  -7   43.47    1.99
   3   5   7   47.70    2.34
   3   5   7   45.62    1.60
  -3  -5  -7   42.96    1.77
   3   5   7   43.37    2.22
  -3  -5  -7   45.44    1.35
   3   5   7   39.46    1.89
  -3  -5  -8   27.04    1.55
   3   5   8   27.34    1.84
  -3  -5  -8   27.04    1.42
   3   5   8   27.04    1.18
   3   5   8   27.84    1.83
  -3  -5  -8   28.87    1.15
   3   5   8   25.03    1.47
   3   5   9    3.00    0.81
  -3  -5  -9    3.33    0.63
  -3  -5  -9    3.90    0.60
   3   5   9    4.03    0.46
   3   5   9    3.15    0.56
   3   5   9    4.02    0.88
  -3  -5  -9    4.40    0.52
   3   5  10    0.91    0.62
  -3  -5 -10    0.37    0.34
   3   5  10    0.37    0.35
  -3  -5 -10    0.85    0.35
   3   5  10    0.27    0.48
   3   5  10    0.48    0.24
  -3  -5 -11   20.63    1.23
   3   5  11   16.94    1.65
  -3  -5 -11   20.51    1.32
   3   5  11   17.37    1.72
  -3  -5 -11   22.55    1.58
   3   5  12   84.95    3.91
  -3  -5 -12   82.02    2.82
   3   5  12   81.22    3.80
  -3  -5 -12   79.71    2.76
  -3  -5 -12   81.98    3.25
   3   5  13    5.42    1.10
   3   5  13    3.87    0.94
  -3  -5 -13    5.28    0.90
   3   5  14   -0.50    0.61
  -3  -5 -14    0.74    0.47
   3   6 -14   31.93    2.52
  -3  -6  13   34.69    2.07
  -3  -6  13   31.23    1.99
   3   6 -13   31.29    2.36
  -3  -6  12   12.63    1.18
  -3  -6  12   12.55    1.25
   3   6 -12   12.48    1.51
  -3  -6  11  136.04    4.40
   3   6 -11  131.11    4.85
  -3  -6  10    3.51    0.76
   3   6 -10    4.70    0.90
  -3  -6   9   32.77    1.96
   3   6  -9   35.15    2.20
  -3  -6   8   62.91    2.74
   3   6  -8   64.91    2.96
  -3  -6   7   44.01    2.22
   3   6  -7   43.92    2.31
  -3  -6   6    2.96    0.67
  -3  -6   6    1.36    0.14
   3   6  -6    2.30    0.57
  -3  -6   5   42.93    2.16
   3   6  -5   42.94    2.15
  -3  -6   5   42.96    1.00
  -3  -6   4   13.62    1.21
  -3  -6   4   12.81    1.14
  -3  -6   4   13.26    0.55
   3   6  -4   12.06    1.10
   3   6  -3   12.46    1.07
  -3  -6   3   11.84    1.02
  -3  -6   3   13.50    1.19
   3   6  -3   12.00    1.08
   3   6  -2   30.05    1.63
  -3  -6   2   30.19    1.62
  -3  -6   2   30.76    1.77
   3   6  -2   30.34    1.72
   3   6  -1   75.00    2.64
  -3  -6   1   74.11    2.61
   3   6  -1   72.86    2.78
  -3  -6   1   73.42    2.04
  -3  -6   1   74.03    2.84
   3   6   0   52.68    2.12
  -3  -6   0   54.20    2.12
  -3  -6   0   53.02    1.75
  -3  -6   0   55.48    2.41
   3   6   0   54.10    2.33
   3   6   1   71.42    2.73
  -3  -6  -1   69.46    2.76
   3   6   1   68.69    2.41
  -3  -6  -1   64.01    2.35
   3   6   1   70.32    1.48
   3   6   1   69.35    2.69
  -3  -6  -1   67.38    2.16
  -3  -6  -2   53.45    2.37
   3   6   2   51.17    2.31
  -3  -6  -2   51.69    2.03
  -3  -6  -2   56.71    2.02
   3   6   2   49.25    2.23
   3   6   3    9.15    0.98
  -3  -6  -3    8.83    0.82
  -3  -6  -3    8.93    0.97
   3   6   3   10.32    1.01
  -3  -6  -3    9.43    0.83
   3   6   4    5.98    0.80
  -3  -6  -4    6.73    0.86
  -3  -6  -4    4.38    0.64
   3   6   4    4.77    0.76
  -3  -6  -4    5.36    0.74
  -3  -6  -4    5.34    0.62
   3   6   5    9.97    1.00
  -3  -6  -5    7.07    0.90
   3   6   5    7.75    0.97
  -3  -6  -5    9.22    0.98
  -3  -6  -5    8.12    0.79
  -3  -6  -6   70.61    2.78
   3   6   6   65.88    2.86
  -3  -6  -6   67.59    2.41
   3   6   6   65.17    2.65
   3   6   7   18.88    1.54
  -3  -6  -7   16.84    1.32
   3   6   7   17.93    1.34
   3   6   7   17.39    1.41
  -3  -6  -7   17.92    1.20
   3   6   7   16.80    1.05
   3   6   8    6.04    0.99
  -3  -6  -8    7.24    0.89
   3   6   8    7.59    0.92
   3   6   8    7.45    0.96
  -3  -6  -8    7.82    0.43
   3   6   8    6.46    0.65
  -3  -6  -8    6.20    0.76
   3   6   9    6.56    1.03
  -3  -6  -9    4.84    0.76
  -3  -6  -9    5.99    0.76
   3   6   9    5.89    0.63
  -3  -6  -9    5.23    0.45
   3   6   9    4.76    0.87
   3   6  10    4.69    0.98
  -3  -6 -10    5.54    0.82
   3   6  10    5.28    0.59
   3   6  10    4.83    0.94
   3   6  11    1.64    0.70
   3   6  11    2.00    0.81
  -3  -6 -11    1.19    0.55
   3   6  12    0.66    0.58
   3   6  12    0.95    0.55
  -3  -6 -12    1.25    0.48
  -3  -6 -12    0.41    0.51
   3   6  13    0.72    0.56
   3   6  13    1.95    0.86
  -3  -6 -13    0.73    0.59
  -3  -6 -14   17.70    1.64
  -3  -7  13   10.20    1.23
   3   7 -13   10.45    1.47
  -3  -7  12   45.34    2.50
   3   7 -12   44.54    2.86
  -3  -7  11   34.42    2.15
   3   7 -11   32.97    2.38
  -3  -7  10   16.69    1.15
  -3  -7  10   15.95    1.45
   3   7 -10   15.17    1.58
  -3  -7   9    3.08    0.69
   3   7  -9    3.09    0.85
  -3  -7   8   26.48    1.82
   3   7  -8   25.00    1.90
  -3  -7   7  105.37    3.76
   3   7  -7  107.21    3.91
  -3  -7   7   95.66    1.90
  -3  -7   6    6.03    0.93
  -3  -7   6    6.30    0.35
   3   7  -6    7.33    1.01
  -3  -7   5   14.42    1.36
   3   7  -5   16.66    1.38
  -3  -7   5   15.51    0.65
  -3  -7   4   14.90    1.35
   3   7  -4   18.59    1.45
  -3  -7   3   61.72    1.66
  -3  -7   3   57.18    2.66
   3   7  -3   57.87    2.55
  -3  -7   2    3.56    0.73
  -3  -7   2    3.26    0.37
   3   7  -2    3.20    0.63
  -3  -7   1    0.50    0.21
  -3  -7   1    0.64    0.49
   3   7  -1    0.74    0.40
  -3  -7   1    1.65    0.47
  -3  -7   0   71.60    2.96
   3   7   0   70.60    2.88
  -3  -7   0   70.97    2.12
  -3  -7   0   70.75    2.66
   3   7   0   72.91    2.71
   3   7   1    7.36    0.96
  -3  -7  -1    6.54    0.64
  -3  -7  -1    5.71    0.90
   3   7   1    6.05    0.77
  -3  -7  -1    7.23    0.82
   3   7   2   11.44    1.15
  -3  -7  -2   12.96    1.09
  -3  -7  -2   11.66    0.91
  -3  -7  -2   13.12    1.25
  -3  -7  -3   54.72    2.55
   3   7   3   49.66    2.44
  -3  -7  -3   48.59    2.12
  -3  -7  -3   51.70    2.10
   3   7   4   43.40    2.32
  -3  -7  -4   43.80    2.28
  -3  -7  -4   45.31    2.02
  -3  -7  -5   -0.14    0.44
   3   7   5    0.31    0.53
  -3  -7  -5    0.54    0.39
  -3  -7  -6   25.95    1.75
   3   7   6   26.87    1.90
  -3  -7  -6   24.62    1.49
  -3  -7  -7   25.26    1.74
   3   7   7   25.32    1.85
   3   7   7   26.77    1.45
  -3  -7  -7   27.02    1.60
   3   7   8    8.19    1.12
  -3  -7  -8    8.61    1.07
   3   7   8    9.09    0.83
  -3  -7  -8    7.66    0.90
   3   7   9    2.32    0.73
  -3  -7  -9    2.97    0.63
   3   7   9    3.09    0.52
   3   7   9    2.90    0.81
   3   7  10   22.12    1.88
  -3  -7 -10   23.15    1.69
   3   7  10   22.70    1.96
   3   7  11   27.82    2.21
  -3  -7 -11   27.05    1.80
   3   7  11   26.38    2.18
   3   7  12    1.88    0.72
   3   7  12    3.99    0.95
  -3  -7 -12    2.53    0.76
  -3  -7 -13   -0.31    0.67
  -3  -8  13    6.53    1.01
  -3  -8  12    4.28    0.97
   3   8 -12    2.77    0.92
  -3  -8  11   55.82    2.93
   3   8 -11   54.44    3.19
  -3  -8  10   20.70    1.76
   3   8 -10   21.62    1.96
  -3  -8   9    1.21    0.55
   3   8  -9    0.66    0.54
  -3  -8   8    8.52    1.15
   3   8  -8    9.90    1.30
  -3  -8   7    9.49    1.20
   3   8  -7   11.38    1.33
  -3  -8   6   45.94    2.54
   3   8  -6   45.82    2.55
  -3  -8   6   46.20    1.27
  -3  -8   5   17.67    1.53
  -3  -8   5   16.01    0.61
   3   8  -5   16.99    1.47
  -3  -8   5   15.98    0.76
  -3  -8   4    4.45    0.31
  -3  -8   4    4.22    0.84
   3   8  -4    4.11    0.81
  -3  -8   3    0.97    0.19
  -3  -8   3    0.34    0.47
   3   8  -3    0.64    0.50
  -3  -8   2   87.75    3.57
  -3  -8   2   92.56    2.16
   3   8  -2   85.85    3.32
  -3  -8   1    6.01    1.02
  -3  -8   1    4.65    0.45
   3   8  -1    4.56    0.84
   3   8   0   -0.49    0.59
   3   8   0   -0.07    0.39
  -3  -8   0    0.55    0.46
  -3  -8   0    0.29    0.18
  -3  -8  -1   41.78    2.40
   3   8   1   43.96    2.37
   3   8   1   48.10    2.25
  -3  -8  -2   98.17    3.77
   3   8   2   99.42    3.70
   3   8   3   13.37    1.35
  -3  -8  -3   13.96    1.39
  -3  -8  -4   25.53    1.85
   3   8   4   21.74    1.73
  -3  -8  -5   58.60    2.86
   3   8   5   61.18    2.95
  -3  -8  -6   13.36    1.36
   3   8   6   14.94    1.48
  -3  -8  -7   26.28    1.90
   3   8   7   28.08    2.07
   3   8   7   26.98    1.58
   3   8   8   47.79    2.79
  -3  -8  -8   50.42    2.65
   3   8   8   52.38    2.23
  -3  -8  -9   37.04    2.28
   3   8   9   41.94    2.68
   3   8   9   45.64    2.04
   3   8  10   -0.16    0.58
  -3  -8 -10    0.27    0.50
  -3  -8 -11   44.28    2.50
   3   8  11   44.13    2.89
   3   8  12    6.94    1.26
  -3  -8 -13    6.82    1.15
  -3  -9  12    2.77    0.88
  -3  -9  11    3.44    0.87
  -3  -9  10    1.87    0.69
   3   9 -10    3.24    0.90
  -3  -9   9    0.44    0.58
   3   9  -9    0.34    0.58
  -3  -9   8    2.48    0.84
   3   9  -8    1.69    0.70
  -3  -9   7    0.84    0.64
   3   9  -7    1.42    0.73
  -3  -9   6    0.47    0.57
   3   9  -6    1.14    0.62
  -3  -9   5    5.37    1.00
   3   9  -5    5.99    1.03
  -3  -9   5    5.31    0.49
  -3  -9   4   19.80    1.77
   3   9  -4   20.29    1.70
  -3  -9   3    1.35    0.64
   3   9  -3    1.18    0.58
  -3  -9   2    0.76    0.57
   3   9  -2    0.59    0.53
  -3  -9   1   50.58    2.78
   3   9  -1   47.07    2.47
   3   9   0   16.34    1.52
  -3  -9   0   18.15    1.66
   3   9   0   15.36    1.39
   3   9   0   14.57    0.49
   3   9   1    2.16    0.70
  -3  -9  -1    2.66    0.78
   3   9   2   61.76    3.03
  -3  -9  -2   64.88    3.16
   3   9   3  120.40    4.41
  -3  -9  -3  122.48    4.53
   3   9   4    0.46    0.55
  -3  -9  -4   -0.20    0.59
   3   9   5    2.38    0.69
  -3  -9  -5    1.04    0.60
  -3  -9  -6   30.99    2.20
   3   9   6   33.30    2.31
   3   9   7   66.84    3.39
  -3  -9  -7   64.99    3.24
   3   9   7   70.69    2.84
  -3  -9  -8    1.05    0.67
   3   9   8    1.65    0.83
   3   9   8    1.34    0.50
   3   9   9    5.61    1.06
  -3  -9  -9    6.08    1.13
  -3  -9 -10   45.34    2.71
   3   9  10   44.76    2.95
  -3  -9 -11    1.05    0.70
  -3 -10  12    4.50    1.04
  -3 -10  11    3.29    0.82
  -3 -10  10   19.76    1.89
  -3 -10   9   10.48    1.41
   3  10  -9   11.40    1.53
  -3 -10   8    1.97    0.79
   3  10  -8    2.78    0.82
  -3 -10   7    3.71    0.98
   3  10  -7    4.04    0.95
  -3 -10   6   32.34    2.38
   3  10  -6   31.88    2.36
  -3 -10   5    2.04    0.83
   3  10  -5   -0.51    0.55
  -3 -10   4    7.98    1.22
   3  10  -4    7.39    1.17
  -3 -10   3   19.77    1.86
   3  10  -3   17.78    1.66
  -3 -10   2    6.30    1.14
   3  10  -2    5.78    1.01
   3  10  -1   -0.31    0.68
   3  10  -1    1.11    0.68
  -3 -10   1    0.70    0.66
   3  10   0    2.10    0.76
   3  10   0    0.40    0.49
  -3 -10   0    1.81    0.73
   3  10   1    6.25    1.09
  -3 -10  -1    5.58    1.06
   3  10   2    0.40    0.52
  -3 -10  -2    1.43    0.66
   3  10   3    4.10    0.94
  -3 -10  -3    4.17    1.05
   3  10   4    3.60    0.95
  -3 -10  -4    3.24    0.90
   3  10   5   18.97    1.82
  -3 -10  -5   16.88    1.71
   3  10   6    0.24    0.63
  -3 -10  -6   -0.33    0.69
   3  10   7    4.06    0.99
  -3 -10  -7    2.11    0.73
   3  10   7    4.58    0.81
  -3 -10  -8   55.58    3.13
   3  10   8   56.20    3.30
  -3 -10  -9   19.30    1.87
  -3 -10 -10    5.76    1.08
  -3 -10 -11    0.34    0.69
  -3 -11   9   47.30    3.07
  -3 -11   8   15.37    1.76
  -3 -11   7   -0.13    0.53
   3  11  -7    1.61    0.74
  -3 -11   6   10.81    1.46
   3  11  -6   11.09    1.50
  -3 -11   5   49.96    3.08
   3  11  -5   49.60    3.04
  -3 -11   4   -1.20    0.75
   3  11  -4   -0.29    0.58
  -3 -11   3    0.19    0.60
   3  11  -3    0.65    0.63
   3  11  -2    9.30    1.37
   3  11  -2    8.50    1.23
  -3 -11   2    8.19    1.31
   3  11  -1   10.06    1.40
   3  11  -1    9.67    1.31
  -3 -11   1   12.02    1.54
   3  11   0    1.60    0.72
  -3 -11   0    1.10    0.64
   3  11   1    2.79    0.88
  -3 -11  -1    1.78    0.82
   3  11   2    1.69    0.79
  -3 -11  -2    1.83    0.81
   3  11   3    2.97    0.87
  -3 -11  -3    3.83    0.89
  -3 -11  -4    9.50    1.38
   3  11   4   10.00    1.43
   3  11   5    0.20    0.68
  -3 -11  -5    1.66    0.83
   3  11   6    2.24    0.91
  -3 -11  -6    3.20    0.82
  -3 -11  -7    1.76    0.77
  -3 -11  -8    4.38    0.99
   3  12  -4   45.71    3.02
   3  12  -3   40.44    2.75
   3  12  -2   -0.58    0.79
   3  12  -2    0.36    0.62
   3  12  -1    7.42    1.33
   3  12   0   53.73    3.22
   3  12   1    2.66    0.74
   3  12   2    7.18    1.22
   4 -14   4   -0.72    0.65
   4 -13  -1   -0.11    0.65
   4 -13   0    2.67    0.93
   4 -13   1    4.29    1.17
   4 -13   2   -0.49    0.70
   4 -13   3   -0.13    0.56
  -4  13  -4    0.69    0.60
   4 -13   4    0.46    0.63
   4 -13   4    1.55    0.73
  -4  13  -5    1.77    0.81
   4 -13   5    0.88    0.65
   4 -13   5    1.55    0.72
   4 -13   6   -0.60    0.66
   4 -13   6    0.67    0.59
  -4  13  -7   14.98    1.64
   4 -13   7   13.91    1.60
   4 -13   7   12.23    1.47
  -4  13  -8   10.73    1.53
   4 -13   8    8.45    1.29
  -4  12   7   -0.43    0.74
   4 -12  -6   32.36    2.51
  -4  12   6   29.91    2.33
   4 -12  -5   74.49    3.78
  -4  12   5   71.31    3.67
   4 -12  -4    0.33    0.56
  -4  12   4    1.05    0.68
   4 -12  -3   43.16    2.81
  -4  12   3   46.31    2.88
   4 -12  -2   51.23    3.05
  -4  12   2   57.11    2.40
  -4  12   2   51.23    3.03
   4 -12  -1   33.89    2.44
  -4  12   1   34.62    1.83
  -4  12   0    4.45    0.68
   4 -12   0    5.86    1.13
  -4  12  -1   48.65    2.38
   4 -12   1   47.98    2.89
  -4  12  -1   49.74    2.24
  -4  12  -2   56.03    2.63
   4 -12   2   56.10    3.10
  -4  12  -2   55.62    2.41
  -4  12  -3    5.96    0.94
  -4  12  -3    6.96    0.94
   4 -12   3    7.64    1.19
  -4  12  -4   12.07    1.30
   4 -12   4   12.36    1.45
  -4  12  -5    9.27    1.19
   4 -12   5   10.90    1.37
   4 -12   5    9.78    1.29
  -4  12  -6    6.97    1.10
   4 -12   6    3.68    0.91
   4 -12   6    5.44    1.03
   4 -12   7    6.15    1.09
  -4  12  -7    5.00    1.04
  -4  12  -7    3.19    0.92
   4 -12   7    5.05    1.01
  -4  12  -8    2.25    0.71
   4 -12   8    2.90    0.84
   4 -12   8    0.75    0.51
  -4  12  -9   -0.39    0.57
   4 -12   9   -0.47    0.54
   4 -12  10    7.85    1.25
  -4  11  11   40.47    2.85
  -4  11  10   50.21    3.06
  -4  11  10   44.92    2.91
   4 -11  -9   31.87    2.46
  -4  11   9   32.28    2.43
  -4  11   9   32.74    2.36
  -4  11   8   36.26    2.10
   4 -11  -8   35.61    2.59
  -4  11   8   33.78    2.48
  -4  11   8   38.86    2.43
   4 -11  -7   98.93    4.38
  -4  11   7  101.67    3.61
  -4  11   7  106.31    4.44
   4 -11  -6   41.62    2.70
  -4  11   6   44.96    2.18
  -4  11   6   37.17    2.54
   4 -11  -5   60.40    3.26
  -4  11   5   64.74    2.61
  -4  11   5   65.18    3.34
  -4  11   4   91.94    3.10
   4 -11  -4   90.68    4.02
  -4  11   4   90.27    3.97
  -4  11   3  134.04    3.86
   4 -11  -3  135.29    4.98
  -4  11   3  130.17    4.84
  -4  11   2    0.44    0.39
   4 -11  -2   -0.29    0.57
  -4  11   2   -0.69    0.59
   4 -11  -1   51.36    2.86
  -4  11   1   52.88    2.16
  -4  11   0  140.73    4.15
   4 -11   0  129.70    4.77
  -4  11   0  135.30    3.81
  -4  11  -1   26.73    1.71
   4 -11   1   28.71    2.09
  -4  11  -1   28.41    1.55
  -4  11  -2    6.70    0.95
  -4  11  -2    7.50    0.83
   4 -11   2    8.07    1.17
  -4  11  -3  101.43    3.70
   4 -11   3  100.42    4.01
  -4  11  -4   71.33    3.09
   4 -11   4   65.46    3.16
  -4  11  -5    3.42    0.76
   4 -11   5    3.76    0.80
   4 -11   5    3.87    0.87
   4 -11   6    0.15    0.53
  -4  11  -6    0.69    0.55
  -4  11  -6    1.18    0.70
   4 -11   6    0.62    0.50
   4 -11   7   82.62    3.46
  -4  11  -7   77.77    3.63
  -4  11  -7   84.99    3.89
   4 -11   7   75.15    3.47
   4 -11   8   24.46    1.82
  -4  11  -8   21.34    1.94
  -4  11  -8   24.84    2.13
   4 -11   8   21.72    1.86
  -4  11  -9   19.80    1.94
  -4  11  -9   15.72    1.73
   4 -11   9   15.62    1.63
  -4  11 -10   33.82    2.56
  -4  11 -10   34.18    2.57
   4 -11  10   31.66    2.29
   4 -11  11   21.70    1.94
   4 -10 -12    1.61    0.76
  -4  10  12    2.01    0.79
  -4  10  12    2.87    0.99
   4 -10 -11    8.18    1.27
  -4  10  11    6.73    1.14
  -4  10  11    6.18    1.17
   4 -10 -10    0.69    0.53
  -4  10  10   -0.64    0.71
  -4  10  10    0.33    0.61
   4 -10  -9    7.30    1.17
  -4  10   9    7.48    1.16
  -4  10   8   14.57    1.30
   4 -10  -8   13.10    1.58
  -4  10   8   14.57    1.59
  -4  10   7    1.24    0.47
   4 -10  -7    0.91    0.65
  -4  10   7   -0.30    0.60
  -4  10   6   28.26    1.66
   4 -10  -6   25.12    2.02
  -4  10   6   28.97    2.09
  -4  10   5   42.18    1.95
   4 -10  -5   38.69    2.47
  -4  10   5   42.53    2.56
  -4  10   4    0.04    0.30
   4 -10  -4    0.28    1.27
  -4  10   4    0.99    0.66
   4 -10  -4    0.70    0.39
  -4  10   3    0.34    0.30
   4 -10  -3    1.15    0.63
  -4  10   3    0.36    0.63
   4 -10  -3    0.81    0.38
  -4  10   2  184.70    4.49
   4 -10  -2  182.87    5.67
  -4  10   2  182.62    5.62
  -4  10   1    0.33    0.36
   4 -10  -1    1.54    0.76
  -4  10   0   23.52    1.51
   4 -10   0   21.10    1.71
  -4  10   0   20.79    1.21
  -4  10  -1  223.34    5.67
   4 -10   1  208.37    6.12
  -4  10  -1  229.10    5.17
  -4  10  -2   -0.50    0.41
   4 -10   2    0.44    0.49
  -4  10  -3  112.52    3.83
   4 -10   3  108.79    3.97
  -4  10  -4   32.40    2.00
   4 -10   4   33.08    2.05
   4 -10   5   65.26    2.92
  -4  10  -5   63.25    2.97
  -4  10  -5   66.04    3.15
   4 -10   5   67.00    3.05
   4 -10   6   27.33    1.84
  -4  10  -6   25.21    1.89
  -4  10  -6   25.06    1.96
   4 -10   6   23.15    1.78
   4 -10   7   22.56    1.65
  -4  10  -7   20.15    1.76
  -4  10  -7   21.14    1.80
   4 -10   7   22.05    1.75
   4 -10   8   97.74    3.55
  -4  10  -8   98.24    4.14
  -4  10  -8   98.93    4.14
   4 -10   8   95.29    3.89
   4 -10   9   29.32    1.82
  -4  10  -9   30.94    2.36
  -4  10  -9   32.71    2.35
   4 -10   9   31.04    2.17
  -4  10 -10    9.45    1.35
   4 -10  10    6.15    1.06
  -4  10 -10    7.03    1.19
  -4  10 -11   33.01    2.46
   4 -10  11   31.81    2.26
  -4  10 -12   31.39    2.44
   4 -10  12   33.70    2.40
   4 -10  13   24.52    2.13
   4  -9 -13   15.53    1.67
  -4   9  13   11.62    1.48
   4  -9 -12   19.21    1.83
  -4   9  12   19.14    1.98
  -4   9  12   20.15    1.89
   4  -9 -11   29.65    2.23
  -4   9  11   31.41    2.31
   4  -9 -11   34.31    2.51
   4  -9 -10    2.76    0.90
  -4   9  10    2.81    0.75
   4  -9 -10    1.63    0.71
   4  -9  -9   12.90    1.52
  -4   9   9   15.08    1.53
  -4   9   8   24.11    1.58
   4  -9  -8   23.46    1.87
  -4   9   8   26.74    1.98
  -4   9   7   38.79    1.94
   4  -9  -7   37.25    2.36
  -4   9   7   36.97    2.30
   4  -9  -7   38.72    1.86
  -4   9   6   42.37    1.95
   4  -9  -6   43.79    2.51
  -4   9   6   44.75    2.51
   4  -9  -6   44.27    1.98
  -4   9   5    0.72    0.36
   4  -9  -5   -0.08    0.55
  -4   9   5    1.19    0.54
   4  -9  -5    1.03    0.42
   4  -9  -4   18.14    1.59
  -4   9   4   16.84    1.10
  -4   9   4   15.25    1.48
   4  -9  -4   15.39    1.13
  -4   9   3  140.80    3.59
   4  -9  -3  137.51    4.61
  -4   9   3  137.12    4.56
   4  -9  -3  141.23    3.89
   4  -9  -2   71.34    3.09
  -4   9   2   70.22    2.26
  -4   9   2   70.66    3.07
   4  -9  -2   70.85    2.57
   4  -9  -1    7.99    1.08
  -4   9   1    9.47    0.76
  -4   9   1   11.57    1.02
   4  -9   0   87.23    3.43
  -4   9   0   90.12    2.60
  -4   9   0   92.44    3.08
  -4   9  -1   30.25    1.39
   4  -9   1   30.16    1.91
  -4   9  -1   30.10    1.70
   4  -9   2   29.66    1.84
  -4   9  -2   25.46    1.60
   4  -9   3  201.70    5.55
  -4   9  -3  203.32    5.43
  -4   9  -3  205.15    4.20
   4  -9   4   13.65    1.25
  -4   9  -4   19.10    0.91
  -4   9  -4   15.79    1.37
  -4   9  -4   14.96    1.39
   4  -9   5   18.59    1.43
  -4   9  -5   17.39    0.90
  -4   9  -5   16.48    1.42
  -4   9  -5   15.30    1.43
   4  -9   5   16.99    1.43
   4  -9   6   -0.09    0.39
  -4   9  -6    1.55    0.58
  -4   9  -6    2.42    0.71
   4  -9   6    0.19    0.46
   4  -9   7   28.45    1.72
  -4   9  -7   33.07    2.17
  -4   9  -7   31.79    2.09
   4  -9   7   34.02    2.10
  -4   9  -8    2.64    0.77
   4  -9   8    1.88    0.52
   4  -9   8    1.08    0.51
  -4   9  -8    2.65    0.82
   4  -9   9   15.07    1.21
  -4   9  -9   17.89    1.70
  -4   9  -9   19.05    1.71
   4  -9   9   13.88    1.41
  -4   9 -10   19.42    1.90
  -4   9 -10   22.99    2.01
   4  -9  10   22.26    1.80
  -4   9 -11    9.76    1.42
  -4   9 -11    7.97    1.21
   4  -9  11    9.25    1.28
  -4   9 -12    8.29    1.21
   4  -9  12   10.37    1.35
  -4   9 -13   31.84    2.38
   4  -9  13   27.29    2.21
   4  -9  14    3.61    0.92
  -4   8  14  152.45    5.54
   4  -8 -13   -0.01    0.51
  -4   8  13    1.49    0.86
  -4   8  13    0.91    0.74
   4  -8 -12   21.27    1.87
  -4   8  12   16.74    1.65
   4  -8 -12   20.08    1.97
   4  -8 -11   61.76    3.14
  -4   8  11   57.83    3.06
   4  -8 -11   62.74    3.34
   4  -8 -10   64.63    3.12
  -4   8  10   58.91    3.01
   4  -8 -10   59.63    3.18
   4  -8  -9   49.90    2.69
  -4   8   9   44.82    2.55
   4  -8  -8   15.09    1.46
   4  -8  -8   12.75    1.13
  -4   8   8   15.22    1.45
   4  -8  -8   14.28    1.16
   4  -8  -7  132.37    3.80
  -4   8   7  132.12    3.80
   4  -8  -7  139.02    4.60
  -4   8   7  130.98    4.45
   4  -8  -7  127.84    3.77
  -4   8   6   28.71    1.49
   4  -8  -6   21.40    1.70
  -4   8   6   23.44    1.74
   4  -8  -6   26.24    1.47
  -4   8   5   34.12    1.55
   4  -8  -5   32.36    2.02
  -4   8   5   32.57    1.99
   4  -8  -5   30.76    1.59
  -4   8   4   47.75    1.78
   4  -8  -4   47.89    2.42
  -4   8   4   49.20    2.43
   4  -8  -4   47.08    2.00
   4  -8  -3   31.15    1.91
  -4   8   3   31.89    1.34
  -4   8   3   32.94    1.95
   4  -8  -3   31.00    1.58
  -4   8   2  100.32    2.62
   4  -8  -2   93.16    3.47
  -4   8   2  106.80    3.65
   4  -8  -2  102.23    3.13
  -4   8   1  119.11    3.48
   4  -8  -1  123.83    3.55
  -4   8   1  120.67    2.92
   4  -8  -1  112.08    3.82
  -4   8   0    8.55    0.87
  -4   8   0    8.67    0.65
   4  -8   0   11.48    1.11
  -4   8  -1   16.23    1.23
  -4   8  -1   15.70    0.92
   4  -8   1   16.44    1.35
  -4   8  -2   22.59    1.44
   4  -8   2   20.33    1.45
  -4   8  -3  180.24    4.93
   4  -8   3  184.44    4.94
  -4   8  -3  181.76    5.01
   4  -8   4   30.20    1.71
  -4   8  -4   32.05    1.78
  -4   8  -4   29.37    1.26
  -4   8  -4   34.46    1.93
  -4   8  -4   30.70    1.85
   4  -8   4   31.23    1.86
   4  -8   5  136.39    3.98
  -4   8  -5  142.23    4.13
  -4   8  -5  142.10    4.41
  -4   8  -5  135.73    3.33
  -4   8  -5  126.57    4.18
   4  -8   5  136.04    4.27
   4  -8   6  133.12    3.91
  -4   8  -6  140.55    4.04
  -4   8  -6  136.11    4.46
  -4   8  -6  137.88    3.47
  -4   8  -6  137.56    4.39
   4  -8   6  132.36    4.27
   4  -8   7   18.19    1.26
  -4   8  -7   19.11    1.30
  -4   8  -7   16.92    1.52
  -4   8  -7   19.31    1.17
  -4   8  -7   19.17    1.52
   4  -8   7   17.41    1.46
  -4   8  -8   11.49    1.33
  -4   8  -8    9.90    0.94
   4  -8   8   10.05    0.93
   4  -8   8   10.18    1.17
  -4   8  -8   10.52    1.21
   4  -8   9  100.55    3.08
  -4   8  -9  102.36    4.15
  -4   8  -9   98.67    3.81
   4  -8   9   94.34    3.73
  -4   8 -10   19.71    1.84
  -4   8 -10   19.83    1.68
   4  -8  10   21.19    1.74
  -4   8 -11    1.70    0.73
   4  -8  11    2.04    0.66
  -4   8 -11    1.70    0.73
  -4   8 -12    0.68    0.58
  -4   8 -12    0.19    0.54
   4  -8  12    0.22    0.65
   4  -8  13    3.11    0.89
  -4   8 -13    3.62    0.92
   4  -8  14    1.02    0.65
  -4   8 -14    0.30    0.58
  -4   7  15    8.87    1.28
  -4   7  14   -0.13    0.60
  -4   7  13    1.67    0.75
   4  -7 -13    2.55    0.86
   4  -7 -12   12.69    1.41
  -4   7  12   12.33    1.41
   4  -7 -12   14.36    1.59
   4  -7 -11   16.96    1.57
  -4   7  11   11.87    1.36
   4  -7 -11   19.57    1.82
   4  -7 -10   10.88    1.22
  -4   7  10   10.95    1.26
   4  -7 -10   15.31    1.55
   4  -7  -9   59.08    2.79
  -4   7   9   55.69    2.74
   4  -7  -9   52.79    2.79
   4  -7  -8   22.07    1.66
   4  -7  -8   20.56    1.36
  -4   7   8   18.54    1.54
   4  -7  -8   22.12    1.44
   4  -7  -7    2.67    0.66
   4  -7  -7    2.60    0.52
  -4   7   7    4.16    0.74
   4  -7  -7    3.66    0.62
  -4   7   6   96.00    2.87
   4  -7  -6   99.30    3.57
   4  -7  -6   92.49    2.82
  -4   7   6   96.34    3.50
   4  -7  -6   97.83    3.08
   4  -7  -5  133.70    3.40
  -4   7   5  137.12    3.44
   4  -7  -5  131.34    4.22
  -4   7   5  136.40    4.23
   4  -7  -5  136.40    3.73
   4  -7  -4   11.03    1.08
  -4   7   4   10.86    0.75
  -4   7   4   10.97    1.12
   4  -7  -4    9.55    0.86
  -4   7   3   44.94    1.52
   4  -7  -3   42.53    2.14
  -4   7   3   47.41    2.23
   4  -7  -3   45.82    1.90
  -4   7   2  138.07    3.09
   4  -7  -2  131.88    4.11
  -4   7   2  152.86    4.39
   4  -7  -2  148.96    4.26
  -4   7   2  142.28    4.20
   4  -7  -2  142.52    3.80
  -4   7   1  101.41    3.36
  -4   7   1   93.51    2.25
   4  -7  -1   87.11    3.12
   4  -7  -1   96.76    3.26
  -4   7   1   90.86    3.19
  -4   7   1   92.32    2.91
   4  -7  -1   92.69    2.93
  -4   7   0  108.06    3.46
  -4   7   0   95.93    2.32
   4  -7   0   93.23    3.21
   4  -7   0  103.73    3.36
  -4   7   0   97.36    3.04
   4  -7   0   98.96    3.07
   4  -7   1   10.63    1.02
  -4   7  -1   10.97    1.03
  -4   7  -1   10.93    0.98
   4  -7   1   13.11    1.14
  -4   7  -2    1.97    0.47
  -4   7  -2    0.95    0.40
   4  -7   2    2.11    0.57
   4  -7   2    2.15    0.52
   4  -7   3   23.34    1.42
  -4   7  -3   22.53    1.42
  -4   7  -3   24.00    1.52
   4  -7   3   25.54    1.55
   4  -7   4  141.93    3.94
  -4   7  -4  146.02    4.07
  -4   7  -4  146.15    3.50
  -4   7  -4  141.21    4.23
  -4   7  -4  144.53    4.19
   4  -7   4  145.77    4.18
   4  -7   4  145.66    4.27
  -4   7  -5   25.07    1.47
   4  -7   5   26.07    1.43
  -4   7  -5   23.59    1.21
  -4   7  -5   28.68    1.74
   4  -7   5   25.09    1.57
  -4   7  -5   26.41    1.61
   4  -7   5   24.26    1.58
  -4   7  -6    1.57    0.56
  -4   7  -6    2.20    0.45
  -4   7  -6    1.78    0.50
   4  -7   6    1.64    0.44
  -4   7  -6    1.01    0.40
   4  -7   6    1.87    0.56
   4  -7   7   54.53    2.06
  -4   7  -7   53.14    2.06
  -4   7  -7   51.20    2.06
  -4   7  -7   50.39    2.57
  -4   7  -7   54.46    2.46
   4  -7   7   52.52    2.47
   4  -7   8  129.66    3.41
  -4   7  -8  123.17    3.64
  -4   7  -8  122.36    3.35
  -4   7  -8  121.47    4.36
  -4   7  -8  128.50    4.11
   4  -7   8  118.96    4.07
   4  -7   8  121.74    3.62
  -4   7  -9    1.05    0.32
  -4   7  -9    1.60    0.62
   4  -7   9    0.78    0.27
   4  -7   9    1.13    0.36
   4  -7   9    0.90    0.48
  -4   7  -9    0.54    0.42
   4  -7  10   36.94    1.45
  -4   7 -10   34.62    2.36
  -4   7 -10   37.77    2.19
   4  -7  10   37.55    2.25
  -4   7 -11    3.19    0.90
   4  -7  11    3.18    0.75
  -4   7 -11    4.90    0.88
  -4   7 -12    1.18    0.65
  -4   7 -12    1.17    0.57
   4  -7  12    1.75    0.69
  -4   7 -13    2.00    0.79
   4  -7  13    2.00    0.79
  -4   7 -13    1.54    0.63
  -4   7 -14   34.72    2.38
   4  -7  14   36.88    2.54
   4  -7  15    6.89    1.21
  -4   7 -15    7.31    1.22
  -4   6  16    1.70    0.75
  -4   6  15    3.12    0.83
  -4   6  14    7.24    1.18
   4  -6 -14   10.03    1.41
  -4   6  13   27.97    2.10
   4  -6 -13   31.32    2.35
  -4   6  12    2.37    0.67
   4  -6 -12    3.67    0.89
  -4   6  11   81.25    3.44
   4  -6 -11   82.01    3.63
   4  -6 -10   61.78    2.81
  -4   6  10   60.06    2.86
   4  -6 -10   63.97    3.07
   4  -6  -9  121.84    4.04
   4  -6  -9  112.01    3.59
  -4   6   9  114.34    3.97
   4  -6  -9  114.83    4.13
   4  -6  -8  523.97   10.72
   4  -6  -8  498.52    9.95
  -4   6   8  500.04   10.63
   4  -6  -8  510.32   10.86
   4  -6  -7  135.53    4.24
   4  -6  -7  141.20    3.72
  -4   6   7  138.56    4.29
   4  -6  -6    3.60    0.69
   4  -6  -6    3.46    0.51
  -4   6   6    6.05    0.83
   4  -6  -6    3.66    0.57
   4  -6  -5   25.55    1.19
  -4   6   5   27.65    1.71
   4  -6  -5   24.51    1.58
  -4   6   5   26.06    1.61
   4  -6  -5   25.25    1.40
   4  -6  -4   93.90    2.41
  -4   6   4  103.23    3.38
   4  -6  -4   92.65    3.22
  -4   6   4   93.00    2.41
  -4   6   4   94.06    3.20
   4  -6  -4   92.27    2.86
   4  -6  -3   10.35    1.01
  -4   6   3   11.30    0.65
  -4   6   3   11.69    1.08
  -4   6   3   11.31    1.03
   4  -6  -3   11.27    0.90
  -4   6   2    3.65    0.33
   4  -6  -2    3.90    0.65
  -4   6   2    3.49    0.61
  -4   6   2    4.57    0.72
   4  -6  -2    3.99    0.55
  -4   6   1  191.97    4.74
  -4   6   1  174.35    3.35
   4  -6  -1  175.64    4.58
   4  -6  -1  181.81    4.61
  -4   6   1  170.71    4.55
   4  -6  -1  179.06    4.38
  -4   6   1  176.28    4.34
  -4   6   0   70.21    2.53
  -4   6   0   64.01    1.55
   4  -6   0   64.59    2.41
   4  -6   0   66.35    2.46
  -4   6   0   65.05    2.33
   4  -6   0   65.64    2.34
   4  -6   1   61.91    2.33
  -4   6  -1   64.58    2.42
   4  -6   1   64.60    2.41
  -4   6  -1   64.55    2.36
   4  -6   1   66.75    2.40
  -4   6  -2   90.72    2.85
   4  -6   2   80.64    2.68
   4  -6   2   80.26    2.73
  -4   6  -2   82.99    2.79
  -4   6  -3   35.26    1.68
   4  -6   3   36.17    1.65
  -4   6  -3   37.54    1.84
   4  -6   3   39.28    1.80
  -4   6  -4  139.11    3.65
   4  -6   4  137.32    3.58
  -4   6  -4  134.66    3.36
  -4   6  -4  133.62    3.97
  -4   6  -4  136.87    3.80
   4  -6   4  135.57    3.78
   4  -6   4  125.18    3.83
  -4   6  -5  191.74    4.57
   4  -6   5  199.42    4.55
  -4   6  -5  192.28    4.47
  -4   6  -5  192.54    5.17
   4  -6   5  197.52    4.90
  -4   6  -5  191.99    4.86
   4  -6   5  194.44    5.07
  -4   6  -6   48.21    1.85
   4  -6   6   50.10    1.82
  -4   6  -6   43.91    2.25
  -4   6  -6   48.36    1.93
  -4   6  -6   48.81    2.12
   4  -6   6   51.94    2.17
   4  -6   6   48.25    2.23
  -4   6  -7    5.50    0.71
  -4   6  -7    6.50    0.97
  -4   6  -7    6.08    0.61
   4  -6   7    6.49    0.62
  -4   6  -7    5.06    0.72
   4  -6   7    6.41    0.87
   4  -6   7    4.54    0.67
   4  -6   8  120.37    2.99
  -4   6  -8  113.63    2.95
  -4   6  -8  124.50    4.25
  -4   6  -8  116.30    3.57
   4  -6   8  118.73    3.69
  -4   6  -8  116.24    3.71
   4  -6   8  119.94    3.94
   4  -6   8  110.50    3.22
   4  -6   9   29.63    1.19
  -4   6  -9   26.65    1.65
  -4   6  -9   28.97    1.17
  -4   6  -9   27.06    1.94
  -4   6  -9   27.10    1.69
   4  -6   9   27.06    1.81
   4  -6   9   29.12    1.50
  -4   6 -10    8.78    1.22
   4  -6  10    9.25    0.56
   4  -6  10   10.06    1.17
   4  -6  10    9.22    0.89
  -4   6 -10    8.32    0.99
  -4   6 -11   78.53    3.67
  -4   6 -11   75.18    3.11
   4  -6  11   79.30    3.40
  -4   6 -12   55.03    3.14
  -4   6 -12   56.94    2.74
   4  -6  12   53.57    2.87
  -4   6 -13   -0.19    0.59
   4  -6  13    0.00    0.56
  -4   6 -13    0.67    0.58
  -4   6 -14    1.30    0.74
   4  -6  14    1.12    0.70
  -4   6 -15   19.73    1.77
   4  -6  15   20.60    1.95
  -4   5  16   24.43    2.06
  -4   5  15   14.56    1.58
   4  -5 -15   18.71    1.92
  -4   5  14    0.46    0.55
   4  -5 -14    1.64    0.75
  -4   5  13    5.45    1.03
   4  -5 -13    6.60    1.15
  -4   5  12   16.41    1.52
   4  -5 -12   11.87    1.41
  -4   5  11   -0.14    0.49
   4  -5 -11    0.51    0.52
  -4   5  10   73.25    3.08
   4  -5 -10   74.04    3.23
   4  -5  -9   23.99    1.61
   4  -5  -9   23.79    1.48
  -4   5   9   22.73    1.64
   4  -5  -9   22.14    1.67
   4  -5  -8   13.88    1.21
   4  -5  -8   16.08    1.13
  -4   5   8   16.39    1.33
   4  -5  -8   15.98    1.39
  -4   5   7  143.35    4.21
   4  -5  -7  129.45    3.96
   4  -5  -7  129.79    3.48
  -4   5   7  127.93    3.98
   4  -5  -7  131.36    4.11
  -4   5   6    4.28    0.72
   4  -5  -6    3.21    0.44
   4  -5  -6    4.40    0.73
   4  -5  -6    3.88    0.67
  -4   5   6    4.12    0.70
   4  -5  -6    4.87    0.77
  -4   5   5  107.72    3.41
   4  -5  -5  100.80    3.28
   4  -5  -5   99.46    2.60
  -4   5   5  103.34    3.30
   4  -5  -5  103.74    3.09
   4  -5  -4   70.94    1.93
   4  -5  -4   74.71    2.67
  -4   5   4   73.44    2.71
  -4   5   4   74.82    2.67
   4  -5  -4   78.56    2.52
   4  -5  -3    0.80    0.43
  -4   5   3    0.94    0.45
   4  -5  -3    0.79    0.19
  -4   5   3    0.28    0.36
   4  -5  -3    0.62    0.31
  -4   5   2  430.67    8.49
  -4   5   2  409.57    6.91
   4  -5  -2  409.84    8.33
  -4   5   2  412.26    8.32
   4  -5  -2  418.96    8.11
  -4   5   1    9.00    0.86
  -4   5   1    9.36    0.36
   4  -5  -1   10.94    0.91
  -4   5   1    9.22    0.87
  -4   5   1   11.27    0.92
   4  -5  -1    9.31    0.81
  -4   5   0   90.09    2.81
  -4   5   0   89.27    1.68
   4  -5   0   89.67    2.77
   4  -5   0   90.27    2.75
  -4   5   0   89.40    2.76
  -4   5   0   87.06    2.70
   4  -5   0   93.50    2.79
  -4   5  -1  227.13    5.10
   4  -5   1  219.08    4.99
  -4   5  -1  219.36    5.09
   4  -5   1  229.95    5.16
   4  -5   1  215.89    4.98
  -4   5  -2    2.13    0.48
   4  -5   2    2.46    0.49
  -4   5  -2    2.07    0.43
   4  -5   2    1.43    0.39
   4  -5   2    2.18    0.48
   4  -5   3   27.16    1.31
  -4   5  -3   28.08    1.35
  -4   5  -3   29.09    1.54
   4  -5   3   27.51    1.37
  -4   5  -3   29.40    1.41
   4  -5   3   28.23    1.50
  -4   5  -4  110.31    2.94
   4  -5   4  108.72    2.86
  -4   5  -4  104.21    3.32
  -4   5  -4  107.86    2.93
  -4   5  -4  105.61    3.03
   4  -5   4  105.05    3.03
   4  -5   4  103.72    3.25
   4  -5   5   56.28    1.85
  -4   5  -5   55.15    1.88
  -4   5  -5   53.41    1.98
  -4   5  -5   56.87    2.39
  -4   5  -5   55.88    2.09
   4  -5   5   56.72    2.08
   4  -5   5   56.20    2.30
  -4   5  -6   41.25    1.70
   4  -5   6   39.84    1.46
  -4   5  -6   40.13    1.50
  -4   5  -6   39.19    1.75
  -4   5  -6   41.88    2.09
  -4   5  -6   43.21    1.84
   4  -5   6   42.27    1.79
   4  -5   6   39.25    1.97
  -4   5  -7   53.81    2.15
   4  -5   7   61.43    1.79
  -4   5  -7   57.40    1.77
  -4   5  -7   58.33    2.61
  -4   5  -7   61.56    2.35
  -4   5  -7   58.87    2.26
   4  -5   7   58.14    2.22
   4  -5   7   57.48    2.47
   4  -5   7   55.07    1.89
   4  -5   8   22.37    0.92
  -4   5  -8   21.13    1.38
  -4   5  -8   22.12    0.93
  -4   5  -8   23.73    1.70
  -4   5  -8   24.30    1.50
  -4   5  -8   21.59    1.36
   4  -5   8   21.67    1.34
   4  -5   8   22.71    1.56
   4  -5   8   20.72    1.12
  -4   5  -9   78.60    1.78
  -4   5  -9   74.86    2.95
  -4   5  -9   75.04    3.24
   4  -5   9   73.64    2.74
  -4   5  -9   75.81    2.78
   4  -5   9   76.80    3.08
   4  -5   9   72.44    2.38
  -4   5 -10  215.46    6.26
  -4   5 -10  219.93    5.55
  -4   5 -10  218.37    5.21
   4  -5  10  213.27    4.98
   4  -5  10  215.41    5.96
  -4   5 -11   22.08    1.85
  -4   5 -11   25.77    1.48
  -4   5 -11   27.29    1.71
   4  -5  11   26.15    1.87
   4  -5  11   24.59    1.40
  -4   5 -12   36.74    2.53
  -4   5 -12   40.59    2.18
   4  -5  12   40.93    2.43
  -4   5 -13  137.09    5.29
  -4   5 -13  138.49    4.52
   4  -5  13  139.49    4.98
  -4   5 -14  100.97    4.57
  -4   5 -14   96.47    3.77
   4  -5  14   99.76    4.25
   4  -5  15    6.40    1.12
  -4   5 -15    4.29    0.87
  -4   4  17   10.37    1.41
  -4   4  16   32.95    2.38
  -4   4  15   30.15    2.24
   4  -4 -15   36.81    2.60
  -4   4  14   40.33    2.48
   4  -4 -14   43.31    2.74
  -4   4  13   59.92    2.98
   4  -4 -13   59.64    3.12
  -4   4  12   44.40    2.45
   4  -4 -12   47.27    2.64
  -4   4  11   14.88    1.39
   4  -4 -11   14.57    1.44
  -4   4  10   27.17    1.79
   4  -4 -10   27.46    1.88
   4  -4  -9   16.54    1.21
  -4   4   9   17.48    1.37
   4  -4  -9   11.52    1.18
  -4   4   8  246.78    5.93
   4  -4  -8  232.91    5.45
  -4   4   8  233.25    5.89
   4  -4  -8  237.37    6.04
  -4   4   7   17.37    1.24
   4  -4  -7   15.92    1.22
   4  -4  -7   15.64    1.02
   4  -4  -7   17.87    1.30
  -4   4   7   15.28    1.23
   4  -4  -7   17.33    1.32
  -4   4   6   38.57    1.86
   4  -4  -6   34.47    1.76
   4  -4  -6   35.94    1.46
   4  -4  -6   38.26    1.86
  -4   4   6   35.68    1.80
   4  -4  -6   36.29    1.84
  -4   4   5   15.83    1.16
   4  -4  -5   16.09    1.15
   4  -4  -5   14.93    0.83
   4  -4  -5   16.23    1.17
  -4   4   5   15.03    1.11
   4  -4  -5   12.71    1.05
  -4   4   4   36.22    1.71
   4  -4  -4   33.51    1.65
   4  -4  -4   34.34    1.17
   4  -4  -4   37.12    1.72
  -4   4   4   35.00    1.68
   4  -4  -4   35.13    1.59
  -4   4   3  193.90    4.67
   4  -4  -3  192.49    4.60
   4  -4  -3  186.81    3.55
  -4   4   3  190.67    4.58
   4  -4  -3  193.05    4.61
   4  -4  -3  193.98    4.48
  -4   4   2   41.02    1.76
   4  -4  -2   42.74    1.77
  -4   4   2   42.17    1.75
   4  -4  -2   41.21    1.68
   4  -4  -1    6.97    0.73
  -4   4   1    5.46    0.64
  -4   4   1    5.28    0.65
   4  -4  -1    5.36    0.60
  -4   4   1    7.42    0.74
  -4   4   0  225.17    4.93
   4  -4   0  218.88    4.86
  -4   4   0  218.96    4.87
   4  -4   0  220.49    4.79
  -4   4   0  224.66    4.97
   4  -4   0  221.69    4.95
  -4   4  -1   13.83    0.92
   4  -4   1   15.70    0.96
  -4   4  -1   14.66    0.44
   4  -4   1   17.52    0.98
  -4   4  -1   16.32    0.99
  -4   4  -1   14.88    1.01
   4  -4   1   14.65    1.00
  -4   4  -2   62.58    2.01
  -4   4  -2   60.75    1.45
   4  -4   2   61.21    1.96
   4  -4   2   66.42    2.27
  -4   4  -2   59.71    2.17
   4  -4   2   58.82    1.92
  -4   4  -3   27.09    1.20
   4  -4   3   27.38    1.19
  -4   4  -3   24.75    0.95
  -4   4  -3   26.03    1.42
   4  -4   3   25.01    1.17
   4  -4   3   25.45    1.38
  -4   4  -4   35.98    1.32
   4  -4   4   36.90    1.36
  -4   4  -4   36.72    1.39
  -4   4  -4   37.74    1.79
  -4   4  -4   37.96    1.58
  -4   4  -4   35.53    1.45
   4  -4   4   34.95    1.43
   4  -4   4   39.89    1.77
  -4   4  -5    5.24    0.74
  -4   4  -5    3.71    0.53
  -4   4  -5    3.28    0.48
  -4   4  -5    3.38    0.42
   4  -4   5    2.98    0.38
   4  -4   5    3.41    0.59
  -4   4  -5    3.38    0.49
   4  -4   5    3.97    0.48
  -4   4  -6    0.71    0.35
  -4   4  -6    0.29    0.20
  -4   4  -6    0.23    0.40
  -4   4  -6    0.40    0.28
   4  -4   6    0.11    0.18
   4  -4   6    0.00    0.18
  -4   4  -6   -0.21    0.26
   4  -4   6    0.33    0.30
   4  -4   6    0.10    0.40
  -4   4  -7    0.31    0.43
  -4   4  -7    0.60    0.31
  -4   4  -7    0.95    0.21
  -4   4  -7    1.40    0.40
   4  -4   7    1.67    0.56
   4  -4   7    1.28    0.27
  -4   4  -7    0.92    0.33
   4  -4   7    1.06    0.33
  -4   4  -8    0.83    0.16
  -4   4  -8    0.38    0.41
  -4   4  -8    0.87    0.51
  -4   4  -8    0.92    0.43
   4  -4   8    0.64    0.28
   4  -4   8    0.76    0.51
  -4   4  -8    0.83    0.37
   4  -4   8    1.10    0.28
  -4   4  -9    0.68    0.35
  -4   4  -9    0.88    0.42
  -4   4  -9    0.49    0.44
  -4   4  -9    0.68    0.29
  -4   4  -9    0.75    0.33
   4  -4   9    0.47    0.26
   4  -4   9    1.09    0.51
  -4   4 -10    0.60    0.47
  -4   4 -10    1.68    0.42
   4  -4  10    1.30    0.36
  -4   4 -10    1.61    0.47
   4  -4  10    2.01    0.59
  -4   4 -11    7.88    1.11
  -4   4 -11    9.27    0.81
  -4   4 -11    9.93    1.00
   4  -4  11    8.67    0.79
   4  -4  11    9.59    1.18
  -4   4 -12    1.22    0.65
   4  -4  12    2.58    0.77
  -4   4 -12    1.43    0.53
  -4   4 -13   -0.08    0.55
   4  -4  13    0.16    0.58
  -4   4 -13   -0.56    0.53
  -4   4 -14    2.72    0.85
   4  -4  14    2.95    0.79
  -4   4 -14    4.29    0.80
  -4   4 -15   49.99    3.18
  -4   4 -15   43.61    2.44
   4  -4  15   45.01    2.86
  -4   3  17    4.70    1.02
  -4   3  16    4.33    0.93
  -4   3  15   30.51    2.24
   4  -3 -15   34.09    2.45
  -4   3  14   20.91    1.78
   4  -3 -14   24.37    2.01
  -4   3  13   38.65    2.33
   4  -3 -13   38.23    2.45
  -4   3  12   60.81    2.86
   4  -3 -12   62.99    3.04
  -4   3  11   18.73    1.52
   4  -3 -11   17.53    1.53
  -4   3  10   53.24    2.37
  -4   3  10   57.82    2.58
   4  -3 -10   51.42    2.54
   4  -3  -9  166.10    4.43
  -4   3   9  157.53    4.44
  -4   3   9  161.93    4.63
   4  -3  -9  157.55    4.68
  -4   3   8   84.90    2.96
   4  -3  -8   81.29    2.72
  -4   3   8   84.12    3.02
   4  -3  -8   90.10    3.11
   4  -3  -8   82.52    3.06
   4  -3  -7  161.24    3.98
  -4   3   7  161.56    4.33
   4  -3  -7  166.63    4.44
  -4   3   7  153.97    4.31
   4  -3  -7  158.84    4.40
   4  -3  -6  407.19    7.91
  -4   3   6  436.15    8.58
   4  -3  -6  438.34    8.66
  -4   3   6  420.91    8.57
   4  -3  -6  411.53    8.55
  -4   3   5   63.32    2.30
   4  -3  -5   62.62    1.86
   4  -3  -5   64.23    2.33
  -4   3   5   61.22    2.29
   4  -3  -5   61.53    2.27
   4  -3  -4   53.75    1.53
  -4   3   4   56.68    2.08
   4  -3  -4   53.24    2.04
  -4   3   4   50.91    1.99
   4  -3  -4   53.07    1.98
   4  -3  -3  456.00    8.69
   4  -3  -3  443.46    7.63
  -4   3   3  464.67    8.77
   4  -3  -3  461.85    8.65
   4  -3  -3  447.07    8.66
  -4   3   3  460.19    8.69
   4  -3  -3  454.43    8.52
   4  -3  -2 1817.26   28.62
   4  -3  -2 1850.28   30.01
  -4   3   2 1860.56   30.06
   4  -3  -2 1843.44   29.98
  -4   3   2 1832.46   29.94
   4  -3  -2 1850.22   29.98
   4  -3  -2 1834.87   29.70
   4  -3  -1   10.72    0.85
  -4   3   1   11.44    0.86
  -4   3   1   10.42    0.79
   4  -3  -1   10.50    0.86
   4  -3  -1   14.66    1.05
   4  -3   0  737.41   13.01
  -4   3   0  779.65   13.08
  -4   3   0  760.10   12.96
  -4   3   0  739.57   13.17
   4  -3   0  731.33   13.16
   4  -3   1 1300.07   21.29
  -4   3  -1 1280.74   21.33
  -4   3  -1 1284.90   20.20
  -4   3  -1 1297.42   21.63
   4  -3   1 1270.35   21.61
  -4   3  -1 1297.08   21.25
   4  -3   1 1319.12   21.12
   4  -3   2  213.15    4.37
  -4   3  -2  206.55    3.81
  -4   3  -2  208.12    4.37
  -4   3  -2  213.26    4.79
   4  -3   2  217.34    4.81
  -4   3  -2  210.51    4.34
   4  -3   2  205.49    4.23
   4  -3   2  211.49    4.71
  -4   3  -3   46.32    1.52
   4  -3   3   45.95    1.51
  -4   3  -3   46.94    1.37
   4  -3   3   49.62    1.92
  -4   3  -3   44.06    1.83
   4  -3   3   47.23    1.48
   4  -3   3   51.59    1.91
  -4   3  -4  384.47    6.88
  -4   3  -4  381.04    6.97
  -4   3  -4  377.15    7.48
  -4   3  -4  374.92    7.73
  -4   3  -4  368.94    6.93
   4  -3   4  375.68    6.92
   4  -3   4  392.49    7.71
  -4   3  -5  388.47    6.88
  -4   3  -5  384.14    7.36
  -4   3  -5  383.90    7.79
  -4   3  -5  382.26    8.01
  -4   3  -5  402.63    7.23
   4  -3   5  385.45    7.14
  -4   3  -5  389.46    7.99
   4  -3   5  397.96    7.98
   4  -3   5  382.69    6.63
  -4   3  -6  157.76    3.16
  -4   3  -6  160.51    3.93
  -4   3  -6  165.30    4.26
  -4   3  -6  158.64    4.38
   4  -3   6  162.48    3.64
  -4   3  -6  165.06    3.69
  -4   3  -6  161.55    4.32
   4  -3   6  164.11    4.34
   4  -3   6  162.31    3.21
  -4   3  -7   52.66    2.07
  -4   3  -7   52.53    1.19
  -4   3  -7   48.77    2.25
  -4   3  -7   53.79    2.24
   4  -3   7   48.38    1.73
  -4   3  -7   50.52    1.78
  -4   3  -7   55.63    2.32
   4  -3   7   49.01    1.46
   4  -3   7   53.45    2.27
  -4   3  -8   60.92    2.37
  -4   3  -8   55.63    2.43
  -4   3  -8   53.80    2.48
  -4   3  -8   59.21    1.81
  -4   3  -8   59.55    2.03
   4  -3   8   57.63    2.48
   4  -3   8   56.03    1.70
  -4   3  -9   16.23    1.27
  -4   3  -9   16.64    1.40
  -4   3  -9   13.48    0.82
  -4   3  -9   16.56    1.07
   4  -3   9   15.34    1.34
   4  -3   9   14.21    0.85
  -4   3 -10    0.62    0.49
  -4   3 -10    0.56    0.26
   4  -3  10    0.58    0.43
  -4   3 -10    0.42    0.37
   4  -3  10    0.87    0.27
  -4   3 -11   31.84    2.11
  -4   3 -11   34.22    1.42
  -4   3 -11   31.40    1.65
   4  -3  11   35.05    1.52
   4  -3  11   35.54    2.16
  -4   3 -12   12.55    1.42
  -4   3 -12   12.49    1.11
   4  -3  12   14.20    1.46
  -4   3 -13    2.51    0.81
   4  -3  13    3.36    0.82
  -4   3 -13    3.85    0.73
  -4   3 -14    1.80    0.60
   4  -3  14    4.53    1.01
  -4   3 -14    3.66    0.77
  -4   3 -15    3.68    0.97
  -4   2  17   52.87    3.08
  -4   2  16    3.19    0.85
   4  -2 -16    3.28    0.85
  -4   2  15   12.89    1.47
   4  -2 -15   15.09    1.63
  -4   2  14    0.13    0.59
   4  -2 -14    1.05    0.67
  -4   2  13    6.20    1.00
   4  -2 -13    8.01    1.17
  -4   2  12    0.74    0.53
   4  -2 -12    0.46    0.53
  -4   2  11    5.38    0.89
   4  -2 -11    5.23    0.92
  -4   2  10    3.35    0.58
  -4   2  10    2.90    0.64
   4  -2 -10    3.69    0.75
   4  -2  -9    4.69    0.70
  -4   2   9    5.61    0.79
  -4   2   9    5.29    0.80
   4  -2  -9    5.33    0.83
  -4   2   8   24.11    1.42
   4  -2  -8   21.47    1.31
  -4   2   8   21.66    1.44
   4  -2  -8   23.89    1.49
   4  -2  -8   21.92    1.47
  -4   2   7   39.54    1.81
  -4   2   7   41.24    1.92
   4  -2  -7   39.47    1.89
   4  -2  -7   40.43    1.91
  -4   2   6    7.13    0.77
  -4   2   6    6.70    0.79
   4  -2  -6    6.91    0.76
   4  -2  -6    5.64    0.68
  -4   2   5    9.75    0.85
   4  -2  -5    9.31    0.82
  -4   2   5   10.48    0.89
   4  -2  -5    8.85    0.82
  -4   2   4  193.22    4.57
   4  -2  -4  207.75    4.67
  -4   2   4  197.84    4.61
   4  -2  -4  201.55    4.54
  -4   2   3  106.75    2.92
   4  -2  -3  104.25    2.87
  -4   2   3  105.00    2.87
   4  -2  -3  105.40    2.78
  -4   2   2   71.42    2.23
   4  -2  -2   72.26    2.26
   4  -2  -2   73.50    2.20
  -4   2   2   72.69    2.19
   4  -2  -2   75.27    2.09
  -4   2   1  397.93    7.54
   4  -2  -1  397.00    7.62
   4  -2  -1  410.55    7.48
  -4   2   1  396.42    7.44
   4  -2  -1  401.98    7.18
  -4   2   0  377.63    6.93
   4  -2   0  344.79    5.94
  -4   2   0  372.26    7.08
   4  -2   0  373.44    7.08
   4  -2   0  370.16    6.77
  -4   2   0  376.38    6.77
   4  -2   0  381.84    6.44
  -4   2  -1   34.67    0.95
  -4   2  -1   36.45    1.35
   4  -2   1   37.24    0.96
  -4   2  -1   37.48    1.56
   4  -2   1   40.70    1.62
  -4   2  -1   36.89    1.29
   4  -2   1   38.21    1.47
   4  -2   1   37.46    1.04
   4  -2   2  520.36    8.90
  -4   2  -2  554.60    9.33
  -4   2  -2  523.20    8.91
  -4   2  -2  533.30    9.80
   4  -2   2  536.92    9.80
  -4   2  -2  543.89    9.15
   4  -2   2  518.65    8.95
   4  -2   2  540.68    9.70
   4  -2   2  530.46    8.60
  -4   2  -3  567.24    9.76
  -4   2  -3  565.93    9.74
  -4   2  -3  570.66   10.47
   4  -2   3  572.80   10.50
  -4   2  -3  581.89    9.66
   4  -2   3  557.69    9.49
   4  -2   3  568.30   10.41
  -4   2  -4   55.12    1.72
  -4   2  -4   54.60    1.51
  -4   2  -4   50.97    2.00
  -4   2  -4   54.96    2.03
  -4   2  -4   55.60    1.47
  -4   2  -4   54.63    1.48
   4  -2   4   54.92    1.45
  -4   2  -4   53.53    2.03
   4  -2   4   54.50    2.03
  -4   2  -5  412.28    7.00
  -4   2  -5  409.41    7.71
  -4   2  -5  413.07    8.18
  -4   2  -5  405.33    8.20
  -4   2  -5  404.98    7.15
   4  -2   5  406.78    7.12
   4  -2   5  398.65    6.58
   4  -2   5  412.10    8.18
  -4   2  -5  426.04    8.26
  -4   2  -6  586.09    9.55
  -4   2  -6  588.74   10.76
  -4   2  -6  580.71   11.16
  -4   2  -6  568.21   11.15
  -4   2  -6  593.86   10.04
   4  -2   6  590.34   11.17
   4  -2   6  570.35    9.52
  -4   2  -6  620.28   11.30
  -4   2  -7  247.98    5.60
  -4   2  -7  241.07    5.88
  -4   2  -7  249.22    5.94
  -4   2  -7  249.61    4.58
  -4   2  -7  238.39    4.88
   4  -2   7  244.61    5.89
  -4   2  -7  252.48    5.95
  -4   2  -8    6.30    0.79
  -4   2  -8    5.64    0.79
  -4   2  -8    5.49    0.82
  -4   2  -8    6.22    0.45
  -4   2  -8    5.97    0.58
   4  -2   8    6.43    0.86
  -4   2  -9  133.71    4.01
  -4   2  -9  125.95    4.08
  -4   2  -9  126.42    3.27
  -4   2  -9  126.49    2.80
   4  -2   9  133.73    4.15
  -4   2 -10  176.07    5.28
  -4   2 -10  190.87    3.84
  -4   2 -10  184.17    4.41
   4  -2  10  188.31    5.35
  -4   2 -11   11.78    1.27
  -4   2 -11   11.68    0.97
  -4   2 -11   12.45    0.72
   4  -2  11   13.50    1.36
  -4   2 -12   37.77    2.35
  -4   2 -12   38.11    1.84
   4  -2  12   38.38    2.36
  -4   2 -13   89.62    3.90
  -4   2 -13   98.01    3.25
   4  -2  13   95.13    3.97
  -4   2 -14   25.45    2.15
  -4   2 -14   29.77    1.75
  -4   2 -15    1.14    0.53
  -4   2 -16   14.83    1.77
  -4   1  17   24.82    2.15
  -4   1  16   -0.03    0.59
   4  -1 -16   -0.08    0.67
   4  -1 -16    1.29    0.78
  -4   1  15    4.45    0.91
   4  -1 -15    3.10    0.81
  -4   1  14    3.83    0.84
   4  -1 -14    4.92    0.98
  -4   1  13   28.16    1.96
   4  -1 -13   27.16    2.01
  -4   1  12   17.91    1.51
   4  -1 -12   17.25    1.57
  -4   1  11   14.69    1.20
  -4   1  11   12.40    1.22
   4  -1 -11   12.04    1.25
   4  -1 -11   12.73    1.08
  -4   1  10    6.56    0.77
  -4   1  10    5.74    0.86
   4  -1 -10    7.07    0.98
  -4   1   9    1.42    0.44
  -4   1   9    4.05    0.72
   4  -1  -9    1.88    0.54
  -4   1   8    5.39    0.68
  -4   1   8    4.30    0.71
   4  -1  -8    3.62    0.60
   4  -1  -8    4.23    0.73
  -4   1   8    4.47    0.70
  -4   1   7    0.80    0.33
  -4   1   7    0.32    0.39
   4  -1  -7    1.14    0.41
   4  -1  -7    0.62    0.38
  -4   1   7    0.59    0.31
  -4   1   6    0.35    0.33
  -4   1   6    0.25    0.35
   4  -1  -6    0.72    0.39
  -4   1   6    0.61    0.35
   4  -1  -6    0.85    0.40
  -4   1   5    0.34    0.32
   4  -1  -5    1.00    0.37
  -4   1   5    0.78    0.42
   4  -1  -5    0.23    0.33
  -4   1   5    0.59    0.37
  -4   1   4    2.47    0.52
   4  -1  -4    2.62    0.47
   4  -1  -4    2.45    0.49
  -4   1   4    2.58    0.44
  -4   1   3   53.63    1.87
   4  -1  -3   54.34    1.86
   4  -1  -3   52.53    1.77
  -4   1   3   50.85    1.75
   4  -1  -2    8.88    0.68
  -4   1   2    8.07    0.69
   4  -1  -2    8.19    0.61
  -4   1   2    7.98    0.60
   4  -1  -1    1.10    0.40
  -4   1   1    1.34    0.36
   4  -1  -1    1.32    0.37
   4  -1  -1    1.28    0.28
  -4   1   1    1.21    0.27
   4  -1   0  136.57    2.76
   4  -1   0  138.28    3.35
   4  -1   0  140.44    3.07
  -4   1   0  143.44    3.07
   4  -1   0  138.07    3.15
  -4   1   0  137.29    2.79
   4  -1   0  141.77    2.80
   4  -1   1  164.91    3.26
  -4   1  -1  169.65    3.83
   4  -1   1  166.82    3.81
   4  -1   1  160.96    3.35
  -4   1  -1  169.37    3.38
   4  -1   1  167.65    3.69
   4  -1   1  165.59    3.00
   4  -1   2    8.44    0.55
  -4   1  -2    7.95    0.53
  -4   1  -2    9.15    0.74
   4  -1   2   10.08    0.76
   4  -1   2    8.22    0.38
  -4   1  -2    8.72    0.50
  -4   1  -2    7.94    0.67
   4  -1   2    8.98    0.73
   4  -1   3   64.75    1.84
  -4   1  -3   65.68    1.84
  -4   1  -3   62.43    2.08
   4  -1   3   63.41    2.10
   4  -1   3   63.28    1.29
  -4   1  -3   61.96    1.46
   4  -1   3   63.22    2.08
  -4   1  -3   63.50    2.09
   4  -1   4    0.99    0.32
  -4   1  -4    0.99    0.33
  -4   1  -4    0.90    0.21
  -4   1  -4    1.44    0.40
  -4   1  -4    1.43    0.40
  -4   1  -4    1.30    0.18
   4  -1   4    1.44    0.42
  -4   1  -4    1.16    0.39
  -4   1  -5  289.17    5.17
   4  -1   5  290.31    5.97
  -4   1  -5  290.84    5.98
  -4   1  -5  293.72    5.18
  -4   1  -5  292.61    6.37
  -4   1  -5  292.03    6.23
  -4   1  -5  293.65    4.85
  -4   1  -5  282.86    5.02
   4  -1   5  299.40    6.32
  -4   1  -5  301.72    6.38
   4  -1   6    7.95    0.74
  -4   1  -6    7.12    0.72
  -4   1  -6    8.05    0.40
  -4   1  -6    6.98    0.77
  -4   1  -6    8.02    0.40
  -4   1  -6    8.61    0.87
  -4   1  -6    7.09    0.30
  -4   1  -6    7.42    0.46
  -4   1  -6    7.40    0.30
  -4   1  -6    8.58    0.85
   4  -1   6    7.79    0.84
  -4   1  -7   14.71    1.09
  -4   1  -7   14.63    1.12
  -4   1  -7   13.62    1.14
  -4   1  -7   14.43    0.45
  -4   1  -7   14.45    0.72
   4  -1   7   12.73    1.11
  -4   1  -7   14.71    1.14
  -4   1  -8  137.86    3.89
  -4   1  -8  139.09    4.17
  -4   1  -8  126.26    3.86
  -4   1  -8  129.29    2.99
  -4   1  -8  127.12    2.35
   4  -1   8  130.27    4.00
  -4   1  -9    4.05    0.66
  -4   1  -9    4.56    0.28
   4  -1   9    4.33    0.77
  -4   1  -9    4.44    0.49
  -4   1 -10   25.32    1.72
  -4   1 -10   28.08    1.31
  -4   1 -10   28.27    0.85
   4  -1  10   28.97    1.90
  -4   1 -11   79.69    3.30
  -4   1 -11   84.01    1.87
  -4   1 -11   83.95    2.62
   4  -1  11   86.84    3.51
  -4   1 -12   51.67    2.70
  -4   1 -12   52.39    2.10
  -4   1 -13   28.36    2.08
  -4   1 -13   31.16    1.65
  -4   1 -14    7.00    1.16
  -4   1 -14    4.90    0.72
  -4   1 -15   30.73    2.34
  -4   1 -16    5.92    1.08
  -4   0  16   59.01    3.25
   4   0 -16   63.07    3.52
   4   0 -16   63.11    3.47
  -4   0  15    9.44    1.31
   4   0 -15   10.46    1.40
   4   0 -15   10.20    1.40
  -4   0  14   21.48    1.81
   4   0 -14   19.90    1.82
   4   0 -14   23.24    1.97
  -4   0  13    2.65    0.75
   4   0 -13    4.16    0.91
  -4   0  12  233.40    6.43
   4   0 -12  246.27    6.65
   4   0 -12  240.97    5.77
  -4   0  11   22.31    1.44
  -4   0  11   21.92    1.63
   4   0 -11   21.35    1.31
   4   0 -11   20.19    1.60
  -4   0  10   14.01    1.12
  -4   0  10   11.78    1.18
   4   0 -10   14.77    1.31
   4   0 -10   11.15    0.91
  -4   0   9   58.75    2.32
  -4   0   9   55.82    2.46
   4   0  -9   59.39    2.04
   4   0  -9   58.22    2.54
  -4   0   8   31.52    1.61
  -4   0   8   30.81    1.71
   4   0  -8   32.69    1.75
  -4   0   8   29.66    1.71
   4   0  -8   28.04    1.67
  -4   0   7   21.02    1.36
   4   0  -7   24.39    1.44
  -4   0   7   25.55    1.49
   4   0  -7   22.03    1.40
  -4   0   6    0.28    0.34
   4   0  -6    0.30    0.33
   4   0  -6    0.21    0.36
  -4   0   6    0.39    0.34
   4   0  -5    0.35    0.33
  -4   0   5    0.32    0.37
   4   0  -5    0.30    0.38
  -4   0   5    0.84    0.36
  -4   0   4   28.12    1.38
   4   0  -4   26.50    1.34
  -4   0   4   26.40    1.29
   4   0  -4   28.94    1.34
  -4   0   3   91.50    2.55
   4   0  -3   88.00    2.52
  -4   0   3   83.06    2.38
   4   0  -3   88.11    2.42
  -4   0   2   15.48    0.90
   4   0  -2   15.22    0.89
  -4   0   2   15.71    0.84
   4   0  -2   14.94    0.83
   4   0  -1   13.12    0.83
  -4   0   1   12.18    0.75
   4   0  -1   12.33    0.74
  -4   0   1   12.35    0.68
   4   0  -1   10.96    0.66
   4   0  -1   12.71    0.66
   4   0   0   15.78    0.79
   4   0   0   18.25    0.95
  -4   0   0   17.43    0.83
   4   0   0   16.35    0.79
  -4   0   0   16.26    0.70
   4   0   0   17.16    0.82
   4   0   1   46.87    1.47
  -4   0  -1   47.74    1.63
   4   0   1   46.18    1.60
  -4   0  -1   48.71    1.35
   4   0   1   45.76    1.31
  -4   0  -1   45.47    1.16
  -4   0  -1   45.35    1.52
   4   0   1   45.90    1.53
  -4   0  -2   64.74    1.88
   4   0   2   65.90    1.89
  -4   0  -2   66.56    2.02
   4   0   2   64.62    2.00
   4   0   2   64.58    1.52
  -4   0  -2   66.58    1.53
   4   0   2   64.78    1.98
  -4   0  -2   64.99    1.99
  -4   0  -2   65.30    1.33
   4   0   3    5.51    0.55
  -4   0  -3    5.66    0.55
  -4   0  -3    5.78    0.60
  -4   0  -3    5.33    0.48
   4   0   3    6.27    0.62
  -4   0  -3    6.32    0.31
  -4   0  -3    4.94    0.57
   4   0   3    6.19    0.65
  -4   0  -4    6.71    0.72
  -4   0  -4    8.07    0.72
  -4   0  -4    8.06    0.55
   4   0   4    7.34    0.68
  -4   0  -4    7.42    0.67
   4   0   4    8.28    0.79
  -4   0  -4    7.28    0.72
  -4   0  -5   33.28    1.64
  -4   0  -5   32.92    1.09
  -4   0  -5   30.48    1.43
   4   0   5   31.66    1.47
  -4   0  -5   29.29    1.41
   4   0   5   30.28    1.53
  -4   0  -5   32.39    1.57
  -4   0  -5   32.34    0.76
   4   0   6  284.21    6.28
  -4   0  -6  298.89    6.36
  -4   0  -6  298.06    6.69
  -4   0  -6  295.42    5.26
  -4   0  -6  281.42    6.23
  -4   0  -6  292.06    5.02
  -4   0  -6  308.57    6.60
   4   0   6  293.88    6.52
  -4   0  -6  293.22    5.05
  -4   0  -7   13.25    0.55
   4   0   7   11.68    1.02
  -4   0  -7   12.69    1.04
  -4   0  -7   12.85    1.02
  -4   0  -7   13.56    1.14
  -4   0  -7   12.74    0.60
  -4   0  -7   13.17    0.61
  -4   0  -7   12.28    1.05
   4   0   7   11.78    1.06
   4   0   8  114.90    3.58
  -4   0  -8  115.36    3.59
  -4   0  -8  110.33    3.45
  -4   0  -8  112.02    2.59
  -4   0  -8  113.49    2.57
   4   0   8  112.27    3.69
  -4   0  -9  292.39    6.85
  -4   0  -9  295.07    5.76
   4   0   9  298.79    7.17
  -4   0  -9  302.94    5.72
  -4   0 -10   41.66    2.17
  -4   0 -10   46.74    1.68
   4   0  10   46.93    2.44
  -4   0 -10   46.68    1.63
  -4   0 -11    0.89    0.41
   4   0  11    0.34    0.51
  -4   0 -11    0.56    0.29
  -4   0 -11    1.07    0.33
  -4   0 -12   13.92    1.36
   4   0  12   12.10    1.42
  -4   0 -12   17.37    1.11
  -4   0 -12   15.42    1.02
   4   0  13   19.17    1.85
  -4   0 -13   17.94    1.64
  -4   0 -13   18.53    1.23
  -4   0 -13   19.52    1.22
   4   0  14    0.95    0.67
  -4   0 -14   -0.35    0.65
  -4   0 -15   -0.49    0.64
  -4   0 -16    4.37    1.06
   4   1 -16    0.41    0.69
  -4  -1  15   44.96    2.27
   4   1 -15   44.93    2.87
   4   1 -15   43.01    2.74
  -4  -1  14   26.97    1.71
  -4  -1  14   32.68    2.28
   4   1 -14   29.55    2.25
   4   1 -14   30.81    2.23
  -4  -1  13   17.21    1.63
   4   1 -13   17.09    1.65
   4   1 -13   18.53    1.70
   4   1 -12   20.11    1.72
  -4  -1  12   19.23    1.60
   4   1 -12   19.72    1.25
   4   1 -12   18.93    1.64
  -4  -1  11  231.16    5.68
   4   1 -11  244.83    6.42
  -4  -1  11  219.41    6.07
   4   1 -11  219.28    5.11
   4   1 -11  231.18    6.23
  -4  -1  10   91.55    3.41
   4   1 -10   94.38    3.53
   4   1 -10   91.61    2.66
   4   1 -10   91.88    3.44
  -4  -1   9   15.59    1.31
   4   1  -9   13.64    1.23
   4   1  -9   15.33    0.90
   4   1  -8   97.52    3.27
  -4  -1   8   90.79    3.18
  -4  -1   8   97.02    3.27
   4   1  -8   91.41    2.38
   4   1  -8   94.04    3.22
  -4  -1   7  932.81   17.08
   4   1  -7  993.32   17.22
  -4  -1   7  983.46   17.20
   4   1  -7  947.28   15.73
   4   1  -7  936.43   17.07
  -4  -1   6    7.04    0.79
   4   1  -6    7.03    0.80
   4   1  -6    7.97    0.83
  -4  -1   6    7.46    0.82
   4   1  -5   90.60    2.83
  -4  -1   5   86.32    2.77
  -4  -1   5   89.37    2.77
   4   1  -5   88.18    2.74
   4   1  -4   93.25    2.75
  -4  -1   4   93.17    2.76
  -4  -1   4   91.49    2.70
   4   1  -4   90.43    2.67
  -4  -1   3  139.49    3.50
   4   1  -3  140.96    3.51
   4   1  -3  140.33    2.65
   4   1  -3  142.66    3.44
  -4  -1   3  146.25    3.48
   4   1  -2   36.25    1.34
  -4  -1   2   35.42    1.43
   4   1  -2   35.89    1.43
   4   1  -2   35.84    1.01
  -4  -1   2   37.96    1.41
  -4  -1   1  175.65    3.82
   4   1  -1  174.41    3.81
   4   1  -1  179.40    3.62
   4   1  -1  176.73    3.41
  -4  -1   1  175.35    3.72
   4   1   0  170.28    3.74
   4   1   0  168.57    3.30
  -4  -1   0  172.07    3.57
   4   1   0  171.57    3.56
   4   1   0  172.83    3.47
  -4  -1   0  167.90    3.46
  -4  -1   0  161.38    3.41
   4   1   1   49.24    1.67
  -4  -1  -1   51.22    1.71
   4   1   1   49.48    1.62
   4   1   1   49.13    1.18
  -4  -1  -1   48.40    1.41
   4   1   1   47.37    1.38
   4   1   1   48.79    1.56
  -4  -1  -1   47.91    1.54
  -4  -1  -1   47.97    1.35
   4   1   2   50.72    1.75
  -4  -1  -2   53.87    1.70
   4   1   2   50.20    1.65
  -4  -1  -2   52.34    1.70
   4   1   2   49.02    1.29
   4   1   2   49.52    1.69
  -4  -1  -2   50.61    1.70
   4   1   3   31.26    1.38
  -4  -1  -3   29.12    1.33
  -4  -1  -3   28.74    1.22
  -4  -1  -3   29.77    1.44
   4   1   3   28.79    1.23
  -4  -1  -3   29.80    1.20
   4   1   3   28.17    0.77
   4   1   3   29.28    1.34
  -4  -1  -3   30.11    1.34
  -4  -1  -4   35.53    1.67
  -4  -1  -4   33.27    1.37
  -4  -1  -4   34.67    1.29
   4   1   4   34.76    1.53
  -4  -1  -4   34.46    1.53
  -4  -1  -4   33.60    1.53
   4   1   4   35.27    1.57
  -4  -1  -5   80.89    2.77
  -4  -1  -5   78.74    2.37
  -4  -1  -5   77.36    2.07
   4   1   5   76.00    2.53
  -4  -1  -5   77.93    2.57
  -4  -1  -5   80.46    2.63
   4   1   5   75.43    2.57
   4   1   6   38.16    1.79
  -4  -1  -6   39.16    1.81
  -4  -1  -6   39.20    1.33
  -4  -1  -6   36.78    1.61
  -4  -1  -6   46.18    2.09
  -4  -1  -6   39.55    0.98
  -4  -1  -6   39.30    1.20
  -4  -1  -6   40.24    1.87
   4   1   6   38.14    1.84
   4   1   7    6.38    0.80
  -4  -1  -7    6.78    0.49
  -4  -1  -7    6.92    0.78
  -4  -1  -7    6.39    0.72
  -4  -1  -7    5.90    0.83
  -4  -1  -7    7.01    0.43
  -4  -1  -7    6.56    0.50
   4   1   7    6.62    0.81
  -4  -1  -7    6.88    0.81
   4   1   8   26.85    1.64
  -4  -1  -8   25.34    0.92
  -4  -1  -8   24.01    1.40
  -4  -1  -8   23.92    0.95
  -4  -1  -8   25.49    1.06
  -4  -1  -9   82.09    1.78
   4   1   9   79.71    3.09
  -4  -1  -9   75.52    2.80
  -4  -1  -9   80.02    2.17
  -4  -1  -9   80.67    2.27
  -4  -1 -10   31.25    1.78
   4   1  10   30.42    2.01
  -4  -1 -10   29.40    1.27
  -4  -1 -10   30.56    1.35
   4   1  11   29.75    2.07
  -4  -1 -11   29.38    1.82
  -4  -1 -11   28.50    1.35
  -4  -1 -11   32.28    1.46
   4   1  12    7.30    1.11
  -4  -1 -12    5.13    0.84
  -4  -1 -12    6.50    0.70
  -4  -1 -12    3.90    0.55
  -4  -1 -13    1.75    0.59
   4   1  13    0.45    0.57
  -4  -1 -13    1.19    0.39
  -4  -1 -13    1.66    0.45
   4   1  14   15.44    1.71
  -4  -1 -14   16.97    1.61
  -4  -1 -15    0.33    0.58
   4   1  15    0.49    0.68
  -4  -1 -16   25.22    2.09
  -4  -1 -17    4.30    1.06
  -4  -2  16   20.68    2.04
   4   2 -15   -0.63    0.63
  -4  -2  14   42.68    2.22
   4   2 -14   48.81    2.90
  -4  -2  13  176.12    4.98
   4   2 -13  182.00    5.83
  -4  -2  12   19.84    1.45
   4   2 -12   19.56    1.71
   4   2 -12   20.14    1.19
   4   2 -12   19.16    1.66
  -4  -2  11   10.60    1.04
   4   2 -11   10.12    0.78
   4   2 -11    8.40    1.13
   4   2 -11   10.54    1.21
  -4  -2  10   79.66    2.87
   4   2 -10   78.69    3.22
  -4  -2  10   72.02    3.07
   4   2 -10   76.92    3.15
   4   2 -10   76.33    2.20
  -4  -2   9  175.77    4.68
  -4  -2   9  176.16    5.03
   4   2  -9  175.14    5.04
   4   2  -9  182.33    3.76
   4   2  -9  170.63    4.97
  -4  -2   8    1.06    0.49
   4   2  -8    0.61    0.20
   4   2  -8    0.72    0.46
   4   2  -8    0.36    0.43
  -4  -2   7   58.17    2.44
   4   2  -7   64.86    2.53
   4   2  -7   61.84    2.48
  -4  -2   7   66.51    2.56
   4   2  -7   58.99    1.45
  -4  -2   6  549.68   10.82
   4   2  -6  582.37   10.91
   4   2  -6  561.74   10.77
  -4  -2   6  572.64   10.86
   4   2  -6  552.37    8.99
  -4  -2   5   32.69    1.64
   4   2  -5   32.65    1.58
   4   2  -5   33.24    1.64
  -4  -2   5   34.27    1.64
  -4  -2   4   90.65    2.79
   4   2  -4   92.23    2.73
  -4  -2   4   89.60    2.79
   4   2  -4   92.78    2.82
  -4  -2   4   85.12    2.70
  -4  -2   3  179.18    4.33
   4   2  -3  179.48    4.12
  -4  -2   3  178.81    4.27
   4   2  -3  184.76    4.28
  -4  -2   3  177.19    4.19
  -4  -2   2   23.91    1.28
   4   2  -2   22.57    1.08
   4   2  -2   21.72    1.14
  -4  -2   2   23.12    1.14
   4   2  -2   22.74    0.68
  -4  -2   1  924.45   15.61
   4   2  -1  908.01   15.01
   4   2  -1  894.09   15.25
   4   2  -1  916.62   14.55
  -4  -2   1  902.85   15.21
  -4  -2   1  865.05   14.51
   4   2   0  335.10    6.31
  -4  -2   0  336.38    6.69
   4   2   0  333.41    6.04
   4   2   0  327.39    6.28
  -4  -2   0  330.22    6.01
   4   2   0  337.92    6.04
   4   2   1  495.15    9.12
   4   2   1  487.63    8.68
  -4  -2  -1  498.59    9.10
  -4  -2  -1  474.47    8.26
   4   2   1  487.86    8.56
   4   2   1  492.51    8.29
  -4  -2  -1  477.44    8.63
   4   2   1  507.24    8.72
   4   2   2  283.57    5.98
   4   2   2  285.02    5.52
  -4  -2  -2  303.41    5.91
   4   2   2  285.79    5.01
  -4  -2  -2  284.67    4.99
   4   2   2  287.35    5.26
  -4  -2  -2  286.80    5.71
   4   2   2  294.66    5.76
  -4  -2  -3  199.82    4.65
   4   2   3  196.41    4.61
  -4  -2  -3  200.41    4.15
  -4  -2  -3  202.65    4.73
   4   2   3  196.62    4.14
  -4  -2  -3  198.91    4.38
   4   2   3  197.63    3.69
  -4  -2  -3  194.99    3.48
  -4  -2  -3  198.86    4.47
   4   2   3  200.69    4.49
   4   2   4  296.84    6.40
  -4  -2  -4  314.37    6.52
  -4  -2  -4  299.69    6.56
  -4  -2  -4  312.23    5.90
  -4  -2  -4  307.06    6.04
   4   2   4  297.30    5.09
  -4  -2  -4  297.13    5.05
  -4  -2  -4  305.60    6.38
   4   2   4  305.66    6.38
   4   2   5  350.22    7.54
  -4  -2  -5  381.88    7.73
  -4  -2  -5  384.91    7.89
  -4  -2  -5  397.48    7.10
  -4  -2  -5  374.78    7.04
  -4  -2  -5  348.17    6.09
  -4  -2  -5  368.65    7.62
  -4  -2  -6  251.84    5.10
   4   2   6  237.15    5.74
  -4  -2  -6  262.14    5.94
  -4  -2  -6  238.35    5.19
  -4  -2  -6  256.62    6.08
  -4  -2  -6  237.18    4.37
  -4  -2  -6  249.04    5.83
  -4  -2  -7  179.90    5.02
  -4  -2  -7  175.75    4.25
  -4  -2  -7  173.94    3.91
  -4  -2  -7  183.53    4.88
   4   2   7  173.67    4.76
  -4  -2  -7  179.10    4.83
  -4  -2  -8   99.82    3.03
  -4  -2  -8  101.48    2.58
   4   2   8   95.01    3.39
  -4  -2  -8   99.09    2.67
  -4  -2  -9  101.19    3.18
  -4  -2  -9   99.84    2.48
   4   2   9   95.94    3.57
  -4  -2  -9   97.98    2.74
  -4  -2 -10   19.45    1.35
   4   2  10   20.29    1.69
  -4  -2 -10   19.26    0.85
   4   2  10   18.26    1.55
  -4  -2 -10   19.42    1.13
   4   2  11  168.83    5.29
  -4  -2 -11  164.30    3.21
   4   2  11  156.63    5.29
  -4  -2 -11  157.89    4.65
  -4  -2 -11  168.58    3.98
  -4  -2 -11  167.52    4.16
  -4  -2 -12    3.51    0.71
   4   2  12    2.34    0.85
  -4  -2 -12    2.52    0.49
  -4  -2 -12    2.41    0.47
  -4  -2 -13    5.30    0.91
   4   2  13    7.77    1.28
  -4  -2 -13    5.08    0.67
   4   2  14   98.39    4.48
  -4  -2 -14   90.36    3.72
  -4  -2 -15    1.95    0.71
  -4  -2 -16   10.26    1.34
  -4  -3  16    2.13    0.81
   4   3 -15    1.45    0.75
  -4  -3  14   11.99    1.18
   4   3 -14   16.26    1.72
  -4  -3  13    0.12    0.44
   4   3 -13    0.90    0.65
  -4  -3  12   62.71    2.70
   4   3 -12   66.65    3.26
  -4  -3  11    0.01    0.36
   4   3 -11    0.14    0.20
   4   3 -11    0.85    0.63
  -4  -3  10   30.10    1.74
   4   3 -10   31.23    2.00
   4   3 -10   29.88    1.13
  -4  -3   9   74.43    2.81
   4   3  -9   86.37    3.27
   4   3  -9   74.07    1.81
  -4  -3   8   89.32    3.08
   4   3  -8   86.19    3.24
   4   3  -8   92.05    1.86
  -4  -3   7   33.39    1.74
   4   3  -7   34.40    1.86
  -4  -3   6   65.38    2.47
   4   3  -6   66.86    2.58
   4   3  -6   60.93    2.44
  -4  -3   6   65.57    2.54
  -4  -3   5   28.38    1.54
   4   3  -5   27.96    1.56
   4   3  -5   29.67    1.56
  -4  -3   5   28.01    1.54
  -4  -3   4  143.03    3.91
   4   3  -4  143.59    3.90
   4   3  -4  146.70    3.82
  -4  -3   4  145.96    3.88
  -4  -3   3   32.96    1.61
   4   3  -3   31.32    1.46
   4   3  -3   28.72    1.46
  -4  -3   3   31.93    1.52
  -4  -3   2    2.79    0.59
   4   3  -2    0.79    0.33
  -4  -3   2    1.04    0.34
   4   3  -2    1.18    0.37
  -4  -3   1  362.14    7.23
  -4  -3   1  353.61    6.71
   4   3  -1  344.98    6.88
   4   3  -1  348.32    6.68
  -4  -3   1  344.75    6.06
   4   3   0   76.55    2.10
  -4  -3   0   77.66    2.52
  -4  -3   0   78.50    2.11
   4   3   0   76.27    2.25
   4   3   0   76.79    2.10
  -4  -3   0   74.31    1.93
   4   3   1    3.96    0.72
   4   3   1    4.23    0.45
  -4  -3  -1    3.99    0.64
   4   3   1    1.97    0.36
   4   3   1    5.98    0.51
  -4  -3  -1    1.58    0.33
   4   3   2  130.80    3.57
   4   3   2  126.60    3.41
   4   3   2  131.18    2.92
  -4  -3  -2  129.93    3.46
  -4  -3  -2  134.01    3.48
   4   3   2  130.29    2.82
  -4  -3  -2  128.22    2.79
   4   3   2  130.21    2.96
  -4  -3  -2  129.31    3.21
   4   3   3   39.41    1.80
   4   3   3   41.87    1.70
  -4  -3  -3   40.93    1.80
  -4  -3  -3   45.04    1.77
   4   3   3   41.66    1.37
  -4  -3  -3   40.49    1.23
   4   3   3   40.39    1.30
  -4  -3  -3   42.47    1.69
  -4  -3  -4   17.35    1.20
   4   3   4   13.20    1.06
   4   3   4   14.08    0.95
  -4  -3  -4   16.01    1.16
  -4  -3  -4   14.72    0.79
  -4  -3  -4   16.41    1.06
   4   3   4   14.39    0.67
  -4  -3  -4   14.05    0.66
  -4  -3  -4   14.22    1.02
   4   3   5   47.51    2.10
  -4  -3  -5   50.47    2.18
   4   3   5   47.54    1.79
  -4  -3  -5   49.85    1.90
  -4  -3  -5   46.85    1.58
  -4  -3  -5   48.26    2.15
  -4  -3  -5   45.92    1.33
   4   3   5   45.76    1.23
  -4  -3  -5   46.10    2.02
  -4  -3  -6  162.82    3.93
   4   3   6  153.53    4.38
  -4  -3  -6  166.86    4.54
   4   3   6  151.60    3.76
  -4  -3  -6  159.16    3.64
  -4  -3  -6  181.81    4.77
   4   3   6  154.33    2.84
  -4  -3  -6  152.82    3.22
   4   3   6  153.43    2.85
  -4  -3  -6  155.95    4.36
  -4  -3  -7   68.39    2.23
   4   3   7   65.27    2.72
  -4  -3  -7   66.47    1.83
   4   3   7   66.45    2.16
  -4  -3  -7   63.59    2.12
  -4  -3  -8   33.97    1.48
   4   3   8   31.90    1.94
   4   3   8   32.23    1.40
  -4  -3  -8   33.59    1.53
  -4  -3  -8   31.74    1.24
   4   3   9   17.36    1.00
  -4  -3  -9   17.50    1.17
   4   3   9   15.35    1.44
  -4  -3  -9   17.46    1.03
  -4  -3  -9   18.70    1.14
  -4  -3 -10   53.13    2.21
   4   3  10   51.53    2.78
  -4  -3 -10   56.20    1.89
   4   3  10   52.76    2.75
  -4  -3 -10   54.09    2.11
  -4  -3 -11   17.38    1.31
   4   3  11   17.80    1.68
   4   3  11   18.17    1.67
  -4  -3 -11   19.22    1.00
  -4  -3 -11   18.98    1.25
   4   3  12   15.72    1.65
  -4  -3 -12   16.50    1.35
   4   3  12   18.67    1.73
  -4  -3 -12   15.90    1.18
  -4  -3 -13   29.32    1.86
   4   3  13   27.82    2.29
  -4  -3 -13   30.25    1.72
  -4  -3 -14    3.61    0.71
   4   3  14    5.14    1.15
  -4  -4  16    4.38    1.05
  -4  -4  15   17.68    1.76
  -4  -4  14   72.99    3.10
   4   4 -14   72.65    3.72
  -4  -4  13   21.09    1.60
   4   4 -13   22.09    1.95
  -4  -4  12   54.22    2.58
   4   4 -12   58.09    3.06
  -4  -4  11   68.17    2.86
   4   4 -11   70.79    3.28
  -4  -4  10   51.37    2.40
   4   4 -10   51.89    2.68
  -4  -4   9  133.64    4.13
   4   4  -9  137.21    4.47
  -4  -4   8   92.38    3.24
   4   4  -8   89.10    3.37
  -4  -4   7    1.35    0.53
   4   4  -7    0.46    0.42
  -4  -4   6   88.97    3.13
   4   4  -6   98.77    3.29
  -4  -4   5  252.32    5.99
   4   4  -5  242.86    5.85
   4   4  -5  254.39    6.03
  -4  -4   5  253.40    6.01
  -4  -4   4   42.33    2.00
   4   4  -4   40.77    1.86
   4   4  -4   44.88    2.00
  -4  -4   4   44.81    1.99
  -4  -4   3  172.28    4.55
   4   4  -3  172.28    4.31
  -4  -4   3  173.16    4.33
   4   4  -3  174.71    4.45
  -4  -4   3  174.78    4.45
  -4  -4   2   24.94    1.49
   4   4  -2   25.47    1.38
  -4  -4   2   27.12    1.35
   4   4  -2   24.46    1.29
  -4  -4   2   23.29    0.72
  -4  -4   1 1492.36   24.37
  -4  -4   1 1431.96   23.65
   4   4  -1 1428.20   23.87
   4   4  -1 1437.21   23.67
  -4  -4   1 1390.70   22.78
   4   4   0 2027.77   32.75
  -4  -4   0 2032.74   32.79
   4   4   0 2023.45   32.02
   4   4   0 1963.71   32.21
  -4  -4   0 1941.08   31.95
  -4  -4   0 1915.17   31.54
   4   4   1   24.78    1.53
   4   4   1   21.80    1.46
   4   4   1   23.84    0.98
  -4  -4  -1   23.12    1.47
  -4  -4  -1   16.73    1.09
   4   4   2  176.08    4.51
   4   4   2  172.95    4.35
  -4  -4  -2  171.66    4.22
   4   4   2  167.45    3.44
  -4  -4  -2  173.40    4.41
   4   4   2  165.83    3.69
  -4  -4  -2  166.14    3.69
  -4  -4  -2  164.02    3.94
   4   4   3   12.38    1.04
   4   4   3   11.93    0.97
  -4  -4  -3   12.74    1.01
   4   4   3   10.38    0.59
  -4  -4  -3   10.51    0.96
  -4  -4  -3   11.43    0.71
  -4  -4  -3   12.48    0.93
   4   4   4   80.03    2.88
  -4  -4  -4   80.40    2.71
   4   4   4   78.39    2.63
  -4  -4  -4   84.96    2.87
  -4  -4  -4   76.65    2.11
  -4  -4  -4   80.20    2.70
   4   4   5    5.00    0.63
  -4  -4  -5    4.80    0.71
  -4  -4  -5    4.49    0.63
  -4  -4  -5    4.71    0.44
   4   4   5    3.81    0.72
  -4  -4  -5    4.45    0.66
  -4  -4  -5    4.19    0.44
  -4  -4  -6   18.45    1.23
   4   4   6   18.05    1.39
  -4  -4  -6   20.02    1.46
  -4  -4  -6   18.95    0.92
   4   4   6   17.56    1.15
   4   4   6   18.99    0.81
  -4  -4  -6   16.95    0.90
  -4  -4  -6   19.44    1.39
   4   4   7   24.60    1.68
  -4  -4  -7   23.91    1.37
   4   4   7   23.21    0.86
  -4  -4  -7   22.66    1.08
  -4  -4  -7   23.42    1.10
   4   4   7   22.68    1.29
   4   4   8   10.74    1.19
  -4  -4  -8   12.59    1.00
  -4  -4  -8   11.86    0.81
   4   4   8   12.58    0.56
  -4  -4  -8   11.94    0.84
   4   4   8   12.06    0.94
   4   4   9    9.20    1.16
  -4  -4  -9    9.17    0.84
  -4  -4  -9    8.25    0.75
   4   4   9    9.07    0.84
  -4  -4  -9    8.06    0.70
   4   4   9    8.56    0.39
   4   4  10    2.58    0.85
  -4  -4 -10    1.50    0.44
   4   4  10    1.30    0.39
  -4  -4 -10    1.57    0.45
  -4  -4 -10    2.08    0.45
  -4  -4 -10    1.29    0.46
  -4  -4 -11    5.00    0.68
   4   4  11    6.71    1.11
  -4  -4 -11    5.18    0.66
  -4  -4 -11    5.45    0.75
  -4  -4 -12    1.62    0.55
   4   4  12    2.12    0.82
   4   4  12    1.38    0.74
  -4  -4 -12    1.64    0.47
   4   4  13    0.76    0.58
  -4  -4 -13   -0.26    0.48
   4   4  13    0.32    0.59
  -4  -4 -13    0.48    0.38
  -4  -5  15    1.90    0.83
  -4  -5  14   13.40    1.34
   4   5 -14   12.08    1.53
  -4  -5  13   47.53    2.55
   4   5 -13   55.74    3.18
  -4  -5  12   11.86    1.24
   4   5 -12   14.29    1.59
  -4  -5  11   24.28    1.72
   4   5 -11   21.19    1.83
  -4  -5  10   64.90    2.85
   4   5 -10   62.97    3.09
  -4  -5   9   16.44    1.39
   4   5  -9   15.96    1.47
  -4  -5   8   55.96    2.56
   4   5  -8   57.26    2.70
  -4  -5   7  113.37    3.82
   4   5  -7  125.50    4.06
  -4  -5   6   45.08    2.21
   4   5  -6   44.18    2.20
  -4  -5   5   84.98    3.13
   4   5  -5   87.28    3.10
  -4  -5   4  147.28    4.34
  -4  -5   4  149.33    4.21
   4   5  -4  145.32    4.26
   4   5  -4  147.54    4.17
  -4  -5   4  154.77    4.33
  -4  -5   3  138.35    4.12
  -4  -5   3  137.86    3.87
   4   5  -3  136.98    4.00
   4   5  -3  141.07    3.91
  -4  -5   2    0.81    0.39
   4   5  -2    1.24    0.41
   4   5  -2    0.85    0.40
  -4  -5   2    1.99    0.50
  -4  -5   2    1.13    0.18
   4   5  -1   42.81    2.02
  -4  -5   1   44.75    2.11
  -4  -5   1   42.67    1.80
   4   5  -1   42.58    1.89
   4   5  -1   41.07    1.77
  -4  -5   1   40.58    1.32
   4   5   0  156.42    4.33
  -4  -5   0  156.33    4.40
  -4  -5   0  159.70    3.82
  -4  -5   0  152.57    3.86
   4   5   0  157.43    3.92
  -4  -5   0  152.75    3.48
   4   5   1    4.30    0.40
   4   5   1    3.39    0.59
  -4  -5  -1    5.46    0.78
  -4  -5  -1    6.92    0.68
   4   5   1    5.94    0.81
  -4  -5  -1    3.52    0.47
   4   5   1    4.68    0.57
  -4  -5  -1    3.70    0.51
   4   5   2    4.80    0.70
   4   5   2    4.55    0.66
  -4  -5  -2    4.40    0.59
   4   5   2    4.33    0.35
  -4  -5  -2    2.81    0.59
   4   5   2    4.39    0.53
  -4  -5  -2    4.42    0.58
  -4  -5  -2    4.07    0.52
   4   5   3   86.26    3.13
  -4  -5  -3   88.91    2.92
  -4  -5  -3   90.26    3.09
   4   5   3   89.00    3.02
  -4  -5  -3   84.53    2.48
  -4  -5  -3   80.65    2.70
   4   5   4    0.41    0.30
  -4  -5  -4    0.54    0.33
  -4  -5  -4    0.06    0.36
   4   5   4    1.06    0.55
  -4  -5  -4   -0.10    0.25
  -4  -5  -4    0.39    0.34
   4   5   5    3.29    0.60
  -4  -5  -5    3.06    0.59
  -4  -5  -5    4.44    0.67
   4   5   5    3.52    0.73
  -4  -5  -5    3.83    0.65
  -4  -5  -5    4.15    0.51
  -4  -5  -6   20.69    1.39
   4   5   6   24.26    1.68
  -4  -5  -6   22.10    1.14
   4   5   6   20.18    1.34
   4   5   7   48.57    2.51
  -4  -5  -7   52.18    2.27
  -4  -5  -7   56.04    1.61
   4   5   7   48.09    2.14
   4   5   7   52.77    1.67
  -4  -5  -7   51.78    1.89
  -4  -5  -8    1.11    0.45
   4   5   8    0.42    0.47
  -4  -5  -8    1.21    0.28
   4   5   8    0.76    0.32
   4   5   8    1.20    0.27
  -4  -5  -8    1.00    0.35
   4   5   9   29.55    2.08
  -4  -5  -9   28.37    1.64
  -4  -5  -9   32.76    1.52
   4   5   9   29.11    1.07
  -4  -5  -9   32.76    1.37
   4   5   9   28.31    1.61
  -4  -5 -10    3.61    0.52
   4   5  10    3.55    0.90
  -4  -5 -10    3.68    0.66
   4   5  11    9.25    1.30
  -4  -5 -11    9.82    0.95
  -4  -5 -11   10.89    1.08
   4   5  12    0.42    0.63
  -4  -5 -12    1.12    0.50
   4   5  13    5.40    1.11
  -4  -5 -13    5.72    0.87
  -4  -6  14    1.61    0.62
  -4  -6  13   13.45    1.46
   4   6 -13   13.17    1.61
  -4  -6  12  103.08    3.98
   4   6 -12  110.56    4.57
  -4  -6  11    7.23    1.05
   4   6 -11    7.86    1.23
  -4  -6  10   53.52    2.69
   4   6 -10   52.42    2.89
  -4  -6   9   15.77    1.42
   4   6  -9   16.99    1.58
  -4  -6   8   38.64    2.22
   4   6  -8   38.25    2.26
  -4  -6   7   34.51    2.05
   4   6  -7   29.43    1.96
  -4  -6   6   24.93    1.75
   4   6  -6   23.90    1.69
  -4  -6   5   36.69    2.09
   4   6  -5   36.93    2.03
  -4  -6   4   49.06    2.41
   4   6  -4   49.93    2.30
  -4  -6   3    6.49    0.89
  -4  -6   3    5.49    0.34
   4   6  -3    4.73    0.73
  -4  -6   3    5.72    0.78
  -4  -6   2   20.02    1.51
  -4  -6   2   22.12    1.38
   4   6  -2   20.95    1.37
   4   6  -2   19.17    1.37
  -4  -6   2   18.70    0.82
  -4  -6   1    2.11    0.39
  -4  -6   1    3.18    0.69
  -4  -6   1    2.03    0.32
  -4  -6   1    2.64    0.53
   4   6  -1    1.69    0.47
   4   6   0   52.79    2.43
  -4  -6   0   50.14    1.90
  -4  -6   0   53.59    2.48
   4   6   0   53.33    2.15
  -4  -6   0   47.74    2.04
  -4  -6   0   62.98    1.94
   4   6   1   17.00    1.36
  -4  -6  -1   17.72    1.40
  -4  -6  -1   16.79    1.09
   4   6   1   18.31    0.75
   4   6   1   18.40    1.18
  -4  -6  -1   17.83    1.17
  -4  -6  -1   17.98    1.08
   4   6   2  107.76    3.69
   4   6   2  106.77    2.12
  -4  -6  -2  108.79    3.70
  -4  -6  -2  112.90    3.28
  -4  -6  -2  104.78    3.10
   4   6   2  112.70    3.20
  -4  -6  -2  104.50    3.13
  -4  -6  -3    0.48    0.32
  -4  -6  -3    0.02    0.41
   4   6   3   -0.37    0.55
  -4  -6  -3    0.32    0.26
  -4  -6  -3    0.59    0.34
  -4  -6  -4    1.15    0.47
  -4  -6  -4    1.12    0.52
   4   6   4    0.64    0.52
  -4  -6  -4    1.19    0.44
  -4  -6  -4    1.17    0.38
  -4  -6  -5  177.37    4.97
   4   6   5  167.15    5.08
  -4  -6  -5  181.74    5.01
  -4  -6  -5  165.97    4.20
  -4  -6  -6    1.60    0.54
   4   6   6    0.62    0.53
  -4  -6  -6    0.69    0.35
   4   6   7    5.64    1.00
  -4  -6  -7    4.23    0.76
   4   6   7    5.03    0.57
  -4  -6  -7    4.53    0.61
  -4  -6  -8  147.18    4.48
   4   6   8  144.43    5.06
   4   6   8  152.75    3.58
  -4  -6  -8  149.00    3.97
   4   6   9   22.81    1.89
  -4  -6  -9   20.49    1.49
   4   6  10    2.24    0.70
  -4  -6 -10    1.31    0.52
   4   6  11    7.86    1.29
  -4  -6 -11    8.38    1.00
   4   6  12   64.84    3.56
  -4  -6 -12   65.50    2.94
  -4  -7  13    0.89    0.60
  -4  -7  12   39.48    2.47
   4   7 -12   43.68    2.86
  -4  -7  11    5.93    1.02
   4   7 -11    4.37    1.01
  -4  -7  10   41.58    2.50
   4   7 -10   45.30    2.76
  -4  -7   9   19.10    1.66
   4   7  -9   20.66    1.82
  -4  -7   8    6.94    1.02
   4   7  -8    6.64    1.06
  -4  -7   7   51.53    2.66
   4   7  -7   47.65    2.60
  -4  -7   6   54.94    2.75
   4   7  -6   57.51    2.77
  -4  -7   5   37.78    2.24
   4   7  -5   39.68    2.21
  -4  -7   4   66.85    2.99
   4   7  -4   70.04    2.90
  -4  -7   4   63.04    1.30
  -4  -7   4   63.01    1.29
  -4  -7   3   35.52    2.13
   4   7  -3   36.08    1.99
  -4  -7   3   36.42    1.14
  -4  -7   2   22.37    1.70
  -4  -7   2   20.30    1.07
   4   7  -2   25.77    1.64
  -4  -7   2   22.76    1.00
  -4  -7   1   46.42    1.75
  -4  -7   1   51.24    2.56
   4   7  -1   47.78    2.21
  -4  -7   1   51.25    2.28
  -4  -7   1   48.81    1.71
   4   7   0    5.23    0.45
  -4  -7   0    6.05    0.97
  -4  -7   0    4.10    0.55
   4   7   0    3.54    0.74
  -4  -7   0    4.13    0.52
   4   7   0    5.86    0.85
  -4  -7   0    4.53    0.67
   4   7   1   17.86    1.48
  -4  -7  -1   19.53    1.57
   4   7   1   19.13    0.67
  -4  -7  -1   19.10    1.18
   4   7   1   20.74    1.38
  -4  -7  -1   17.99    1.27
  -4  -7  -1   17.81    1.14
  -4  -7  -2  175.68    5.21
   4   7   2  173.60    5.16
  -4  -7  -2  172.19    4.45
  -4  -7  -2  167.04    4.49
  -4  -7  -2  167.11    4.40
   4   7   3   29.52    1.94
  -4  -7  -3   29.45    1.92
  -4  -7  -3   31.90    1.73
  -4  -7  -3   30.48    1.64
  -4  -7  -3   31.51    1.71
  -4  -7  -4    0.59    0.48
  -4  -7  -4    1.24    0.42
   4   7   4    0.23    0.48
  -4  -7  -4    0.19    0.32
   4   7   5   13.11    1.37
  -4  -7  -5   14.41    1.10
  -4  -7  -5   11.89    1.28
  -4  -7  -6  217.97    5.96
   4   7   6  204.49    6.10
  -4  -7  -6  207.02    5.14
  -4  -7  -7   24.61    1.77
   4   7   7   25.72    2.00
   4   7   7   27.23    1.42
  -4  -7  -7   25.29    1.49
  -4  -7  -8   -0.08    0.42
   4   7   8    0.85    0.60
   4   7   8    0.76    0.29
   4   7   9   24.39    2.04
  -4  -7  -9   23.37    1.72
  -4  -7 -10   54.25    2.66
   4   7  10   60.17    3.30
   4   7  11    0.10    0.59
  -4  -7 -11    0.12    0.47
  -4  -7 -12   11.12    1.29
  -4  -8  13    3.01    0.86
  -4  -8  12   -0.81    0.74
  -4  -8  11    0.96    0.69
   4   8 -11    2.67    0.87
  -4  -8  10   96.47    4.09
   4   8 -10   94.86    4.26
  -4  -8   9   30.57    2.20
   4   8  -9   30.79    2.34
  -4  -8   8    2.90    0.75
   4   8  -8    2.40    0.77
  -4  -8   7   74.86    3.45
   4   8  -7   73.97    3.44
  -4  -8   6    3.51    0.85
   4   8  -6    1.68    0.67
  -4  -8   5    0.05    0.59
   4   8  -5   -0.72    0.56
  -4  -8   4    0.00    0.19
  -4  -8   4   -0.14    0.55
  -4  -8   4    0.27    0.15
   4   8  -4    0.90    0.53
  -4  -8   3    8.18    0.62
  -4  -8   3    6.51    1.05
   4   8  -3    6.45    0.93
  -4  -8   3    7.58    0.56
  -4  -8   2    0.07    0.53
  -4  -8   2   -0.06    0.19
  -4  -8   2    0.19    0.21
   4   8  -2   -0.37    0.55
  -4  -8   1    1.74    0.36
  -4  -8   1    3.12    0.74
  -4  -8   1    1.82    0.38
   4   8  -1    2.43    0.66
   4   8   0    0.81    0.59
  -4  -8   0    0.20    0.28
  -4  -8   0    0.08    0.57
   4   8   0    0.32    0.17
   4   8   0   -0.10    0.41
  -4  -8   0    0.38    0.31
  -4  -8  -1   21.96    1.79
   4   8   1   24.94    1.85
  -4  -8  -1   22.55    1.31
   4   8   1   20.82    1.49
  -4  -8  -1   19.53    1.29
  -4  -8  -2   68.16    2.53
  -4  -8  -2   66.92    3.15
   4   8   2   69.59    3.18
  -4  -8  -2   63.63    2.53
   4   8   3   13.24    1.42
  -4  -8  -3   16.07    1.55
  -4  -8  -3   11.77    1.06
   4   8   4    9.45    1.26
  -4  -8  -4    7.05    1.04
  -4  -8  -5   27.31    2.01
   4   8   5   28.50    2.06
  -4  -8  -6   26.43    1.95
   4   8   6   23.97    1.98
  -4  -8  -7   30.47    2.11
   4   8   7   28.92    2.19
   4   8   7   32.04    1.69
   4   8   8   97.12    4.23
  -4  -8  -8  101.20    3.98
  -4  -8  -9    6.91    1.08
   4   8   9    7.04    1.25
   4   8  10    2.60    0.95
  -4  -8 -10    3.00    0.77
  -4  -8 -11   31.92    2.16
  -4  -9  12   73.25    3.74
  -4  -9  11    0.68    0.54
  -4  -9  10   32.51    2.40
  -4  -9   9   57.77    3.21
   4   9  -9   56.51    3.27
  -4  -9   8    3.25    0.88
   4   9  -8    2.33    0.80
  -4  -9   7    7.61    1.27
   4   9  -7    9.71    1.35
  -4  -9   6   92.14    4.03
   4   9  -6   90.60    3.94
  -4  -9   5   10.70    1.39
   4   9  -5   11.28    1.35
  -4  -9   4   18.89    1.78
   4   9  -4   18.39    1.65
  -4  -9   3    6.79    1.18
   4   9  -3    7.94    1.11
  -4  -9   2   87.04    3.82
   4   9  -2   80.94    3.42
  -4  -9   1   16.44    1.63
   4   9  -1   15.43    1.53
   4   9  -1   13.56    1.34
   4   9   0   12.53    1.42
  -4  -9   0   12.22    1.45
   4   9   0   11.31    1.25
  -4  -9  -1   10.00    1.31
   4   9   1   13.57    1.49
  -4  -9  -1   11.95    1.03
   4   9   2    3.46    0.82
  -4  -9  -2    4.54    0.97
   4   9   3    4.34    0.99
  -4  -9  -3    5.47    1.07
   4   9   4    4.79    0.97
  -4  -9  -4    5.32    1.04
   4   9   5    0.35    0.54
  -4  -9  -5   -0.11    0.52
   4   9   6    3.04    0.95
  -4  -9  -6    1.28    0.64
   4   9   7   -0.40    0.56
  -4  -9  -7   -1.07    0.96
   4   9   7   -0.07    0.42
   4   9   8   27.46    2.28
  -4  -9  -8   29.83    2.20
  -4  -9  -9   11.27    1.38
  -4  -9 -10   11.13    1.37
  -4 -10  10   29.36    2.40
  -4 -10   9    4.70    1.06
  -4 -10   8   49.54    3.10
   4  10  -8   44.63    2.94
  -4 -10   7   63.06    3.49
   4  10  -7   65.86    3.51
  -4 -10   6   64.60    3.49
   4  10  -6   58.74    3.29
  -4 -10   5    0.98    0.77
   4  10  -5    0.37    0.57
  -4 -10   4   90.32    4.14
   4  10  -4   83.39    3.80
  -4 -10   3   44.20    2.83
   4  10  -3   38.05    2.46
  -4 -10   2    4.04    1.07
   4  10  -2    3.86    0.82
   4  10  -1   25.40    2.07
  -4 -10   1   24.90    2.13
   4  10  -1   23.52    1.87
  -4 -10   0   33.07    2.42
   4  10   0   32.03    2.35
   4  10   0   29.69    2.08
   4  10   1    2.52    0.84
  -4 -10  -1    3.19    0.87
   4  10   2   -0.05    0.63
  -4 -10  -2   -0.09    0.66
  -4 -10  -3   25.00    2.14
   4  10   3   21.05    1.95
   4  10   4    8.86    1.37
  -4 -10  -4    8.82    1.32
   4  10   5    2.81    0.86
  -4 -10  -5    1.94    0.71
   4  10   6    3.00    1.01
  -4 -10  -6    2.90    0.90
  -4 -10  -7    9.66    1.37
  -4 -10  -8    6.90    1.20
  -4 -10  -9    6.07    1.14
  -4 -10 -10   -0.61    0.79
   4  11  -6   25.18    2.21
  -4 -11   5   13.58    1.71
   4  11  -5   13.28    1.60
  -4 -11   4    2.26    0.78
   4  11  -4    1.56    0.73
  -4 -11   3   23.98    2.19
   4  11  -3   25.91    2.14
   4  11  -2   48.94    3.02
  -4 -11   2   48.48    3.11
   4  11  -2   41.99    2.72
   4  11  -1    4.91    1.07
   4  11  -1    5.47    1.04
  -4 -11   1    4.41    1.09
   4  11   0    0.23    0.57
  -4 -11   0    1.88    0.84
  -4 -11  -1  122.19    5.10
   4  11   1  122.19    5.01
   4  11   2    3.29    0.90
  -4 -11  -2    2.69    0.91
   4  11   3    5.74    1.13
  -4 -11  -3    5.69    1.17
  -4 -11  -4   39.21    2.76
   4  11   4   28.64    2.36
  -4 -11  -5   15.96    1.83
  -4 -11  -6   -0.02    0.64
   4  12  -3    1.56    0.73
   4  12  -2    3.47    0.96
   5 -13  -1   75.18    3.90
   5 -13   0   53.70    3.25
   5 -13   1    2.34    0.87
  -5  13  -2   36.93    2.27
   5 -13   2   30.57    2.37
  -5  13  -3   69.45    3.25
   5 -13   3   63.14    3.44
  -5  13  -4    8.59    1.22
   5 -13   4   10.66    1.42
   5 -13   4    8.34    1.30
  -5  13  -5   16.92    1.68
   5 -13   5   21.91    1.96
   5 -13   5   18.66    1.88
  -5  13  -6   20.57    1.94
   5 -13   6   20.91    1.91
   5 -13   6   20.56    1.96
   5 -13   7   39.64    2.61
  -5  13  -7   38.15    2.69
   5 -12  -5    4.58    1.04
  -5  12   5    6.58    1.19
   5 -12  -4   18.06    1.81
  -5  12   4   20.52    1.95
   5 -12  -3   32.41    2.47
  -5  12   3   33.07    2.46
   5 -12  -2    5.99    1.09
  -5  12   2    8.48    1.28
   5 -12  -1   12.11    1.51
  -5  12   1   14.87    1.74
   5 -12   0  117.40    4.74
  -5  12   0  126.02    4.95
  -5  12  -1   57.96    2.76
   5 -12   1   58.26    3.18
  -5  12  -2    7.03    1.02
   5 -12   2    6.11    1.10
  -5  12  -3   48.76    2.63
   5 -12   3   40.61    2.62
  -5  12  -4   89.43    3.78
   5 -12   4   83.20    3.80
   5 -12   4   90.43    3.99
  -5  12  -5   12.75    1.43
   5 -12   5   12.61    1.44
   5 -12   5   14.79    1.59
  -5  12  -6    1.17    0.61
   5 -12   6    1.57    0.75
   5 -12   6    2.07    0.82
  -5  12  -7   56.67    3.22
   5 -12   7   59.78    3.06
   5 -12   7   58.33    3.22
  -5  12  -8   63.26    3.54
   5 -12   8   71.46    3.59
   5 -12   9    0.11    0.66
  -5  11  11    0.10    0.70
   5 -11  -8   13.20    1.64
  -5  11   8   13.19    1.60
   5 -11  -7    0.17    0.58
  -5  11   7    0.22    0.55
   5 -11  -6    0.93    0.59
  -5  11   6    0.51    0.63
   5 -11  -5    1.17    0.72
  -5  11   5    1.09    0.65
   5 -11  -4    4.11    1.01
  -5  11   4    3.62    0.92
   5 -11  -3   14.02    1.55
  -5  11   3   13.80    1.58
   5 -11  -2    8.97    1.30
  -5  11   2   11.57    1.46
   5 -11  -1    5.89    1.10
  -5  11   1    5.86    1.06
  -5  11   0    1.45    0.36
   5 -11   0    2.28    0.80
  -5  11   0    2.45    0.86
  -5  11   0    2.86    0.69
  -5  11  -1    1.80    0.64
  -5  11  -1    2.20    0.48
   5 -11   1    2.09    0.65
  -5  11  -2    1.56    0.54
   5 -11   2    0.85    0.51
  -5  11  -2    2.79    0.52
  -5  11  -3    8.88    1.12
  -5  11  -3   10.25    0.92
   5 -11   3    7.16    1.08
  -5  11  -4    0.58    0.52
   5 -11   4   -0.01    0.48
   5 -11   4    0.56    0.58
  -5  11  -5   23.98    1.90
   5 -11   5   24.46    1.86
   5 -11   5   21.72    1.87
  -5  11  -6   15.31    1.58
   5 -11   6   13.11    1.36
   5 -11   6   13.72    1.51
  -5  11  -7   12.61    1.51
   5 -11   7   14.28    1.39
   5 -11   7   15.04    1.60
   5 -11   8   36.99    2.19
  -5  11  -8   34.80    2.52
  -5  11  -8   37.26    2.57
   5 -11   8   36.22    2.47
  -5  11  -9   15.08    1.70
  -5  11  -9   15.13    1.71
   5 -11   9   11.82    1.47
  -5  11 -10    3.39    0.87
   5 -11  10    3.48    0.89
   5 -10 -11   50.69    3.16
   5 -10 -10   16.13    1.75
  -5  10  10   13.70    1.62
   5 -10  -9   12.49    1.54
  -5  10   9   16.19    1.70
   5 -10  -8   27.00    2.18
  -5  10   8   28.79    2.22
   5 -10  -7   54.88    3.09
  -5  10   7   54.66    3.05
  -5  10   6    8.13    0.83
   5 -10  -6    7.50    1.22
  -5  10   6    7.41    1.19
  -5  10   5    2.31    0.47
   5 -10  -5    1.94    0.83
  -5  10   5    1.26    0.68
  -5  10   4   33.53    1.52
   5 -10  -4   29.45    2.13
  -5  10   4   31.95    2.22
  -5  10   3   71.28    2.26
   5 -10  -3   74.75    3.40
  -5  10   3   65.42    3.21
  -5  10   2   60.75    1.98
   5 -10  -2   57.30    2.96
  -5  10   2   58.89    2.99
  -5  10   1   38.76    1.50
   5 -10  -1   36.14    2.28
  -5  10   1   38.76    2.39
  -5  10   0    2.91    0.44
   5 -10   0    2.88    0.79
  -5  10   0    4.61    0.94
  -5  10   0    3.04    0.70
  -5  10  -1   35.71    2.04
   5 -10   1   35.64    2.22
  -5  10  -1   37.46    1.51
  -5  10  -2  134.94    4.36
   5 -10   2  127.02    4.46
  -5  10  -2  137.96    3.45
  -5  10  -3   24.91    1.79
   5 -10   3   27.30    1.89
  -5  10  -4   28.62    1.95
   5 -10   4   30.60    1.97
   5 -10   4   30.97    2.10
  -5  10  -5   78.30    3.42
   5 -10   5   74.90    3.16
   5 -10   5   76.26    3.39
  -5  10  -6   63.34    3.14
   5 -10   6   64.26    2.86
   5 -10   6   59.16    3.01
   5 -10   7    6.87    0.95
  -5  10  -7    5.61    1.07
  -5  10  -7    4.86    0.99
   5 -10   7    5.03    0.94
   5 -10   8   32.38    1.92
  -5  10  -8   31.68    2.34
  -5  10  -8   34.49    2.35
   5 -10   8   31.53    2.24
  -5  10  -9   46.21    2.91
  -5  10  -9   44.16    2.72
   5 -10   9   40.61    2.60
  -5  10 -10    4.44    1.07
  -5  10 -10    3.06    0.88
   5 -10  10    2.82    0.80
  -5  10 -11    1.89    0.71
   5 -10  11    0.89    0.65
  -5  10 -12    3.84    0.91
   5  -9 -12    1.27    0.69
  -5   9  12    1.71    0.75
   5  -9 -11    0.13    0.61
  -5   9  11    1.10    0.64
   5  -9 -11    2.37    0.93
   5  -9 -10   47.33    2.88
  -5   9  10   46.24    2.83
   5  -9 -10   46.58    2.93
   5  -9  -9   69.91    3.45
  -5   9   9   72.76    3.51
   5  -9  -9   76.17    3.67
   5  -9  -8    5.03    1.05
  -5   9   8    4.06    0.95
   5  -9  -7   24.29    1.93
  -5   9   7   22.77    1.86
   5  -9  -6   43.35    2.56
  -5   9   6   43.00    2.51
   5  -9  -5  105.10    4.07
  -5   9   5  103.15    2.93
  -5   9   5  102.87    3.98
   5  -9  -5  101.97    3.42
  -5   9   4   39.94    1.57
   5  -9  -4   38.97    2.36
  -5   9   4   37.42    2.29
   5  -9  -4   41.82    2.03
   5  -9  -3   11.73    1.29
  -5   9   3   13.23    0.83
  -5   9   3   16.10    1.50
   5  -9  -3   12.10    1.10
  -5   9   2  227.99    4.64
   5  -9  -2  232.22    6.34
  -5   9   2  228.63    6.31
   5  -9  -2  223.85    5.71
  -5   9   1   93.50    2.35
   5  -9  -1   93.47    3.60
  -5   9   1   81.47    3.42
   5  -9  -1   85.60    3.14
   5  -9   0   46.77    2.43
  -5   9   0   42.88    1.46
  -5   9   0   43.16    2.37
  -5   9   0   46.67    2.22
  -5   9  -1   24.23    1.61
   5  -9   1   19.95    1.56
  -5   9  -1   19.26    0.97
  -5   9  -2   79.67    3.13
  -5   9  -2   85.99    2.36
   5  -9   2   77.50    3.18
  -5   9  -3  126.73    4.13
   5  -9   3  110.68    3.87
  -5   9  -4   56.85    1.99
  -5   9  -4   54.98    2.66
   5  -9   4   52.61    2.49
   5  -9   4   51.64    2.64
  -5   9  -5   28.65    1.38
  -5   9  -5   27.57    1.93
   5  -9   5   26.15    1.71
   5  -9   5   24.71    1.84
   5  -9   6   34.09    1.90
  -5   9  -6   33.97    2.19
  -5   9  -6   31.09    2.04
   5  -9   6   32.22    2.11
   5  -9   7   41.19    2.07
  -5   9  -7   43.89    2.60
  -5   9  -7   42.04    2.40
   5  -9   7   41.08    2.43
   5  -9   8   -0.01    0.33
  -5   9  -8    0.03    0.56
  -5   9  -8    0.99    0.52
   5  -9   8    1.35    0.69
  -5   9  -9   13.95    1.59
  -5   9  -9   13.59    1.43
   5  -9   9   15.38    1.56
  -5   9 -10   71.21    3.68
  -5   9 -10   72.19    3.40
   5  -9  10   69.84    3.41
  -5   9 -11    3.09    0.88
   5  -9  11    1.30    0.72
  -5   9 -11    3.44    0.90
  -5   9 -12    0.56    0.68
   5  -9  12    0.43    0.68
  -5   9 -13   26.63    2.18
  -5   8  13    1.31    0.61
  -5   8  12   12.92    1.55
   5  -8 -12   10.83    1.48
   5  -8 -11   11.77    1.43
  -5   8  11   10.51    1.36
   5  -8 -11   10.30    1.46
   5  -8 -10  102.02    4.16
  -5   8  10  104.03    4.21
   5  -8 -10   98.91    4.25
   5  -8  -9   27.42    2.06
  -5   8   9   31.11    2.19
   5  -8  -9   27.01    2.12
   5  -8  -8   42.40    2.47
   5  -8  -8   40.70    1.92
  -5   8   8   36.96    2.33
   5  -8  -8   38.96    2.42
   5  -8  -7   69.18    2.45
   5  -8  -7   69.74    3.20
  -5   8   7   68.84    3.16
   5  -8  -6    0.13    0.54
  -5   8   6    0.55    0.59
   5  -8  -6   -0.18    0.36
   5  -8  -5   62.56    2.94
  -5   8   5   69.04    3.03
   5  -8  -5   66.30    2.61
  -5   8   4    0.10    0.23
   5  -8  -4    0.28    0.45
  -5   8   4    0.23    0.51
   5  -8  -4    1.00    0.40
  -5   8   3    0.89    0.27
   5  -8  -3    0.26    0.44
  -5   8   3    0.75    0.54
   5  -8  -3    0.48    0.40
  -5   8   2   43.99    1.35
   5  -8  -2   43.25    2.30
  -5   8   2   44.61    2.33
   5  -8  -2   43.72    2.05
  -5   8   1   58.60    1.57
   5  -8  -1   54.09    2.56
  -5   8   1   59.80    2.68
  -5   8   1   54.87    2.35
   5  -8  -1   62.43    2.50
   5  -8   0    9.09    1.03
  -5   8   0    8.60    0.53
  -5   8   0    8.16    1.00
   5  -8   0    9.51    0.97
  -5   8   0    8.70    0.97
  -5   8  -1   27.94    1.68
   5  -8   1   25.86    1.68
  -5   8  -1   29.97    1.07
  -5   8  -2  138.24    4.25
   5  -8   2  148.11    4.35
  -5   8  -3    8.44    1.01
   5  -8   3    5.89    0.79
  -5   8  -4  101.49    3.69
  -5   8  -4  105.85    3.02
  -5   8  -4  107.90    3.58
   5  -8   4  106.25    3.47
   5  -8   4  103.94    3.75
  -5   8  -5   77.02    2.51
  -5   8  -5   71.52    3.10
   5  -8   5   73.72    2.77
  -5   8  -5   77.12    2.90
   5  -8   5   68.54    3.02
  -5   8  -6   14.91    1.20
   5  -8   6   15.78    1.20
  -5   8  -6   14.74    1.08
  -5   8  -6   14.97    1.44
  -5   8  -6   13.50    1.27
   5  -8   6   14.09    1.35
   5  -8   7   12.17    1.03
  -5   8  -7   12.09    1.35
  -5   8  -7   13.83    1.11
  -5   8  -7   13.12    1.05
  -5   8  -7   11.55    1.17
   5  -8   7   13.63    1.37
   5  -8   8   46.13    1.97
  -5   8  -8   45.22    2.65
  -5   8  -8   40.13    2.27
   5  -8   8   40.90    2.40
   5  -8   9   15.25    1.06
  -5   8  -9   16.52    1.69
  -5   8  -9   15.95    1.44
   5  -8   9   13.03    1.41
  -5   8 -10    5.89    1.15
   5  -8  10    6.32    1.06
  -5   8 -10    7.29    1.08
  -5   8 -11   21.04    2.05
  -5   8 -11   20.38    1.72
   5  -8  11   21.59    1.88
  -5   8 -12   10.60    1.53
  -5   8 -12   11.26    1.35
   5  -8  12    8.60    1.31
  -5   8 -13    1.41    0.66
   5  -8  13   -0.47    0.49
  -5   7  14    1.13    0.64
  -5   7  13   19.09    1.85
   5  -7 -13   20.72    2.02
  -5   7  12    8.76    1.24
   5  -7 -12    9.81    1.40
  -5   7  11    1.63    0.74
   5  -7 -11    0.83    0.57
   5  -7 -10    1.63    0.62
  -5   7  10    2.24    0.74
   5  -7 -10    1.91    0.72
   5  -7  -9    1.84    0.53
   5  -7  -9    1.19    0.63
  -5   7   9    0.96    0.54
   5  -7  -9    1.63    0.63
   5  -7  -8   95.50    3.69
   5  -7  -8   85.95    2.90
  -5   7   8   95.39    3.69
   5  -7  -8   90.82    3.67
   5  -7  -7   66.22    2.97
   5  -7  -7   64.49    2.29
  -5   7   7   64.62    2.94
   5  -7  -6   13.72    1.28
   5  -7  -6   13.04    0.89
  -5   7   6   11.66    1.20
   5  -7  -6   12.40    1.09
   5  -7  -5   19.50    1.54
  -5   7   5   18.05    1.45
   5  -7  -5   21.40    1.40
   5  -7  -4   23.46    1.63
  -5   7   4   22.70    1.61
   5  -7  -4   23.32    1.44
   5  -7  -3   37.97    2.08
  -5   7   3   41.96    2.15
   5  -7  -3   41.81    1.95
   5  -7  -2   31.79    1.85
  -5   7   2   31.29    0.95
  -5   7   2   33.53    1.89
   5  -7  -2   32.15    1.72
   5  -7  -1    6.62    0.90
  -5   7   1    6.31    0.34
   5  -7  -1    5.51    0.77
  -5   7   1    6.07    0.85
   5  -7  -1    5.66    0.74
  -5   7   1    6.94    0.80
   5  -7   0   71.23    2.80
  -5   7   0   74.99    1.59
  -5   7   0   77.00    2.92
   5  -7   0   77.39    2.88
  -5   7   0   75.01    2.87
  -5   7   0   71.68    2.71
   5  -7   0   75.89    2.79
   5  -7   1   15.59    1.22
  -5   7  -1   20.37    1.40
  -5   7  -1   17.72    0.67
  -5   7  -1   17.52    1.30
   5  -7   1   17.99    1.31
  -5   7  -1   15.51    1.23
   5  -7   1   16.36    1.25
  -5   7  -2    4.66    0.75
   5  -7   2    4.85    0.72
  -5   7  -2    4.37    0.69
   5  -7   2    4.47    0.70
  -5   7  -3   20.42    1.38
   5  -7   3   20.70    1.36
  -5   7  -3   19.45    1.44
   5  -7   3   18.92    1.34
  -5   7  -4  193.99    4.98
   5  -7   4  198.09    4.91
  -5   7  -4  189.52    5.30
   5  -7   4  199.43    5.14
   5  -7   4  191.23    5.29
   5  -7   5    0.30    0.34
  -5   7  -5    0.01    0.45
  -5   7  -5    0.83    0.38
  -5   7  -5    0.08    0.33
  -5   7  -5    0.33    0.38
   5  -7   5    0.27    0.49
   5  -7   5    0.75    0.33
   5  -7   6    2.04    0.47
  -5   7  -6    2.80    0.55
  -5   7  -6    1.63    0.61
  -5   7  -6    1.94    0.50
  -5   7  -6    1.97    0.54
   5  -7   6    1.44    0.56
  -5   7  -7   21.63    1.35
   5  -7   7   22.31    1.27
  -5   7  -7   21.44    1.28
  -5   7  -7   18.14    1.58
  -5   7  -7   22.30    1.40
  -5   7  -7   23.29    1.56
   5  -7   7   21.72    1.65
  -5   7  -8   25.41    1.55
   5  -7   8   28.97    1.39
  -5   7  -8   27.59    1.38
  -5   7  -8   25.03    1.91
  -5   7  -8   26.36    1.60
  -5   7  -8   26.25    1.71
   5  -7   8   28.08    1.92
   5  -7   8   24.75    1.39
   5  -7   9   30.99    1.36
  -5   7  -9   33.37    1.93
  -5   7  -9   30.75    2.20
  -5   7  -9   28.97    1.84
   5  -7   9   29.49    2.03
  -5   7 -10   28.94    2.23
  -5   7 -10   29.85    1.92
   5  -7  10   33.71    2.24
  -5   7 -11   15.22    1.71
   5  -7  11   14.76    1.54
  -5   7 -11   14.53    1.39
  -5   7 -12   24.73    2.21
  -5   7 -12   21.67    1.71
   5  -7  12   20.99    1.89
  -5   7 -13   48.04    2.65
   5  -7  13   46.73    2.92
   5  -7  14   17.85    1.82
  -5   6  15   23.81    2.10
  -5   6  14   11.39    1.47
  -5   6  13   15.47    1.62
   5  -6 -13   16.09    1.74
  -5   6  12   10.24    1.31
   5  -6 -12   11.38    1.42
  -5   6  11   47.85    2.69
   5  -6 -11   47.23    2.76
  -5   6  10   46.81    2.58
   5  -6 -10   50.74    2.76
   5  -6  -9    4.79    0.69
   5  -6  -9    4.79    0.83
  -5   6   9    4.06    0.81
   5  -6  -9    5.37    0.91
   5  -6  -8   28.92    1.86
   5  -6  -8   25.98    1.44
  -5   6   8   27.46    1.85
   5  -6  -8   25.59    1.83
   5  -6  -7  274.19    5.91
   5  -6  -7  281.28    6.94
   5  -6  -7  290.65    6.68
  -5   6   7  277.64    6.93
   5  -6  -7  265.61    6.87
   5  -6  -6    3.15    0.45
   5  -6  -6    3.39    0.69
   5  -6  -6    3.59    0.63
  -5   6   6    3.06    0.72
   5  -6  -6    3.52    0.69
   5  -6  -5   49.84    2.36
   5  -6  -5   49.46    1.63
  -5   6   5   49.26    2.35
   5  -6  -5   53.81    2.25
   5  -6  -4  157.46    3.32
   5  -6  -4  156.81    4.58
  -5   6   4  163.48    4.62
   5  -6  -4  170.15    4.43
  -5   6   3  120.73    3.84
   5  -6  -3  109.65    3.61
  -5   6   3  114.02    3.64
   5  -6  -3  116.99    3.50
  -5   6   2  244.87    5.94
   5  -6  -2  231.76    5.75
  -5   6   2  224.64    5.68
   5  -6  -2  237.48    5.59
   5  -6  -1    2.54    0.54
  -5   6   1    2.99    0.52
   5  -6  -1    2.43    0.54
  -5   6   1    3.04    0.61
   5  -6  -1    2.83    0.53
  -5   6   1    2.73    0.60
  -5   6   0  215.20    5.33
   5  -6   0  204.12    5.16
   5  -6   0  211.36    5.18
  -5   6   0  208.90    5.21
  -5   6   0  204.88    5.15
   5  -6   0  216.34    5.25
  -5   6  -1   35.51    0.83
  -5   6  -1   39.71    1.87
   5  -6   1   35.55    1.76
  -5   6  -1   36.13    0.83
  -5   6  -1   37.53    1.83
   5  -6   1   39.68    1.83
   5  -6   1   40.06    1.92
  -5   6  -1   38.93    1.89
   5  -6   2   90.09    2.93
  -5   6  -2   90.64    1.97
  -5   6  -2   96.91    3.02
  -5   6  -2   89.03    3.09
   5  -6   2   96.29    3.21
   5  -6   2   84.83    2.88
  -5   6  -3   12.53    0.66
   5  -6   3   11.70    0.96
  -5   6  -3   12.97    1.02
  -5   6  -3   13.31    1.13
   5  -6   3   12.58    1.01
   5  -6   3   13.00    1.16
  -5   6  -4  151.59    3.95
  -5   6  -4  146.96    3.34
   5  -6   4  147.91    3.85
  -5   6  -4  144.59    4.36
   5  -6   4  147.39    4.00
   5  -6   4  149.12    4.35
  -5   6  -5   60.54    1.99
  -5   6  -5   58.81    2.18
   5  -6   5   62.33    2.17
  -5   6  -5   62.57    2.30
  -5   6  -5   63.60    2.71
   5  -6   5   59.96    2.32
  -5   6  -5   58.99    2.32
   5  -6   5   57.34    2.54
   5  -6   6    0.17    0.25
  -5   6  -6    0.39    0.30
  -5   6  -6    0.03    0.42
  -5   6  -6   -0.03    0.32
  -5   6  -6    0.20    0.31
  -5   6  -6    0.47    0.38
   5  -6   6    0.07    0.46
   5  -6   6    0.13    0.27
   5  -6   7   25.38    1.22
  -5   6  -7   20.91    1.29
  -5   6  -7   21.15    1.16
  -5   6  -7   20.28    1.63
  -5   6  -7   21.00    1.39
  -5   6  -7   22.65    1.43
   5  -6   7   22.22    1.41
   5  -6   7   22.47    1.63
   5  -6   7   22.03    1.17
   5  -6   8   48.38    1.67
  -5   6  -8   44.73    2.07
  -5   6  -8   48.75    2.61
  -5   6  -8   47.87    2.24
  -5   6  -8   50.08    1.72
   5  -6   8   44.18    2.08
  -5   6  -8   45.81    2.15
   5  -6   8   49.63    2.50
   5  -6   8   46.11    1.78
  -5   6  -9    2.81    0.38
  -5   6  -9    3.04    0.76
   5  -6   9    1.25    0.56
  -5   6  -9    2.42    0.53
   5  -6   9    2.60    0.49
  -5   6 -10   -0.49    0.61
   5  -6  10   -0.81    0.59
  -5   6 -10   -0.23    0.44
  -5   6 -11    3.62    0.88
  -5   6 -11    3.19    0.69
   5  -6  11    4.11    0.95
  -5   6 -12    1.56    0.79
   5  -6  12    0.83    0.64
  -5   6 -12    1.46    0.60
  -5   6 -13    3.77    1.03
  -5   6 -13    2.19    0.59
   5  -6  13    3.18    0.86
   5  -6  14   14.67    1.65
  -5   5  15   36.05    2.56
  -5   5  14   12.77    1.51
   5  -5 -14   15.84    1.72
  -5   5  13   14.47    1.55
   5  -5 -13   17.75    1.76
  -5   5  12   21.52    1.82
   5  -5 -12   27.49    2.16
  -5   5  11   34.57    2.21
   5  -5 -11   40.00    2.46
  -5   5  10   48.46    2.58
   5  -5 -10   55.00    2.81
   5  -5  -9  106.80    3.36
  -5   5   9  111.57    3.93
   5  -5  -9  109.34    3.98
   5  -5  -8    0.69    0.31
  -5   5   8    0.96    0.46
   5  -5  -8    2.64    0.72
   5  -5  -7  213.59    5.66
   5  -5  -7  209.43    4.82
  -5   5   7  221.79    5.76
   5  -5  -7  224.49    5.80
   5  -5  -6  115.61    3.76
   5  -5  -6  117.28    2.98
   5  -5  -6  121.02    3.67
  -5   5   6  115.68    3.78
   5  -5  -6  116.41    3.76
  -5   5   5   22.56    1.49
   5  -5  -5   19.52    1.40
   5  -5  -5   19.89    0.94
   5  -5  -5   20.25    1.33
   5  -5  -5   22.59    1.49
  -5   5   5   19.48    1.40
   5  -5  -5   18.92    1.34
  -5   5   4   11.59    1.06
   5  -5  -4   10.77    0.59
   5  -5  -4   11.46    1.04
  -5   5   4   10.23    0.99
   5  -5  -4   11.62    0.98
  -5   5   3  273.17    6.31
   5  -5  -3  260.29    6.15
  -5   5   3  267.43    6.16
   5  -5  -3  262.97    6.02
  -5   5   2  429.14    8.60
   5  -5  -2  409.26    8.48
  -5   5   2  393.58    8.37
   5  -5  -2  416.36    8.41
   5  -5  -1    1.14    0.41
  -5   5   1    0.53    0.64
  -5   5   1    0.45    0.50
   5  -5  -1    2.37    0.57
  -5   5   0  169.70    4.37
   5  -5   0  167.80    4.30
   5  -5   0  168.63    4.22
  -5   5   0  170.19    4.30
  -5   5   0  165.40    4.35
   5  -5   0  169.41    4.40
  -5   5  -1  563.21   10.48
   5  -5   1  535.60   10.31
  -5   5  -1  536.39   10.57
   5  -5   1  547.99   10.63
   5  -5   1  545.68   10.26
  -5   5  -1  550.33   10.37
  -5   5  -2    6.43    0.71
  -5   5  -2    5.57    0.33
   5  -5   2    5.62    0.66
  -5   5  -2    5.51    0.72
   5  -5   2    5.54    0.72
  -5   5  -2    4.92    0.62
   5  -5   2    5.68    0.65
  -5   5  -3    3.87    0.71
   5  -5   3    4.03    0.67
  -5   5  -3    3.00    0.32
  -5   5  -3    3.74    0.54
   5  -5   3    3.12    0.51
   5  -5   3    3.58    0.51
   5  -5   3    3.11    0.62
   5  -5   4  347.82    6.94
  -5   5  -4  347.10    6.50
  -5   5  -4  357.69    7.04
  -5   5  -4  346.90    7.73
   5  -5   4  344.89    7.07
   5  -5   4  354.92    7.68
  -5   5  -5  194.19    4.44
   5  -5   5  202.64    4.41
  -5   5  -5  199.58    4.33
  -5   5  -5  199.04    5.29
  -5   5  -5  195.46    4.84
   5  -5   5  189.15    4.56
  -5   5  -5  193.47    4.62
   5  -5   5  191.69    5.13
   5  -5   6   66.46    2.04
  -5   5  -6   66.38    2.24
  -5   5  -6   69.09    2.13
  -5   5  -6   67.61    2.55
  -5   5  -6   69.42    2.87
  -5   5  -6   66.56    2.34
   5  -5   6   67.27    2.33
   5  -5   6   66.83    2.75
  -5   5  -7    3.52    0.74
  -5   5  -7    5.22    0.51
  -5   5  -7    4.88    0.70
  -5   5  -7    4.11    0.60
   5  -5   7    4.23    0.46
   5  -5   7    3.97    0.58
  -5   5  -7    4.53    0.66
   5  -5   7    4.76    0.78
  -5   5  -8   84.45    2.89
  -5   5  -8   82.25    2.10
  -5   5  -8   75.88    3.25
  -5   5  -8   74.38    2.96
  -5   5  -8   80.93    2.75
   5  -5   8   74.40    2.62
   5  -5   8   83.02    3.25
   5  -5   8   81.91    2.27
  -5   5  -9    4.00    0.85
  -5   5  -9    6.29    0.38
  -5   5  -9    4.62    0.69
   5  -5   9    4.84    0.81
   5  -5   9    5.71    0.57
   5  -5   9    5.47    0.70
  -5   5 -10    2.73    0.73
  -5   5 -10    3.89    0.59
  -5   5 -10    3.69    0.64
   5  -5  10    4.27    0.89
  -5   5 -11   24.18    2.03
  -5   5 -11   21.65    1.49
   5  -5  11   21.38    1.79
  -5   5 -12    6.18    1.14
  -5   5 -12    7.69    0.97
   5  -5  12    6.90    1.16
  -5   5 -13   -0.98    0.72
  -5   5 -13    0.60    0.44
   5  -5  13    0.75    0.56
  -5   5 -14    0.75    0.79
   5  -5  14    0.32    0.70
  -5   4  16    0.13    0.60
  -5   4  15    2.14    0.76
  -5   4  14   16.88    1.69
   5  -4 -14   18.16    1.79
  -5   4  13   25.51    2.01
   5  -4 -13   27.58    2.15
  -5   4  12   20.86    1.73
   5  -4 -12   18.66    1.74
  -5   4  11    8.55    1.16
   5  -4 -11    8.99    1.83
  -5   4  10   59.62    2.79
   5  -4 -10   58.11    2.83
   5  -4  -9   42.27    1.95
  -5   4   9   41.93    2.25
   5  -4  -9   39.27    2.22
   5  -4  -8   40.47    1.78
  -5   4   8   37.09    2.05
   5  -4  -8   35.04    2.01
   5  -4  -7   58.60    2.05
  -5   4   7   56.40    2.49
   5  -4  -7   57.04    2.49
   5  -4  -6   55.82    1.86
  -5   4   6   59.06    2.46
   5  -4  -6   60.08    2.51
  -5   4   6   51.45    2.33
   5  -4  -6   55.50    2.37
   5  -4  -5   40.18    1.40
  -5   4   5   41.17    2.00
   5  -4  -5   42.65    2.01
  -5   4   5   38.46    1.91
   5  -4  -5   37.77    1.84
   5  -4  -4   57.14    2.31
   5  -4  -4   53.90    1.52
  -5   4   4   56.71    2.32
   5  -4  -4   63.96    2.36
  -5   4   4   61.06    2.37
   5  -4  -4   61.43    2.39
   5  -4  -4   60.96    2.28
   5  -4  -3  145.86    3.95
   5  -4  -3  139.48    2.68
  -5   4   3  150.75    4.03
   5  -4  -3  142.92    3.89
   5  -4  -3  148.04    3.95
  -5   4   3  148.33    3.96
   5  -4  -3  137.80    3.69
  -5   4   2    8.26    0.84
   5  -4  -2    8.29    0.84
  -5   4   2    8.37    0.82
   5  -4  -2    8.24    0.79
   5  -4  -1  418.66    8.47
  -5   4   1  436.00    8.59
  -5   4   1  433.77    8.46
   5  -4  -1  435.92    8.61
   5  -4   0  133.91    3.57
  -5   4   0  138.71    3.65
  -5   4   0  133.90    3.53
  -5   4   0  134.06    3.70
   5  -4   0  137.67    3.76
  -5   4  -1    7.11    0.74
   5  -4   1    6.30    0.70
  -5   4  -1    9.42    0.98
   5  -4   1   13.81    1.09
   5  -4   1   11.52    0.84
  -5   4  -1    6.68    0.74
  -5   4  -2  438.15    8.20
   5  -4   2  428.79    8.13
  -5   4  -2  416.76    7.04
  -5   4  -2  418.87    8.58
   5  -4   2  440.65    8.69
  -5   4  -2  425.66    8.10
   5  -4   2  411.03    7.93
   5  -4   2  423.98    8.51
  -5   4  -3  278.88    5.10
  -5   4  -3  283.59    5.77
   5  -4   3  271.56    5.66
  -5   4  -3  274.37    6.29
   5  -4   3  287.66    6.40
  -5   4  -3  278.20    5.73
   5  -4   3  270.23    5.58
   5  -4   3  270.79    6.20
  -5   4  -4   11.63    0.70
  -5   4  -4   11.46    0.80
  -5   4  -4   12.10    1.09
   5  -4   4   10.52    0.76
   5  -4   4   11.24    1.01
  -5   4  -5  181.48    3.94
  -5   4  -5  171.86    3.96
  -5   4  -5  173.24    4.79
  -5   4  -5  180.14    4.58
   5  -4   5  177.44    4.01
  -5   4  -5  176.16    4.04
   5  -4   5  177.86    4.74
  -5   4  -6  861.21   14.52
  -5   4  -6  877.16   15.07
  -5   4  -6  890.47   15.77
  -5   4  -6  836.04   16.02
  -5   4  -6  850.89   14.90
   5  -4   6  854.58   14.85
   5  -4   6  858.71   15.93
   5  -4   6  863.58   14.13
  -5   4  -7  166.79    4.20
  -5   4  -7  164.78    3.43
  -5   4  -7  166.51    4.60
  -5   4  -7  160.38    4.79
  -5   4  -7  161.30    3.94
   5  -4   7  160.42    3.89
   5  -4   7  159.09    3.31
   5  -4   7  157.70    4.64
  -5   4  -8   20.14    1.32
  -5   4  -8   21.82    0.76
  -5   4  -8   19.92    1.55
  -5   4  -8   21.32    1.21
   5  -4   8   18.64    1.13
   5  -4   8   19.58    0.88
   5  -4   8   22.44    1.62
  -5   4  -9   55.67    2.76
  -5   4  -9   60.04    2.21
   5  -4   9   58.02    2.74
   5  -4   9   55.00    1.70
  -5   4 -10  551.03   12.17
  -5   4 -10  571.69   10.87
  -5   4 -10  568.06   10.33
   5  -4  10  564.78   12.08
   5  -4  10  570.09   10.07
  -5   4 -11    3.98    0.90
  -5   4 -11    3.94    0.61
   5  -4  11    1.48    0.64
  -5   4 -12    6.20    1.11
  -5   4 -12    5.55    0.76
   5  -4  12    4.92    0.93
  -5   4 -13   42.03    2.78
  -5   4 -13   48.41    2.25
   5  -4  13   42.60    2.70
  -5   4 -14   26.99    2.27
   5  -4  14   24.40    2.13
  -5   3  16   21.20    1.99
  -5   3  15    5.77    1.10
   5  -3 -15    5.31    1.06
  -5   3  14    2.74    0.76
   5  -3 -14    2.69    0.80
  -5   3  13   -0.26    0.49
   5  -3 -13    0.77    0.56
  -5   3  12    1.21    0.50
   5  -3 -12    2.53    0.72
  -5   3  11    2.38    0.77
   5  -3 -11    1.66    0.66
  -5   3  10    0.56    0.53
   5  -3 -10   -0.84    0.64
   5  -3  -9    4.47    0.67
  -5   3   9    4.07    0.78
   5  -3  -9    5.11    0.88
   5  -3  -8   45.14    1.92
  -5   3   8   47.22    2.28
   5  -3  -8   42.47    2.18
   5  -3  -7    3.41    0.54
  -5   3   7    3.71    0.66
  -5   3   7    3.46    0.65
   5  -3  -7    4.45    0.73
   5  -3  -6    0.17    0.22
  -5   3   6   -0.04    0.31
  -5   3   6   -0.01    0.40
   5  -3  -6    0.35    0.34
   5  -3  -6    0.21    0.37
   5  -3  -5    0.14    0.17
  -5   3   5    0.36    0.56
   5  -3  -5    0.34    0.38
  -5   3   5    0.51    0.44
   5  -3  -5    0.37    0.34
   5  -3  -4    0.67    0.21
  -5   3   4    1.05    0.40
  -5   3   4    0.68    0.40
   5  -3  -4    0.36    0.34
   5  -3  -4    0.47    0.38
   5  -3  -3   20.95    0.75
  -5   3   3   21.61    1.30
   5  -3  -3   23.72    1.36
   5  -3  -3   21.25    1.29
  -5   3   3   20.76    1.26
   5  -3  -3   21.81    1.20
   5  -3  -2    1.80    0.17
  -5   3   2    1.41    0.39
   5  -3  -2    2.15    0.48
  -5   3   2    1.44    0.46
   5  -3  -2    2.21    0.45
   5  -3  -2    1.39    0.39
  -5   3   1    4.37    0.61
   5  -3  -1    5.14    0.65
  -5   3   1    3.99    0.53
   5  -3  -1    4.22    0.57
   5  -3  -1    3.78    0.49
  -5   3   0  159.92    3.82
  -5   3   0  148.35    3.90
   5  -3   0  150.50    3.91
  -5   3   0  147.77    3.63
   5  -3   0  151.67    3.32
  -5   3  -1   69.28    2.21
  -5   3  -1   67.53    2.39
   5  -3   1   73.91    2.47
  -5   3  -1   68.24    2.10
   5  -3   1   66.31    1.96
   5  -3   1   70.37    2.34
   5  -3   1   67.99    1.77
  -5   3  -2    0.76    0.18
  -5   3  -2    1.63    0.37
  -5   3  -2    0.82    0.42
   5  -3   2    1.01    0.37
  -5   3  -2    0.94    0.29
   5  -3   2    0.91    0.26
   5  -3   2    1.29    0.46
  -5   3  -3   20.89    0.88
  -5   3  -3   21.70    1.07
  -5   3  -3   20.70    1.30
   5  -3   3   21.57    1.33
  -5   3  -3   19.50    0.98
   5  -3   3   21.23    0.94
   5  -3   3   21.48    1.29
  -5   3  -4  198.91    4.22
  -5   3  -4  208.57    4.31
  -5   3  -4  205.41    5.08
  -5   3  -4  203.76    4.24
   5  -3   4  199.97    4.11
   5  -3   4  204.48    5.00
  -5   3  -5   80.35    2.11
  -5   3  -5   76.75    2.29
  -5   3  -5   80.12    2.85
  -5   3  -5   80.18    2.75
  -5   3  -5   77.79    2.10
   5  -3   5   76.46    2.05
  -5   3  -5   81.79    2.13
   5  -3   5   82.32    2.83
   5  -3   5   74.73    1.49
  -5   3  -6   36.36    1.22
  -5   3  -6   34.06    1.54
  -5   3  -6   37.78    1.87
  -5   3  -6   32.48    1.84
  -5   3  -6   33.27    1.29
   5  -3   6   34.70    1.29
   5  -3   6   34.22    0.85
  -5   3  -6   36.05    1.88
   5  -3   6   35.47    1.86
  -5   3  -7   81.93    1.86
  -5   3  -7   85.34    2.73
  -5   3  -7   81.03    2.99
  -5   3  -7   77.51    3.01
  -5   3  -7   75.94    2.22
   5  -3   7   79.38    3.00
   5  -3   7   75.40    1.67
  -5   3  -8  104.64    3.33
  -5   3  -8  105.16    3.70
  -5   3  -8  104.62    2.81
   5  -3   8  105.37    3.64
  -5   3  -9    0.83    0.52
  -5   3  -9    0.81    0.27
  -5   3  -9    0.14    0.28
   5  -3   9   -0.32    0.49
  -5   3 -10   14.48    1.41
  -5   3 -10   14.18    0.78
  -5   3 -10   13.62    0.97
   5  -3  10   16.86    1.50
  -5   3 -11  151.72    5.14
  -5   3 -11  160.93    4.12
   5  -3  11  158.40    5.17
  -5   3 -12   70.13    3.46
  -5   3 -12   77.43    2.69
   5  -3  12   79.75    3.58
  -5   3 -13    1.22    0.61
   5  -3  13    1.40    0.65
  -5   3 -13    2.89    0.66
  -5   3 -14    4.60    1.01
   5  -3  14    5.19    1.06
  -5   3 -15  139.19    5.53
  -5   2  16   91.96    4.22
  -5   2  15    6.21    1.13
   5  -2 -15    8.59    1.32
  -5   2  14    7.40    1.16
   5  -2 -14    8.10    1.24
  -5   2  13  277.04    7.53
   5  -2 -13  282.13    7.74
  -5   2  12   72.40    3.28
   5  -2 -12   78.86    3.47
  -5   2  11    5.03    0.90
   5  -2 -11    4.74    0.88
  -5   2  10   64.27    2.86
   5  -2 -10   62.74    2.87
   5  -2  -9  260.46    6.10
  -5   2   9  255.15    6.46
   5  -2  -9  254.32    6.48
  -5   2   8   28.14    1.64
  -5   2   8   24.24    1.62
   5  -2  -8   24.99    1.63
  -5   2   7   57.74    2.38
  -5   2   7   56.12    2.40
   5  -2  -7   54.25    2.37
   5  -2  -7   52.73    2.30
  -5   2   6  250.34    5.72
  -5   2   6  220.17    5.57
   5  -2  -6  240.42    5.73
   5  -2  -6  234.80    5.59
  -5   2   5   47.86    2.01
   5  -2  -5   44.19    1.97
  -5   2   5   41.55    1.91
   5  -2  -5   42.33    1.86
  -5   2   4    4.15    0.58
  -5   2   4    5.05    0.67
   5  -2  -4    4.11    0.61
   5  -2  -4    4.29    0.60
  -5   2   3   39.15    1.73
   5  -2  -3   37.06    1.64
  -5   2   3   35.62    1.63
   5  -2  -3   35.30    1.50
  -5   2   2  181.28    4.32
   5  -2  -2  179.14    4.35
   5  -2  -2  177.12    4.18
  -5   2   2  172.85    4.15
   5  -2  -2  174.88    3.92
   5  -2  -1    0.32    0.16
  -5   2   1   -0.29    0.31
   5  -2  -1    0.20    0.29
  -5   2   1   -0.11    0.33
   5  -2  -1   -0.03    0.28
   5  -2  -1    0.27    0.26
   5  -2   0    5.62    0.64
   5  -2   0    5.35    0.35
  -5   2   0    4.58    0.55
   5  -2   0    5.88    0.66
  -5   2   0    6.15    0.73
  -5   2   0    4.76    0.54
   5  -2   0    5.66    0.58
   5  -2   0    4.87    0.43
   5  -2   1   -0.07    0.16
  -5   2  -1    0.09    0.24
   5  -2   1    0.22    0.32
  -5   2  -1    0.00    0.38
  -5   2  -1    0.35    0.24
   5  -2   1    0.19    0.23
   5  -2   1    0.09    0.14
   5  -2   1   -0.15    0.33
   5  -2   2    1.61    0.28
  -5   2  -2    1.54    0.28
  -5   2  -2    1.32    0.32
  -5   2  -2    1.22    0.46
   5  -2   2    1.73    0.46
  -5   2  -2    1.51    0.30
   5  -2   2    1.61    0.18
   5  -2   2    0.98    0.37
   5  -2   2    1.38    0.23
  -5   2  -3    2.01    0.37
   5  -2   3    2.76    0.37
  -5   2  -3    2.61    0.34
  -5   2  -3    2.21    0.50
   5  -2   3    3.12    0.54
  -5   2  -3    2.83    0.37
   5  -2   3    2.32    0.27
   5  -2   3    1.47    0.42
   5  -2   4   30.61    1.27
  -5   2  -4   31.97    1.23
  -5   2  -4   30.34    1.28
  -5   2  -4   31.66    1.61
   5  -2   4   32.50    1.65
  -5   2  -4   33.97    1.11
   5  -2   4   31.47    0.98
  -5   2  -4   30.56    1.58
   5  -2   4   33.07    1.62
  -5   2  -5   46.89    1.44
  -5   2  -5   43.35    1.68
  -5   2  -5   44.01    2.01
  -5   2  -5   50.50    2.12
  -5   2  -5   43.15    1.27
   5  -2   5   43.68    1.23
  -5   2  -5   45.38    2.00
   5  -2   5   46.12    2.02
  -5   2  -6   25.51    1.35
  -5   2  -6   26.33    0.96
  -5   2  -6   28.46    1.63
  -5   2  -6   22.87    1.47
  -5   2  -6   24.99    0.94
  -5   2  -6   26.44    0.89
   5  -2   6   27.48    1.60
  -5   2  -6   27.67    1.60
  -5   2  -7    0.98    0.40
  -5   2  -7    0.72    0.16
  -5   2  -7    0.62    0.14
  -5   2  -7    0.91    0.47
  -5   2  -7    1.27    0.47
  -5   2  -7    0.78    0.19
  -5   2  -7    0.34    0.18
   5  -2   7    0.22    0.40
  -5   2  -8   44.08    2.03
  -5   2  -8   43.25    2.20
  -5   2  -8   41.26    1.12
  -5   2  -8   41.68    1.43
  -5   2  -8   41.83    1.11
   5  -2   8   41.21    2.16
  -5   2  -9   40.69    2.24
  -5   2  -9   45.62    1.60
  -5   2  -9   46.36    1.17
   5  -2   9   48.05    2.41
  -5   2 -10    5.08    0.88
  -5   2 -10    7.05    0.67
  -5   2 -10    7.58    0.39
   5  -2  10    8.27    1.08
  -5   2 -11   33.18    2.18
  -5   2 -11   33.52    1.52
   5  -2  11   36.13    2.26
  -5   2 -12   50.03    2.77
  -5   2 -12   49.73    1.98
   5  -2  12   46.89    2.73
  -5   2 -13   15.39    1.63
   5  -2  13   17.40    1.70
  -5   2 -14   12.20    1.53
  -5   2 -15   15.85    1.76
  -5   1  16   14.69    1.66
  -5   1  15   88.28    4.00
   5  -1 -15   90.78    4.18
  -5   1  14   13.84    1.52
   5  -1 -14   14.60    1.61
  -5   1  13   29.16    2.11
   5  -1 -13   34.26    2.32
  -5   1  12   91.25    3.70
   5  -1 -12   86.48    3.10
   5  -1 -12   94.06    3.83
  -5   1  11  253.98    6.74
   5  -1 -11  253.89    6.81
  -5   1  10   15.24    1.39
   5  -1 -10   16.86    1.47
  -5   1   9    6.05    0.89
   5  -1  -9    5.85    0.87
  -5   1   8  649.91   12.36
  -5   1   8  612.11   12.41
   5  -1  -8  651.16   12.53
  -5   1   7  499.27    9.82
  -5   1   7  471.45    9.84
   5  -1  -7  485.92    9.92
  -5   1   7  502.23    9.96
   5  -1  -7  473.13    9.79
  -5   1   6   43.55    1.98
  -5   1   6   42.66    1.98
   5  -1  -6   44.04    2.01
  -5   1   6   48.11    2.06
   5  -1  -6   43.35    1.96
  -5   1   5   89.10    2.88
  -5   1   5   83.71    2.83
   5  -1  -5   90.79    2.91
  -5   1   5   90.99    2.86
   5  -1  -5   84.92    2.76
  -5   1   4  363.32    7.53
   5  -1  -4  376.49    7.59
  -5   1   4  372.33    7.44
   5  -1  -4  368.76    7.38
  -5   1   3   98.10    2.90
   5  -1  -3  103.73    2.95
  -5   1   3  102.26    2.81
   5  -1  -3  102.47    2.79
   5  -1  -2  147.44    3.79
  -5   1   2  144.90    3.60
   5  -1  -2  142.61    3.58
  -5   1   2  145.42    3.41
   5  -1  -2  149.82    3.42
   5  -1  -1  214.38    4.87
  -5   1   1  209.40    4.56
   5  -1  -1  207.74    4.56
   5  -1  -1  211.34    4.46
  -5   1   1  224.73    4.38
   5  -1  -1  209.69    4.29
   5  -1   0   79.75    1.98
   5  -1   0   81.26    2.53
   5  -1   0   82.64    2.25
  -5   1   0   78.91    2.21
  -5   1   0   80.58    1.97
   5  -1   0   82.11    2.32
   5  -1   0   80.40    1.96
   5  -1   1   46.15    1.42
  -5   1  -1   46.48    1.82
   5  -1   1   47.42    1.83
   5  -1   1   44.90    1.48
  -5   1  -1   44.80    1.46
   5  -1   1   44.31    1.67
   5  -1   1   43.65    1.17
   5  -1   2   94.50    2.37
  -5   1  -2   95.49    2.83
   5  -1   2   94.62    2.82
   5  -1   2   94.06    1.92
   5  -1   2   92.32    2.23
  -5   1  -2   94.26    2.24
   5  -1   2   98.40    2.76
   5  -1   3   24.68    1.10
  -5   1  -3   24.10    1.11
  -5   1  -3   27.01    1.38
   5  -1   3   23.99    1.32
  -5   1  -3   24.49    0.88
   5  -1   3   23.80    0.61
  -5   1  -3   22.83    1.27
   5  -1   3   24.38    1.30
   5  -1   4    8.88    0.74
  -5   1  -4    9.04    0.72
  -5   1  -4    9.73    0.88
   5  -1   4   11.04    0.91
  -5   1  -4    9.17    0.46
   5  -1   4   10.61    0.93
  -5   1  -4    9.77    0.86
  -5   1  -5   52.23    1.57
   5  -1   5   54.96    1.99
  -5   1  -5   54.88    1.98
  -5   1  -5   51.86    1.57
  -5   1  -5   56.07    2.29
  -5   1  -5   55.26    2.19
  -5   1  -5   52.90    1.14
   5  -1   5   53.27    2.20
  -5   1  -5   54.22    2.19
  -5   1  -6    8.72    0.89
  -5   1  -6    9.82    0.97
  -5   1  -6    9.42    0.55
  -5   1  -6    9.17    0.56
   5  -1   6    9.26    0.89
  -5   1  -6   10.08    0.88
  -5   1  -6    9.76    0.96
   5  -1   6   10.36    1.00
   5  -1   7    7.60    0.86
  -5   1  -7    7.47    0.82
  -5   1  -7    8.80    0.47
  -5   1  -7    7.86    0.91
  -5   1  -7    8.47    0.46
  -5   1  -7    7.53    0.43
   5  -1   7    7.78    0.92
  -5   1  -8  100.65    3.32
  -5   1  -8   97.62    3.39
  -5   1  -8   99.09    2.27
   5  -1   8   99.15    3.52
  -5   1  -9   -0.14    0.40
   5  -1   9    0.53    0.52
  -5   1  -9    0.28    0.23
  -5   1 -10   39.91    2.22
  -5   1 -10   40.42    1.46
   5  -1  10   40.39    2.33
  -5   1 -11   32.82    2.10
  -5   1 -11   34.39    1.44
   5  -1  11   35.34    2.29
  -5   1 -12   25.34    1.94
  -5   1 -12   27.40    1.35
   5  -1  12   30.16    2.15
  -5   1 -13    9.59    1.25
  -5   1 -14   28.73    2.24
  -5   1 -15   39.84    2.70
  -5   1 -16    0.97    0.75
  -5   0  16    3.39    0.88
  -5   0  15    0.16    0.57
   5   0 -15    0.45    0.57
   5   0 -15    0.21    0.54
   5   0 -14   -0.08    0.65
   5   0 -14    1.25    0.60
  -5   0  13   19.69    1.75
   5   0 -13   20.45    1.82
  -5   0  12   44.90    2.52
   5   0 -12   42.21    2.51
   5   0 -12   41.90    1.93
  -5   0  11   12.36    1.33
   5   0 -11   15.12    1.46
   5   0 -11   13.94    1.04
  -5   0  10   20.24    1.58
   5   0 -10   19.46    1.16
   5   0 -10   22.78    1.67
  -5   0   9   28.92    1.81
   5   0  -9   29.27    1.83
  -5   0   8   41.29    2.11
   5   0  -8   41.34    2.09
  -5   0   7   44.86    2.14
   5   0  -7   49.00    2.21
  -5   0   7   48.66    2.19
   5   0  -7   47.13    2.14
  -5   0   6  185.08    4.86
   5   0  -6  195.20    4.92
  -5   0   6  198.50    4.90
   5   0  -6  179.22    4.72
  -5   0   5   50.52    2.10
   5   0  -5   52.81    2.13
  -5   0   5   49.59    2.04
   5   0  -5   48.71    2.01
  -5   0   4    2.59    0.56
   5   0  -4    2.14    0.43
   5   0  -4    3.63    0.57
  -5   0   4    2.81    0.47
   5   0  -3  218.18    4.92
  -5   0   3  216.17    4.93
  -5   0   3  215.60    4.77
   5   0  -3  218.87    4.77
  -5   0   2  196.70    4.42
   5   0  -2  195.17    4.43
  -5   0   2  193.61    4.23
   5   0  -2  194.90    4.22
   5   0  -2  193.77    3.94
   5   0  -1  140.11    3.48
  -5   0   1  129.73    3.18
   5   0  -1  129.48    3.20
  -5   0   1  122.87    2.97
   5   0  -1  128.74    2.96
   5   0  -1  129.46    2.98
   5   0   0  210.32    4.43
   5   0   0  220.75    4.86
  -5   0   0  214.65    4.47
   5   0   0  216.38    4.47
  -5   0   0  219.01    4.24
   5   0   0  219.78    4.50
   5   0   1  329.59    6.28
   5   0   1  332.83    6.66
  -5   0  -1  336.65    6.10
   5   0   1  322.00    6.07
  -5   0  -1  327.81    5.78
  -5   0  -1  319.32    6.38
   5   0   1  332.82    6.42
   5   0   2   82.01    2.30
  -5   0  -2   76.37    2.44
   5   0   2   77.81    2.46
   5   0   2   79.81    1.94
  -5   0  -2   79.30    1.93
  -5   0  -2   81.41    1.69
   5   0   2   78.83    2.39
  -5   0  -2   78.55    2.40
  -5   0  -3  199.07    4.38
   5   0   3  187.54    4.30
  -5   0  -3  194.48    4.51
   5   0   3  193.30    4.52
   5   0   3  189.43    3.59
  -5   0  -3  195.90    3.59
   5   0   3  197.16    4.54
  -5   0  -3  193.56    4.53
  -5   0  -4   64.09    1.94
  -5   0  -4   69.50    2.34
  -5   0  -4   65.41    2.49
   5   0   4   67.19    2.31
   5   0   4   63.80    2.16
  -5   0  -4   66.02    2.22
   5   0   4   66.01    2.35
  -5   0  -4   71.20    2.43
  -5   0  -5  265.42    6.16
  -5   0  -5  252.17    5.73
  -5   0  -5  257.53    5.08
   5   0   5  256.66    5.68
  -5   0  -5  258.52    5.73
   5   0   5  252.53    5.91
  -5   0  -5  260.53    5.95
  -5   0  -6  197.93    5.20
  -5   0  -6  198.03    4.83
  -5   0  -6  192.94    3.96
   5   0   6  183.85    4.71
  -5   0  -6  187.71    4.76
  -5   0  -6  199.23    5.06
   5   0   6  191.04    4.99
  -5   0  -7  163.65    3.37
  -5   0  -7  160.81    4.37
   5   0   7  157.23    4.35
  -5   0  -7  167.05    4.47
  -5   0  -7  162.66    2.84
   5   0   7  159.47    4.57
  -5   0  -8  114.61    2.37
   5   0   8  110.15    3.58
  -5   0  -8  111.35    3.56
  -5   0  -8  108.36    2.23
  -5   0  -8  111.19    2.24
   5   0   8  108.43    3.76
   5   0   9  108.65    3.71
  -5   0  -9  106.74    3.60
  -5   0  -9  108.60    2.42
   5   0   9  117.78    3.99
  -5   0  -9  107.94    2.38
  -5   0 -10   75.20    3.09
  -5   0 -10   79.13    2.10
   5   0  10   82.82    3.44
  -5   0 -10   83.05    2.08
  -5   0 -11   40.15    2.25
  -5   0 -11   41.99    1.51
  -5   0 -11   42.49    1.47
  -5   0 -12   53.06    2.74
  -5   0 -12   54.70    1.88
  -5   0 -13   65.17    3.17
  -5   0 -14   61.70    3.22
  -5   0 -15   -0.80    0.67
  -5   0 -16    7.36    1.20
  -5  -1  15    6.38    0.97
   5   1 -15    5.55    1.12
   5   1 -15    6.67    1.20
  -5  -1  14    7.61    1.01
  -5  -1  14    9.56    1.37
   5   1 -14    9.37    1.30
   5   1 -14    6.85    1.19
  -5  -1  13    3.30    0.85
   5   1 -13    1.04    0.56
   5   1 -13    1.80    0.71
  -5  -1  12   13.60    1.43
   5   1 -12   13.71    1.50
   5   1 -12   13.01    1.44
  -5  -1  11    6.69    1.02
   5   1 -11    4.78    0.89
   5   1 -11    5.45    0.62
   5   1 -11    5.28    0.95
   5   1 -10   18.41    1.58
  -5  -1  10   17.60    1.52
   5   1 -10   18.93    1.54
   5   1 -10   18.29    1.02
  -5  -1   9   47.53    2.40
   5   1  -9   47.95    2.39
   5   1  -9   50.13    2.43
   5   1  -9   45.23    1.57
  -5  -1   8    2.66    0.64
   5   1  -8    3.86    0.42
   5   1  -8    3.23    0.69
  -5  -1   7   -0.41    0.39
   5   1  -7   -0.48    0.46
  -5  -1   7   -0.13    0.34
  -5  -1   6   -0.08    0.40
   5   1  -6    0.20    0.34
   5   1  -6    0.27    0.43
  -5  -1   6    0.40    0.30
  -5  -1   5   16.41    1.21
   5   1  -5   17.33    1.20
  -5  -1   5   16.45    1.15
   5   1  -5   17.54    1.20
  -5  -1   4    0.57    0.38
   5   1  -4    0.46    0.32
   5   1  -4    0.18    0.15
   5   1  -4    0.39    0.34
  -5  -1   4    0.29    0.31
   5   1  -3   59.39    2.00
  -5  -1   3   57.05    2.09
   5   1  -3   58.63    2.12
  -5  -1   3   56.97    2.03
   5   1  -3   55.63    1.44
  -5  -1   2    1.52    0.43
   5   1  -2    1.51    0.40
  -5  -1   2    1.07    0.33
   5   1  -2    1.43    0.26
   5   1  -2    1.77    0.35
   5   1  -1  233.67    5.15
  -5  -1   1  231.70    4.96
   5   1  -1  237.76    4.68
   5   1  -1  235.64    4.97
   5   1  -1  236.90    4.55
  -5  -1   1  232.59    4.81
   5   1   0   43.36    1.65
   5   1   0   42.45    1.68
   5   1   0   42.86    1.30
  -5  -1   0   43.61    1.54
   5   1   0   45.70    1.56
  -5  -1   0   42.86    1.45
   5   1   0   43.57    1.47
  -5  -1   0   43.87    1.45
   5   1   1    4.42    0.60
   5   1   1    2.91    0.53
  -5  -1  -1    1.97    0.47
  -5  -1  -1    1.99    0.37
   5   1   1    3.93    0.32
   5   1   1    3.67    0.45
  -5  -1  -1    2.09    0.33
  -5  -1  -1    1.89    0.38
   5   1   1    4.37    0.54
   5   1   2   65.73    2.17
  -5  -1  -2   66.08    2.14
  -5  -1  -2   66.56    2.16
   5   1   2   64.87    2.14
   5   1   2   67.03    1.32
   5   1   2   67.29    1.73
   5   1   2   66.95    2.15
  -5  -1  -2   64.31    2.11
  -5  -1  -2   64.85    1.65
   5   1   3   16.84    1.07
  -5  -1  -3   16.99    1.03
   5   1   3   15.46    0.98
  -5  -1  -3   16.53    0.99
   5   1   3   16.42    0.65
  -5  -1  -3   15.71    1.03
   5   1   3   17.25    1.09
   5   1   4   36.73    1.67
  -5  -1  -4   36.54    1.68
  -5  -1  -4   37.25    1.59
  -5  -1  -4   40.90    1.91
   5   1   4   37.49    1.61
  -5  -1  -4   39.12    1.52
   5   1   4   37.15    0.85
  -5  -1  -4   36.35    1.69
   5   1   4   38.45    1.75
  -5  -1  -5    3.86    0.48
  -5  -1  -5    3.84    0.54
  -5  -1  -5    5.47    0.76
   5   1   5    4.02    0.61
  -5  -1  -5    4.43    0.62
   5   1   5    4.93    0.70
  -5  -1  -5    4.07    0.61
  -5  -1  -6  359.93    7.88
  -5  -1  -6  344.45    7.16
  -5  -1  -6  340.31    6.57
   5   1   6  333.11    7.36
  -5  -1  -6  348.13    7.48
  -5  -1  -6  341.87    5.94
  -5  -1  -6  348.39    7.58
   5   1   6  339.04    7.53
  -5  -1  -7   60.87    1.84
  -5  -1  -7   55.36    2.22
   5   1   7   59.94    2.47
  -5  -1  -7   60.56    2.50
  -5  -1  -7   58.40    1.51
   5   1   7   56.44    2.51
  -5  -1  -8   34.81    1.25
   5   1   8   34.06    1.93
  -5  -1  -8   36.07    1.80
  -5  -1  -8   32.90    0.85
  -5  -1  -8   33.74    1.13
   5   1   8   33.75    1.98
   5   1   9  156.82    4.84
  -5  -1  -9  165.61    3.35
  -5  -1  -9  161.13    4.56
  -5  -1  -9  163.87    3.21
  -5  -1  -9  167.82    3.52
  -5  -1 -10   20.28    0.65
   5   1  10   18.32    1.52
  -5  -1 -10   21.66    1.50
  -5  -1 -10   20.82    0.89
  -5  -1 -10   21.42    1.01
  -5  -1 -11   32.33    1.97
  -5  -1 -11   34.86    1.31
  -5  -1 -11   36.77    1.43
  -5  -1 -12   69.97    3.07
  -5  -1 -13   47.34    2.60
  -5  -1 -14   46.37    2.70
  -5  -1 -15   23.44    1.96
  -5  -1 -16    0.15    0.49
  -5  -2  15   27.86    1.91
  -5  -2  14   31.09    2.01
   5   2 -14   38.77    2.65
  -5  -2  13   10.91    1.18
   5   2 -13   12.25    1.47
  -5  -2  12   13.02    1.28
   5   2 -12   13.31    1.48
  -5  -2  11   47.45    2.36
  -5  -2  11   49.99    2.66
   5   2 -11   47.35    2.62
   5   2 -11   46.61    1.62
  -5  -2  10   20.72    1.52
  -5  -2  10   20.95    1.68
   5   2 -10   20.33    1.63
   5   2 -10   20.02    0.92
  -5  -2   9   26.55    1.81
   5   2  -9   26.60    1.79
   5   2  -9   25.90    0.96
  -5  -2   8   25.37    1.69
   5   2  -8   23.43    1.62
   5   2  -8   22.59    0.78
  -5  -2   7    7.89    0.97
   5   2  -7    8.27    0.36
   5   2  -7    8.19    0.93
  -5  -2   6  141.23    4.18
   5   2  -6  142.36    4.09
   5   2  -6  148.66    4.25
  -5  -2   6  149.94    4.20
   5   2  -5   59.76    2.29
  -5  -2   5   56.11    2.34
   5   2  -5   60.91    2.40
  -5  -2   5   59.84    2.33
  -5  -2   4    6.30    0.78
  -5  -2   4    6.96    0.81
   5   2  -4    7.57    0.79
  -5  -2   4    6.53    0.71
   5   2  -4    6.82    0.73
  -5  -2   3  120.56    3.49
   5   2  -3  114.46    3.15
  -5  -2   3  120.93    3.39
   5   2  -3  121.09    3.39
   5   2  -3  117.70    2.24
  -5  -2   3  118.45    3.29
  -5  -2   2  134.15    3.71
  -5  -2   2  133.99    3.52
   5   2  -2  137.22    3.55
   5   2  -2  134.47    3.31
  -5  -2   2  133.91    3.45
   5   2  -2  133.68    2.69
  -5  -2   1  212.16    5.02
   5   2  -1  216.52    4.46
   5   2  -1  210.67    4.72
  -5  -2   1  212.38    4.65
   5   2  -1  215.37    4.15
   5   2   0  223.30    4.83
  -5  -2   0  229.52    5.15
   5   2   0  226.22    4.40
   5   2   0  215.48    4.69
  -5  -2   0  222.92    4.66
  -5  -2   0  206.38    4.39
   5   2   0  230.58    4.50
   5   2   1   29.29    1.44
   5   2   1   25.82    1.21
  -5  -2  -1   26.58    1.38
   5   2   1   25.86    0.93
   5   2   1   23.84    1.07
  -5  -2  -1   23.06    1.11
   5   2   1   23.90    1.13
   5   2   2  126.95    3.48
   5   2   2  126.62    3.18
  -5  -2  -2  126.52    3.40
   5   2   2  124.83    2.51
   5   2   2  126.63    2.85
  -5  -2  -2  124.93    3.23
   5   2   2  132.94    3.31
   5   2   3    0.26    0.33
  -5  -2  -3    2.32    0.46
  -5  -2  -3    0.95    0.41
   5   2   3    0.65    0.29
  -5  -2  -3    1.13    0.38
   5   2   3    0.80    0.20
   5   2   3    0.98    0.39
  -5  -2  -3    1.07    0.33
  -5  -2  -4   49.92    2.10
   5   2   4   48.28    2.06
  -5  -2  -4   49.27    1.79
  -5  -2  -4   54.98    2.28
  -5  -2  -4   49.29    1.87
   5   2   4   49.77    1.82
   5   2   4   48.61    1.22
  -5  -2  -4   49.99    2.03
   5   2   4   49.70    2.04
  -5  -2  -5    2.20    0.39
  -5  -2  -5    2.42    0.52
  -5  -2  -5    2.61    0.48
   5   2   5    1.07    0.46
  -5  -2  -5    2.15    0.50
   5   2   5    1.75    0.51
  -5  -2  -5    2.97    0.58
  -5  -2  -6   11.72    0.90
  -5  -2  -6   11.42    0.85
   5   2   6   12.33    1.11
  -5  -2  -6   11.81    1.06
  -5  -2  -6   11.69    1.05
  -5  -2  -7   33.60    1.62
   5   2   7   37.06    1.99
  -5  -2  -7   35.38    1.49
  -5  -2  -8    2.64    0.49
  -5  -2  -8    2.09    0.36
   5   2   8    2.77    0.70
  -5  -2  -8    2.45    0.37
  -5  -2  -8    2.68    0.24
  -5  -2  -8    2.82    0.25
   5   2   9    0.52    0.47
  -5  -2  -9    0.67    0.28
  -5  -2  -9    0.09    0.32
  -5  -2  -9    0.42    0.17
  -5  -2  -9    0.29    0.23
  -5  -2  -9    0.69    0.20
  -5  -2 -10   50.76    1.60
   5   2  10   47.57    2.59
  -5  -2 -10   47.48    2.25
  -5  -2 -10   49.80    1.49
  -5  -2 -10   52.94    1.82
   5   2  11    8.68    1.22
  -5  -2 -11    9.56    1.04
  -5  -2 -11    9.65    0.66
  -5  -2 -11    9.72    0.78
  -5  -2 -12   17.43    1.47
  -5  -2 -13   17.99    1.55
  -5  -2 -14    8.39    1.20
  -5  -2 -15    0.71    0.62
  -5  -3  15   32.04    2.09
  -5  -3  14    1.56    0.63
   5   3 -14   -0.03    0.68
  -5  -3  13   19.93    1.61
   5   3 -13   20.16    1.88
  -5  -3  12    2.88    0.72
   5   3 -12    1.86    0.70
  -5  -3  11    2.89    0.63
   5   3 -11    1.87    0.75
  -5  -3  10   15.40    1.34
   5   3 -10   15.82    1.50
   5   3 -10   16.93    0.62
  -5  -3   9    1.84    0.56
   5   3  -9    1.54    0.57
  -5  -3   8    2.21    0.62
   5   3  -8    1.54    0.51
  -5  -3   7   57.34    2.49
   5   3  -7   54.39    2.45
  -5  -3   6   63.66    2.60
   5   3  -6   62.03    2.54
  -5  -3   5  118.11    3.72
   5   3  -5  126.42    3.79
   5   3  -5  118.39    3.59
  -5  -3   5  126.62    3.77
  -5  -3   4   43.33    2.06
   5   3  -4   47.25    2.08
   5   3  -4   44.56    1.93
  -5  -3   4   49.99    2.10
  -5  -3   3    0.08    0.41
   5   3  -3    0.40    0.34
  -5  -3   3    0.35    0.28
   5   3  -3    0.36    0.34
  -5  -3   2  174.36    4.56
   5   3  -2  171.02    4.08
   5   3  -2  171.67    4.31
  -5  -3   2  175.26    4.30
  -5  -3   1   12.11    1.03
   5   3  -1   11.52    0.80
   5   3  -1    9.69    0.84
  -5  -3   1   11.29    0.87
  -5  -3   1    9.75    0.57
   5   3   0   98.11    2.72
  -5  -3   0  101.58    3.15
   5   3   0   97.85    2.77
   5   3   0  102.29    2.59
  -5  -3   0   98.57    2.46
   5   3   1    3.55    0.59
   5   3   1    3.58    0.46
  -5  -3  -1    3.58    0.62
   5   3   1    4.17    0.50
   5   3   1    4.17    0.42
  -5  -3  -1    4.21    0.47
  -5  -3  -1    4.11    0.43
   5   3   2    5.04    0.71
  -5  -3  -2    4.07    0.64
   5   3   2    3.66    0.47
   5   3   2    3.11    0.40
   5   3   2    3.97    0.38
  -5  -3  -2    2.84    0.46
  -5  -3  -2    2.93    0.33
   5   3   3    2.48    0.56
   5   3   3    2.25    0.37
  -5  -3  -3    1.81    0.47
  -5  -3  -3    2.19    0.46
   5   3   3    2.25    0.32
  -5  -3  -3    2.02    0.43
  -5  -3  -3    2.06    0.27
   5   3   4    1.51    0.54
  -5  -3  -4    0.73    0.43
  -5  -3  -4    0.47    0.21
  -5  -3  -4    1.28    0.41
   5   3   4    0.47    0.16
  -5  -3  -4    0.57    0.34
  -5  -3  -4    1.09    0.18
  -5  -3  -5   50.72    2.28
   5   3   5   48.24    2.23
  -5  -3  -5   47.99    2.26
  -5  -3  -5   45.30    1.70
  -5  -3  -5   45.56    1.92
  -5  -3  -5   45.80    1.16
   5   3   5   46.21    1.20
  -5  -3  -5   44.18    2.04
   5   3   6   14.73    1.26
  -5  -3  -6   14.93    0.97
  -5  -3  -6   14.33    1.04
  -5  -3  -6   14.51    0.57
  -5  -3  -7    0.35    0.27
  -5  -3  -7    0.06    0.30
   5   3   7    0.53    0.47
  -5  -3  -7    0.04    0.15
   5   3   8   27.60    1.85
  -5  -3  -8   29.68    1.46
  -5  -3  -8   29.01    1.49
  -5  -3  -8   26.46    0.94
  -5  -3  -9   -0.07    0.34
  -5  -3  -9    0.76    0.28
   5   3   9    0.52    0.56
  -5  -3  -9    0.14    0.16
  -5  -3  -9    0.28    0.25
   5   3  10  117.88    4.37
  -5  -3 -10  114.86    3.10
  -5  -3 -10  114.32    3.57
  -5  -3 -10  118.32    2.74
  -5  -3 -10  115.16    3.23
  -5  -3 -11   69.91    2.76
   5   3  11   62.41    3.20
  -5  -3 -11   71.12    2.43
  -5  -3 -12   28.57    1.78
   5   3  12   27.07    2.17
  -5  -3 -13   30.95    1.95
  -5  -4  14    0.69    0.52
   5   4 -14    0.73    0.70
  -5  -4  13    0.67    0.54
   5   4 -13    0.28    0.62
  -5  -4  12   88.16    3.58
   5   4 -12   90.77    4.02
  -5  -4  11   36.80    2.19
   5   4 -11   35.23    2.36
  -5  -4  10    0.85    0.56
   5   4 -10    1.17    0.61
  -5  -4   9   12.26    1.23
   5   4  -9   11.19    1.26
  -5  -4   8   38.46    2.13
   5   4  -8   41.62    2.26
  -5  -4   7    8.69    1.03
   5   4  -7   10.25    1.10
  -5  -4   6   45.07    2.23
   5   4  -6   45.28    2.21
  -5  -4   5   62.07    2.62
   5   4  -5   61.96    2.51
  -5  -4   4   41.30    2.10
   5   4  -4   39.79    1.91
   5   4  -4   45.55    2.12
  -5  -4   4   47.62    2.13
  -5  -4   3   19.05    1.38
   5   4  -3   17.20    1.18
   5   4  -3   16.87    1.24
  -5  -4   3   18.50    1.26
  -5  -4   2    0.54    0.40
   5   4  -2    1.46    0.45
  -5  -4   2    0.66    0.32
   5   4  -2    0.14    0.31
  -5  -4   2    0.63    0.14
  -5  -4   1   29.34    1.68
  -5  -4   1   27.97    1.35
   5   4  -1   29.57    1.51
   5   4  -1   29.73    1.41
  -5  -4   1   28.48    1.04
   5   4   0  212.29    5.38
   5   4   0  213.39    4.67
  -5  -4   0  226.46    5.49
   5   4   0  225.68    4.79
   5   4   0  213.53    4.96
  -5  -4   0  219.11    4.75
  -5  -4   0  215.36    4.45
   5   4   1   73.57    2.76
   5   4   1   72.58    2.13
  -5  -4  -1   73.65    2.73
   5   4   1   76.12    2.21
  -5  -4  -1   73.32    2.16
   5   4   1   71.63    2.32
  -5  -4  -1   71.26    2.19
   5   4   2    1.66    0.50
   5   4   2    1.48    0.31
  -5  -4  -2    2.35    0.52
  -5  -4  -2    2.07    0.48
   5   4   2    2.03    0.39
   5   4   2    1.86    0.33
  -5  -4  -2    1.26    0.36
  -5  -4  -2    1.61    0.32
   5   4   3    4.30    0.77
   5   4   3    4.89    0.49
  -5  -4  -3    4.60    0.67
  -5  -4  -3    4.65    0.66
   5   4   3    4.14    0.47
  -5  -4  -3    3.69    0.57
  -5  -4  -3    4.75    0.46
   5   4   4   72.62    2.85
  -5  -4  -4   77.18    2.88
  -5  -4  -4   72.73    2.67
  -5  -4  -4   69.92    1.91
   5   4   4   72.66    2.03
  -5  -4  -4   68.75    2.57
   5   4   5  106.09    3.65
   5   4   5  110.96    3.37
  -5  -4  -5  111.89    3.46
  -5  -4  -5  106.55    2.52
   5   4   5  111.18    2.56
  -5  -4  -5  111.55    3.54
   5   4   6    8.82    1.05
   5   4   6    8.23    0.49
   5   4   6    8.43    0.50
  -5  -4  -6    7.44    0.53
   5   4   6    7.90    0.83
  -5  -4  -6    8.99    0.68
  -5  -4  -6    8.10    0.87
   5   4   7    9.26    1.13
  -5  -4  -7   11.15    1.01
  -5  -4  -7    9.35    0.60
   5   4   7    9.03    0.40
   5   4   7    9.43    0.41
  -5  -4  -7    9.81    0.77
   5   4   8  149.71    4.88
  -5  -4  -8  156.70    4.24
  -5  -4  -8  148.06    3.31
  -5  -4  -8  163.44    3.90
  -5  -4  -9    0.94    0.38
   5   4   9    0.31    0.56
  -5  -4  -9    0.21    0.41
  -5  -4 -10   -0.02    0.36
   5   4  10   -0.16    0.57
  -5  -4 -10    0.08    0.30
  -5  -4 -10    0.08    0.25
  -5  -4 -11    4.84    0.69
   5   4  11    5.58    1.05
  -5  -4 -11    4.33    0.67
   5   4  12   47.05    2.91
   5   4  13    1.88    0.72
  -5  -5  14    5.56    1.00
  -5  -5  13   81.84    3.60
   5   5 -13   89.15    4.19
  -5  -5  12    4.89    0.94
   5   5 -12    5.95    1.13
  -5  -5  11   75.04    3.33
   5   5 -11   76.24    3.62
  -5  -5  10  165.74    5.22
   5   5 -10  170.98    5.56
  -5  -5   9    6.19    1.02
   5   5  -9    6.10    1.02
  -5  -5   8   51.69    2.60
   5   5  -8   57.68    2.79
  -5  -5   7  301.22    7.41
   5   5  -7  299.75    7.39
  -5  -5   6  190.37    5.36
   5   5  -6  181.18    5.16
  -5  -5   5  162.51    4.83
   5   5  -5  158.68    4.60
  -5  -5   4  186.08    5.25
   5   5  -4  187.77    4.97
  -5  -5   3  206.38    5.58
   5   5  -3  210.23    5.39
  -5  -5   3  211.27    5.24
   5   5  -3  203.53    5.17
  -5  -5   2  103.16    3.56
  -5  -5   2  103.66    3.18
   5   5  -2  100.54    3.30
   5   5  -2   97.79    3.11
  -5  -5   2   96.47    2.09
  -5  -5   1  148.46    4.39
   5   5  -1  140.36    3.96
   5   5  -1  139.21    3.77
  -5  -5   1  141.38    3.79
  -5  -5   1  138.85    3.06
   5   5   0  153.48    4.53
   5   5   0  152.38    3.62
  -5  -5   0  169.50    4.72
  -5  -5   0  155.82    3.94
   5   5   0  158.40    3.98
   5   5   0  154.16    4.13
  -5  -5   0  154.42    3.54
   5   5   1  193.06    5.20
   5   5   1  189.70    4.08
  -5  -5  -1  190.82    4.78
  -5  -5  -1  198.20    5.23
  -5  -5  -1  188.64    4.41
   5   5   1  191.86    4.46
   5   5   1  187.28    4.61
  -5  -5  -1  190.85    4.34
   5   5   2  175.13    5.02
  -5  -5  -2  188.10    4.78
   5   5   2  179.80    3.82
  -5  -5  -2  189.48    5.09
   5   5   2  186.64    4.24
   5   5   2  174.57    4.32
  -5  -5  -2  186.56    4.22
  -5  -5  -2  176.26    4.36
   5   5   3   48.47    2.36
   5   5   3   47.74    2.22
  -5  -5  -3   52.18    2.26
  -5  -5  -3   51.00    2.33
   5   5   3   48.18    1.50
  -5  -5  -3   47.89    1.73
   5   5   3   46.46    1.80
  -5  -5  -3   49.70    2.06
   5   5   4   10.76    1.13
   5   5   4    9.75    1.01
  -5  -5  -4   11.18    1.12
  -5  -5  -4   11.70    1.10
  -5  -5  -4    9.29    0.71
   5   5   4    9.35    0.73
  -5  -5  -4    9.51    0.92
  -5  -5  -5   63.67    2.65
   5   5   5   60.98    2.79
  -5  -5  -5   61.67    1.95
   5   5   5   61.96    1.96
   5   5   5   63.07    2.57
   5   5   6  290.34    7.35
  -5  -5  -6  300.20    6.96
   5   5   6  296.11    5.67
  -5  -5  -6  284.57    5.75
   5   5   6  286.23    6.74
  -5  -5  -7   32.72    1.83
   5   5   7   30.77    2.07
   5   5   7   33.99    1.19
   5   5   7   32.90    1.18
  -5  -5  -7   33.06    1.35
   5   5   7   32.85    1.79
   5   5   8   11.36    1.31
  -5  -5  -8   12.88    1.15
   5   5   8   12.55    0.59
   5   5   8   10.91    1.04
  -5  -5  -8   10.39    0.75
  -5  -5  -9  174.31    4.08
  -5  -5  -9  179.57    4.86
   5   5   9  170.98    5.62
   5   5  10   78.12    3.67
  -5  -5 -10   80.91    2.92
   5   5  11    3.36    0.96
  -5  -5 -11    0.98    0.34
   5   5  12  162.43    5.91
  -5  -6  14    7.41    1.20
  -5  -6  13    8.22    1.20
  -5  -6  12    1.87    0.71
   5   6 -12    2.79    1.00
  -5  -6  11    6.73    1.05
   5   6 -11    7.29    1.21
  -5  -6  10   16.63    1.58
   5   6 -10   19.16    1.80
  -5  -6   9   42.24    2.47
   5   6  -9   42.40    2.57
  -5  -6   8    2.39    0.71
   5   6  -8    2.18    0.75
  -5  -6   7   15.33    1.46
   5   6  -7   16.09    1.50
  -5  -6   6   47.08    2.51
   5   6  -6   44.81    2.39
  -5  -6   5   52.50    2.63
   5   6  -5   49.97    2.45
  -5  -6   4    4.42    0.84
   5   6  -4    4.99    0.78
  -5  -6   3    3.13    0.72
   5   6  -3    2.97    0.62
  -5  -6   2  119.03    4.09
   5   6  -2  117.41    3.64
  -5  -6   2  119.83    3.67
  -5  -6   2  115.76    2.50
  -5  -6   1   15.90    1.44
  -5  -6   1   14.25    1.14
   5   6  -1   16.29    1.24
   5   6  -1   14.78    1.20
  -5  -6   1   15.04    0.83
   5   6   0   44.96    2.34
  -5  -6   0   45.03    2.36
   5   6   0   45.34    1.60
  -5  -6   0   46.24    1.97
  -5  -6   0   45.74    1.99
   5   6   0   45.99    2.02
   5   6   0   49.26    2.16
  -5  -6   0   44.98    1.67
   5   6   1  224.90    6.05
  -5  -6  -1  226.31    5.46
   5   6   1  232.37    4.59
  -5  -6  -1  234.80    6.17
   5   6   1  227.61    5.34
   5   6   1  228.32    5.51
  -5  -6  -1  224.92    5.30
  -5  -6  -1  223.30    5.07
   5   6   2   83.66    3.32
  -5  -6  -2   78.67    2.85
  -5  -6  -2   86.58    3.33
   5   6   2   83.15    2.02
   5   6   2   76.18    2.70
  -5  -6  -2   78.84    2.60
   5   6   2   78.94    2.61
  -5  -6  -2   78.07    2.65
   5   6   3   46.14    2.41
  -5  -6  -3   46.08    2.37
  -5  -6  -3   45.38    2.16
  -5  -6  -3   44.68    1.83
  -5  -6  -3   45.22    2.03
  -5  -6  -4   37.77    2.12
   5   6   4   36.44    2.18
  -5  -6  -4   34.83    1.56
  -5  -6  -4   36.98    1.92
   5   6   5   93.47    3.71
  -5  -6  -5  100.10    3.62
  -5  -6  -5   89.79    2.72
  -5  -6  -6   71.71    2.98
   5   6   6   66.11    3.12
  -5  -6  -6   64.17    2.20
   5   6   7  137.26    4.82
  -5  -6  -7  137.96    4.40
   5   6   7  136.20    3.32
  -5  -6  -8   85.75    3.30
   5   6   8   78.92    3.63
   5   6   9    5.48    1.12
  -5  -6  -9    4.71    0.80
   5   6  10   43.09    2.78
  -5  -6 -10   43.83    2.25
   5   6  11  128.56    5.17
  -5  -6 -11  127.32    4.14
  -5  -7  13   77.54    3.72
  -5  -7  12    0.91    0.73
  -5  -7  11   68.38    3.44
   5   7 -11   75.30    3.79
  -5  -7  10    7.86    1.16
   5   7 -10    6.68    1.16
  -5  -7   9   90.79    3.89
   5   7  -9   86.56    3.90
  -5  -7   8    6.67    1.09
   5   7  -8    7.52    1.17
  -5  -7   7   32.20    2.20
   5   7  -7   34.61    2.24
  -5  -7   6  125.40    4.54
   5   7  -6  125.39    4.41
  -5  -7   5   39.51    2.40
   5   7  -5   34.31    2.12
  -5  -7   4   44.69    2.54
   5   7  -4   39.32    2.20
  -5  -7   3  123.17    4.40
   5   7  -3  123.56    4.02
  -5  -7   3  119.38    2.25
  -5  -7   2  201.68    5.86
  -5  -7   2  190.33    4.59
   5   7  -2  193.59    5.29
  -5  -7   2  193.66    3.89
  -5  -7   1   24.13    1.37
  -5  -7   1   24.06    1.82
   5   7  -1   25.24    1.63
  -5  -7   1   25.42    1.15
   5   7   0  171.29    5.22
  -5  -7   0  166.36    4.31
   5   7   0  160.00    3.62
  -5  -7   0  168.78    5.25
   5   7   0  168.60    4.62
  -5  -7   0  164.65    4.56
  -5  -7   0  165.06    3.97
   5   7   1   35.53    2.17
  -5  -7  -1   34.94    1.77
   5   7   1   34.08    1.15
  -5  -7  -1   34.88    2.16
   5   7   1   34.46    1.79
  -5  -7  -1   31.99    1.72
  -5  -7  -1   32.93    1.59
   5   7   2   97.91    3.81
  -5  -7  -2   98.86    3.80
  -5  -7  -2   97.22    3.26
  -5  -7  -2   89.55    3.05
  -5  -7  -2   92.20    3.05
  -5  -7  -3   57.99    2.85
   5   7   3   56.81    2.85
  -5  -7  -3   61.44    2.58
  -5  -7  -3   52.95    2.20
  -5  -7  -3   57.02    2.39
  -5  -7  -4   29.10    1.99
   5   7   4   30.95    2.11
  -5  -7  -4   26.44    1.49
  -5  -7  -5   38.17    2.29
   5   7   5   33.12    2.22
  -5  -7  -5   33.20    1.65
   5   7   6   11.28    1.38
  -5  -7  -6   14.01    1.38
   5   7   7    0.19    0.59
   5   7   7   -0.01    0.24
  -5  -7  -7    0.07    0.48
   5   7   8    3.20    0.81
  -5  -7  -8    2.68    0.72
   5   7   9   -0.14    0.67
  -5  -7  -9    0.41    0.53
  -5  -7 -10    7.31    1.07
   5   7  10    6.46    1.20
  -5  -8  13   38.84    2.72
  -5  -8  12   23.62    2.09
  -5  -8  11  132.43    5.13
   5   8 -10   22.81    2.11
  -5  -8  10   21.85    1.97
   5   8  -9   49.93    3.01
  -5  -8   9   51.17    2.97
   5   8  -8   80.09    3.77
  -5  -8   8   80.47    3.77
   5   8  -7   91.81    3.93
  -5  -8   7   84.68    3.87
   5   8  -6   40.59    2.49
  -5  -8   6   43.33    2.67
   5   8  -5  108.53    4.14
  -5  -8   5  112.73    4.42
   5   8  -4  108.98    4.07
  -5  -8   4  119.74    4.51
   5   8  -3   32.60    2.06
  -5  -8   3   36.81    2.39
   5   8  -2   88.06    3.46
  -5  -8   2   96.99    4.04
   5   8  -1  188.81    5.86
  -5  -8   1  172.88    4.39
  -5  -8   1  188.06    5.87
   5   8  -1  176.22    5.13
   5   8   0   45.93    2.79
  -5  -8   0   45.52    2.66
  -5  -8   0   42.48    1.91
   5   8   0   42.31    2.20
  -5  -8   0   41.84    1.77
  -5  -8  -1   19.59    1.78
   5   8   1   20.05    2.04
  -5  -8  -1   18.54    1.30
   5   8   1   21.51    1.54
  -5  -8  -1   18.91    1.24
  -5  -8  -2  170.15    4.66
  -5  -8  -2  171.32    5.53
   5   8   2  166.90    5.43
  -5  -8  -2  151.52    4.37
   5   8   3  139.53    4.91
  -5  -8  -3  133.69    4.84
  -5  -8  -4   43.94    2.61
   5   8   4   41.37    2.59
  -5  -8  -5   13.29    1.45
   5   8   5   15.93    1.67
  -5  -8  -6  167.44    5.47
   5   8   6  158.28    5.59
  -5  -8  -7   29.62    2.13
   5   8   7   29.83    2.30
  -5  -8  -8   19.57    1.76
   5   8   8   21.13    1.98
   5   8   9   39.29    2.78
  -5  -8  -9   46.63    2.67
  -5  -8 -10   42.95    2.56
  -5  -9  11    8.13    1.33
  -5  -9  10    2.88    0.91
  -5  -9   9    6.60    1.14
   5   9  -9    8.59    1.35
  -5  -9   8    4.12    1.10
   5   9  -8    4.86    1.14
  -5  -9   7   61.30    3.38
   5   9  -7   61.29    3.32
  -5  -9   6    1.00    0.59
   5   9  -6    1.47    0.71
   5   9  -5   24.06    2.00
  -5  -9   5   22.59    2.02
   5   9  -4   27.50    2.07
  -5  -9   4   30.96    2.34
   5   9  -3   85.89    3.65
  -5  -9   3   86.34    3.98
  -5  -9   2   28.30    2.23
   5   9  -2   22.14    1.75
  -5  -9   1    8.26    1.27
   5   9  -1    6.44    1.18
   5   9  -1    8.53    1.12
  -5  -9   0   53.70    3.07
   5   9   0   51.01    2.93
   5   9   0   54.63    2.65
  -5  -9  -1   32.63    2.36
   5   9   1   27.58    2.16
  -5  -9  -2   16.60    1.73
   5   9   2   13.40    1.57
  -5  -9  -3   28.04    2.20
   5   9   3   26.75    2.15
  -5  -9  -4   20.06    1.82
   5   9   4   19.14    1.86
  -5  -9  -5    5.12    1.30
   5   9   5    6.11    1.16
  -5  -9  -6    1.24    0.60
   5   9   6    0.68    0.79
   5   9   7   13.41    1.62
  -5  -9  -7   13.05    1.55
  -5  -9  -8    3.72    0.90
  -5  -9  -9    5.82    1.08
  -5 -10   7   10.05    1.45
   5  10  -7    9.95    1.43
  -5 -10   6   -0.45    0.61
   5  10  -6   -0.13    0.68
  -5 -10   5   -1.13    0.80
   5  10  -5    0.95    0.79
  -5 -10   4    1.54    0.73
   5  10  -4    2.44    0.78
  -5 -10   3    6.81    1.22
   5  10  -3    7.88    1.22
  -5 -10   2   16.63    1.77
   5  10  -2   17.82    1.83
   5  10  -2   14.30    1.51
   5  10  -1   -0.14    0.54
   5  10  -1    0.42    0.54
  -5 -10   1   -0.03    0.59
   5  10   0    6.59    1.14
   5  10   0    5.89    1.00
  -5 -10   0    4.34    0.98
  -5 -10  -1    2.89    0.96
   5  10   1    3.99    0.93
  -5 -10  -2   33.53    2.53
   5  10   2   34.00    2.51
  -5 -10  -3    3.90    1.02
   5  10   3    2.57    0.77
  -5 -10  -4    0.85    0.61
   5  10   4   -0.42    0.72
  -5 -10  -5    7.00    1.23
  -5 -10  -6   -0.30    0.62
  -5 -10  -7    4.62    1.04
  -5 -10  -8   12.29    1.56
  -5 -10  -9   13.02    1.63
   5  11  -5    0.10    0.55
   5  11  -4    1.63    0.60
   5  11  -3    0.27    0.58
   5  11  -2    6.67    1.15
   5  11  -1    2.84    0.85
   6 -13   1   24.17    2.16
   6 -13   2   46.07    2.98
  -6  13  -2   57.65    2.99
   6 -13   3    0.34    0.50
  -6  13  -3    0.30    0.56
   6 -13   4   14.88    1.64
  -6  13  -4   15.02    1.65
   6 -13   5   44.81    2.82
  -6  13  -5   43.41    2.81
   6 -13   6   24.97    2.11
  -6  13  -6   27.83    2.30
   6 -12  -4   27.12    2.27
  -6  12   4   25.71    2.20
   6 -12  -3   10.63    1.47
  -6  12   3    9.24    1.39
   6 -12  -2    6.94    1.23
  -6  12   2    4.17    0.95
   6 -12  -1    0.80    0.66
  -6  12   1    0.18    0.70
   6 -12   0   -0.18    0.53
  -6  12   0    0.75    0.59
   6 -12   1   24.02    2.06
  -6  12  -1   23.76    2.09
  -6  12  -1   25.56    1.92
   6 -12   2    4.67    0.98
  -6  12  -2    3.67    0.96
  -6  12  -2    5.53    0.97
  -6  12  -3    2.07    0.72
   6 -12   3    2.09    0.72
  -6  12  -4   10.03    1.36
   6 -12   4   13.99    1.62
   6 -12   4    9.59    1.31
  -6  12  -5   14.92    1.67
   6 -12   5   11.67    1.40
   6 -12   5   12.03    1.53
  -6  12  -6   -0.38    0.52
   6 -12   6   -0.70    0.59
   6 -12   6    1.14    0.71
  -6  12  -7   16.34    1.76
   6 -11  -7   19.37    1.93
  -6  11   7   17.15    1.84
   6 -11  -6   19.80    1.92
  -6  11   6   20.70    1.94
   6 -11  -5   10.03    1.40
  -6  11   5   10.86    1.39
   6 -11  -4   21.54    1.98
  -6  11   4   19.06    1.83
   6 -11  -3   41.13    2.69
  -6  11   3   39.80    2.65
   6 -11  -2   29.48    2.23
  -6  11   2   27.14    2.16
   6 -11  -1    6.67    1.17
  -6  11   1    6.07    1.11
   6 -11   0   24.71    2.00
  -6  11   0   24.94    2.04
   6 -11   1   36.90    2.40
  -6  11  -1   35.64    2.43
  -6  11  -1   37.19    2.25
   6 -11   2   35.28    2.34
  -6  11  -2   35.65    2.43
  -6  11  -2   36.32    2.27
  -6  11  -3   51.17    2.75
   6 -11   3   52.45    2.83
  -6  11  -4   30.64    2.22
   6 -11   4   37.18    2.33
   6 -11   4   35.44    2.42
  -6  11  -5   44.62    2.68
   6 -11   5   41.83    2.47
   6 -11   5   43.15    2.72
  -6  11  -6   85.26    3.92
   6 -11   6   88.75    3.65
   6 -11   6   90.33    4.05
  -6  11  -7   24.19    2.12
   6 -11   7   26.99    1.89
   6 -11   7   28.81    2.27
  -6  11  -8    9.40    1.42
   6 -11   8    9.64    1.35
   6 -11   9   75.03    3.84
  -6  11 -10   44.86    2.91
   6 -10  -9   29.92    2.36
  -6  10   9   33.57    2.47
   6 -10  -9   30.92    2.44
   6 -10  -8   13.57    1.60
  -6  10   8   13.02    1.59
   6 -10  -7    4.51    1.03
  -6  10   7    5.02    1.03
   6 -10  -6   18.52    1.78
  -6  10   6   18.27    1.78
   6 -10  -5  111.18    4.50
  -6  10   5  117.97    4.61
   6 -10  -4    6.33    1.06
  -6  10   4    5.30    1.02
   6 -10  -3   12.51    1.46
  -6  10   3   16.68    1.63
   6 -10  -2   42.57    2.58
  -6  10   2   44.04    2.63
   6 -10  -1   64.99    3.16
  -6  10   1   64.73    3.19
   6 -10   0    2.16    0.68
  -6  10   0    1.62    0.62
  -6  10   0    1.50    0.56
   6 -10   1   55.67    2.85
  -6  10  -1   55.21    2.92
  -6  10  -1   56.88    2.73
   6 -10   2   83.64    3.51
  -6  10  -2   84.11    3.63
  -6  10  -2   86.75    3.51
  -6  10  -3   21.48    1.73
   6 -10   3   22.07    1.72
  -6  10  -4   30.87    2.12
   6 -10   4   30.65    2.02
   6 -10   4   34.04    2.28
  -6  10  -5   46.59    2.68
   6 -10   5   47.58    2.48
   6 -10   5   42.47    2.62
  -6  10  -6   33.19    2.32
   6 -10   6   30.24    1.95
   6 -10   6   30.48    2.21
  -6  10  -7   36.14    2.50
   6 -10   7   34.39    2.01
   6 -10   7   35.37    2.42
  -6  10  -8   33.15    2.44
   6 -10   8   30.17    2.28
  -6  10  -9    8.19    1.37
  -6  10  -9    6.84    1.15
   6 -10   9    6.02    1.11
  -6  10 -10   28.29    2.20
   6 -10  10   28.20    2.28
  -6  10 -11   36.73    2.51
   6  -9 -11    1.98    0.82
  -6   9  11    0.65    0.62
   6  -9 -10    0.84    0.54
  -6   9  10    0.77    0.75
   6  -9 -10    0.95    0.67
   6  -9  -9    4.45    1.01
  -6   9   9    1.87    0.76
   6  -9  -9    3.85    0.96
   6  -9  -8    8.28    1.23
  -6   9   8   10.34    1.37
   6  -9  -8    7.75    1.20
   6  -9  -7    2.73    0.85
  -6   9   7    2.71    0.83
   6  -9  -6    1.28    0.65
  -6   9   6    1.57    0.74
   6  -9  -5   -0.42    0.48
  -6   9   5    0.09    0.61
   6  -9  -4    2.16    0.78
  -6   9   4    2.51    1.21
   6  -9  -3   24.43    1.86
  -6   9   3   25.62    1.91
   6  -9  -2   77.53    3.36
  -6   9   2   74.05    3.29
   6  -9  -1    1.84    0.71
  -6   9   1    2.04    0.72
  -6   9   0   75.52    1.53
   6  -9   0   80.07    3.32
  -6   9   0   85.11    3.44
  -6   9   0   83.26    3.22
   6  -9   1   31.66    2.02
  -6   9  -1   32.98    0.93
  -6   9  -1   34.65    2.13
  -6   9  -1   31.78    1.97
   6  -9   2   48.83    2.48
  -6   9  -2   49.92    1.40
  -6   9  -2   45.84    2.49
  -6   9  -2   48.70    2.48
  -6   9  -3   32.85    2.07
   6  -9   3   32.16    1.96
  -6   9  -4   64.83    3.05
  -6   9  -4   66.32    2.44
   6  -9   4   62.59    2.77
   6  -9   4   66.25    3.12
  -6   9  -5    2.40    0.66
   6  -9   5    4.51    0.78
   6  -9   5    4.26    0.90
  -6   9  -6    0.45    0.62
   6  -9   6    1.22    0.49
   6  -9   6    0.63    0.57
  -6   9  -7   52.67    2.96
   6  -9   7   59.76    2.53
   6  -9   7   54.12    2.93
   6  -9   8   16.24    1.24
  -6   9  -8   13.26    1.56
  -6   9  -8   14.59    1.45
   6  -9   8   12.68    1.41
  -6   9  -9    3.56    0.97
  -6   9  -9    6.32    1.08
   6  -9   9    5.32    1.06
  -6   9 -10   11.76    1.56
  -6   9 -10    8.62    1.18
   6  -9  10   13.70    1.58
  -6   9 -11    4.00    0.86
   6  -9  11    4.81    1.01
  -6   9 -12   12.29    1.45
  -6   8  12   11.01    1.45
  -6   8  11   23.50    2.08
   6  -8 -11   27.12    2.23
   6  -8 -10   10.36    1.34
  -6   8  10   13.10    1.54
   6  -8 -10   15.10    1.65
   6  -8  -9    0.96    0.61
  -6   8   9    1.06    0.69
   6  -8  -9    1.49    0.77
   6  -8  -8   74.18    3.45
  -6   8   8   76.47    3.53
   6  -8  -8   70.98    3.44
   6  -8  -7   77.30    3.46
  -6   8   7   76.63    3.45
   6  -8  -7   74.67    3.39
   6  -8  -6    6.99    1.08
  -6   8   6    6.26    1.02
   6  -8  -5    6.08    1.01
  -6   8   5    4.83    0.88
   6  -8  -4   35.79    2.18
  -6   8   4   30.36    2.04
   6  -8  -3  135.09    4.53
  -6   8   3  143.16    4.61
   6  -8  -2   34.81    2.09
  -6   8   2   30.56    1.98
   6  -8  -1   63.90    2.88
  -6   8   1   70.65    3.01
   6  -8   0   18.55    1.49
  -6   8   0   16.69    1.42
  -6   8   0   19.96    1.50
   6  -8   1  100.68    3.59
  -6   8  -1  100.80    3.66
  -6   8  -1  103.68    3.65
  -6   8  -2   58.17    1.38
   6  -8   2   54.61    2.52
  -6   8  -2   61.03    1.40
  -6   8  -2   56.56    2.62
  -6   8  -2   60.35    2.72
  -6   8  -3    6.76    0.96
   6  -8   3    6.20    0.86
   6  -8   3    6.10    0.94
  -6   8  -3    6.22    0.47
  -6   8  -4    3.89    0.79
  -6   8  -4    5.36    0.51
   6  -8   4    4.90    0.72
   6  -8   4    4.86    0.89
  -6   8  -5    4.33    0.85
  -6   8  -5    4.95    0.71
  -6   8  -5    4.56    0.76
   6  -8   5    4.83    0.74
  -6   8  -5    5.15    0.57
   6  -8   5    3.87    0.82
  -6   8  -6    1.08    0.69
  -6   8  -6   -0.16    0.32
  -6   8  -6    0.10    0.38
   6  -8   6   -0.01    0.31
  -6   8  -6    0.26    0.29
   6  -8   6   -0.14    0.51
  -6   8  -7    1.43    0.63
  -6   8  -7    1.36    0.47
  -6   8  -7    3.72    0.70
   6  -8   7    2.27    0.49
   6  -8   7    3.29    0.86
   6  -8   8   20.33    1.28
  -6   8  -8   20.55    1.87
  -6   8  -8   19.21    1.54
   6  -8   8   18.80    1.68
  -6   8  -9    0.77    0.53
  -6   8  -9    1.00    0.60
   6  -8   9    1.07    0.69
  -6   8 -10    4.48    0.98
  -6   8 -10    2.84    0.75
   6  -8  10    3.47    0.95
  -6   8 -11    1.00    0.72
  -6   8 -11    1.77    0.63
   6  -8  11    2.42    0.87
   6  -8  12    2.94    0.87
  -6   8 -12    3.01    0.82
  -6   7  13    5.99    1.12
  -6   7  12   10.85    1.41
   6  -7 -12   11.59    1.52
  -6   7  11   29.56    2.25
   6  -7 -11   27.04    2.21
  -6   7  10    4.43    0.89
   6  -7 -10    4.06    0.94
  -6   7   9   13.80    1.47
   6  -7  -9   15.54    1.57
   6  -7  -8   18.19    1.62
   6  -7  -8   20.37    1.24
  -6   7   8   21.47    1.76
   6  -7  -8   22.23    1.79
   6  -7  -7   48.46    2.64
   6  -7  -7   52.45    1.92
  -6   7   7   54.89    2.76
   6  -7  -7   52.60    2.70
   6  -7  -6   63.04    2.93
   6  -7  -6   57.94    1.88
  -6   7   6   63.83    2.93
   6  -7  -6   60.55    2.81
   6  -7  -5    0.89    0.53
  -6   7   5    0.48    0.46
   6  -7  -4    9.08    1.09
  -6   7   4    9.82    1.12
   6  -7  -3  119.12    4.04
  -6   7   3  121.46    4.04
   6  -7  -2   65.48    2.83
  -6   7   2   71.00    2.89
   6  -7  -1    3.97    0.72
  -6   7   1    5.14    0.80
   6  -7   0   82.63    3.07
  -6   7   0   81.58    3.07
  -6   7   0   77.38    3.00
   6  -7   1   37.65    1.96
  -6   7  -1   35.66    1.92
   6  -7   1   33.28    1.85
  -6   7  -1   36.31    1.99
   6  -7   2   61.74    2.54
  -6   7  -2   62.62    2.60
  -6   7  -2   61.04    2.70
  -6   7  -2   65.75    2.66
   6  -7   2   66.53    2.63
   6  -7   3  262.06    6.26
  -6   7  -3  267.87    4.88
  -6   7  -3  281.33    6.47
  -6   7  -3  269.17    6.75
  -6   7  -3  264.96    6.43
   6  -7   3  259.34    6.31
   6  -7   3  271.86    6.80
  -6   7  -4    0.10    0.55
  -6   7  -4    0.06    0.19
  -6   7  -4   -0.12    0.36
   6  -7   4    0.37    0.33
   6  -7   4    0.54    0.51
   6  -7   4    0.41    0.38
  -6   7  -5   60.94    2.42
   6  -7   5   63.03    2.39
  -6   7  -5   57.74    1.91
  -6   7  -5   59.32    2.82
  -6   7  -5   58.26    2.38
   6  -7   5   57.33    2.43
   6  -7   5   59.24    2.77
  -6   7  -6   20.07    1.33
   6  -7   6   21.38    1.32
  -6   7  -6   19.87    1.16
  -6   7  -6   20.84    1.41
  -6   7  -6   21.16    1.71
   6  -7   6   19.09    1.41
   6  -7   6   20.97    1.64
  -6   7  -7    1.11    0.47
   6  -7   7    0.99    0.38
  -6   7  -7    1.41    0.66
  -6   7  -7    1.17    0.44
  -6   7  -7    0.81    0.44
  -6   7  -7    0.65    0.41
   6  -7   7    0.68    0.55
  -6   7  -8   22.71    1.44
  -6   7  -8   21.96    1.86
  -6   7  -8   22.86    1.57
   6  -7   8   23.83    1.88
  -6   7  -9   11.17    1.42
  -6   7  -9   13.20    1.23
   6  -7   9   12.04    1.39
  -6   7 -10    4.27    1.02
  -6   7 -10    4.89    0.84
   6  -7  10    2.65    0.78
  -6   7 -11    8.64    1.34
   6  -7  11    9.33    1.31
  -6   7 -11   11.03    1.16
  -6   7 -12    9.10    1.40
  -6   7 -12    7.93    1.06
   6  -7  12   11.07    1.44
  -6   6  14   94.01    4.32
  -6   6  13    0.71    0.57
   6  -6 -13    0.21    0.57
  -6   6  12    6.60    1.13
   6  -6 -12    9.56    1.33
  -6   6  11   31.51    2.25
   6  -6 -11   30.45    2.26
  -6   6  10   39.31    2.46
   6  -6 -10   41.26    2.53
   6  -6  -9   49.44    2.11
  -6   6   9   44.07    2.54
   6  -6  -9   49.24    2.68
   6  -6  -8    7.24    0.74
  -6   6   8    5.54    1.01
   6  -6  -8    7.97    1.07
   6  -6  -7  123.28    3.22
  -6   6   7  125.44    4.26
   6  -6  -7  118.75    4.16
   6  -6  -6   29.75    1.93
   6  -6  -6   32.68    1.31
  -6   6   6   30.79    1.95
   6  -6  -6   33.35    1.98
   6  -6  -5   20.33    1.54
   6  -6  -5   21.77    0.92
  -6   6   5   23.03    1.63
   6  -6  -5   21.55    1.53
   6  -6  -4   41.40    2.18
  -6   6   4   43.49    2.21
   6  -6  -3   22.43    1.57
  -6   6   3   26.66    1.70
   6  -6  -3   29.02    1.68
   6  -6  -2   66.94    2.72
  -6   6   2   66.35    2.68
   6  -6  -2   68.88    2.71
  -6   6   1  124.59    3.88
   6  -6  -1  112.11    3.67
  -6   6   1  117.72    3.70
   6  -6  -1  114.79    3.62
   6  -6  -1  120.81    3.77
  -6   6   0   11.33    1.07
   6  -6   0   14.25    1.16
   6  -6   0   13.21    1.08
  -6   6   0   13.04    1.12
   6  -6   0   11.05    1.06
  -6   6   0   10.61    1.05
  -6   6  -1   12.90    1.13
   6  -6   1   10.34    1.06
  -6   6  -1   11.95    1.13
  -6   6  -1   11.37    1.07
   6  -6   1   12.85    1.05
  -6   6  -2   31.89    1.70
   6  -6   2   27.30    1.56
  -6   6  -2   28.81    1.77
  -6   6  -2   28.89    1.61
   6  -6   2   27.37    1.53
   6  -6   2   30.00    1.79
   6  -6   3  307.72    6.77
  -6   6  -3  324.67    6.94
  -6   6  -3  314.85    5.49
  -6   6  -3  296.45    7.25
  -6   6  -3  308.85    6.87
   6  -6   3  302.73    6.72
   6  -6   3  306.11    7.28
   6  -6   4   27.05    1.45
  -6   6  -4   23.61    1.00
  -6   6  -4   25.40    1.45
  -6   6  -4   25.16    1.70
  -6   6  -4   25.83    1.50
   6  -6   4   24.66    1.42
   6  -6   4   25.33    1.69
  -6   6  -5  160.71    4.17
   6  -6   5  168.15    4.15
  -6   6  -5  161.45    3.70
  -6   6  -5  159.90    4.90
  -6   6  -5  160.14    4.44
   6  -6   5  154.53    4.20
   6  -6   5  160.49    4.82
  -6   6  -6  323.90    6.68
  -6   6  -6  310.58    6.42
  -6   6  -6  314.92    7.18
  -6   6  -6  311.50    7.75
   6  -6   6  307.00    6.82
   6  -6   6  311.99    7.63
  -6   6  -7    3.32    0.57
  -6   6  -7    4.18    0.85
  -6   6  -7    4.20    0.58
  -6   6  -7    3.98    0.67
   6  -6   7    3.91    0.47
   6  -6   7    3.30    0.56
   6  -6   7    4.70    0.83
  -6   6  -8    1.50    0.48
  -6   6  -8    1.83    0.61
  -6   6  -8    1.89    0.38
  -6   6  -8    1.73    0.47
   6  -6   8    1.74    0.33
   6  -6   8    1.18    0.59
   6  -6   8    2.82    0.55
  -6   6  -9  173.35    5.65
  -6   6  -9  164.54    4.61
   6  -6   9  170.37    5.42
  -6   6 -10  126.38    4.84
  -6   6 -10  124.49    3.91
   6  -6  10  122.15    4.58
  -6   6 -11    8.26    1.25
  -6   6 -11   10.74    1.10
   6  -6  11   11.65    1.47
  -6   6 -12   14.75    1.68
  -6   6 -12   16.37    1.38
   6  -6  12   19.35    1.84
   6  -6  13   36.02    2.57
  -6   5  14   -0.61    0.52
  -6   5  13    4.42    1.01
   6  -5 -13    6.12    1.10
  -6   5  12   31.09    2.26
   6  -5 -12   30.81    2.30
  -6   5  11   21.52    1.82
   6  -5 -11   14.70    1.56
   6  -5 -10    0.57    0.41
  -6   5  10    0.74    0.55
   6  -5 -10    0.43    0.50
   6  -5  -9   39.44    1.88
  -6   5   9   44.82    2.48
   6  -5  -9   40.45    2.36
   6  -5  -8   17.19    1.13
  -6   5   8   17.68    1.51
   6  -5  -8   13.70    1.33
   6  -5  -7   18.39    1.06
  -6   5   7   15.16    1.35
   6  -5  -7   17.30    1.43
   6  -5  -6   42.77    1.53
  -6   5   6   40.58    2.18
   6  -5  -6   38.33    2.07
   6  -5  -5   73.31    1.92
  -6   5   5   69.94    2.84
   6  -5  -5   69.24    2.75
   6  -5  -4    0.47    0.16
   6  -5  -4    1.42    0.48
  -6   5   4    0.82    0.52
   6  -5  -4    0.52    0.43
   6  -5  -3    7.63    0.90
   6  -5  -3    9.92    0.99
  -6   5   3    9.56    0.96
   6  -5  -3    8.06    0.86
  -6   5   2   34.35    1.84
   6  -5  -2   35.81    1.85
  -6   5   2   35.05    1.81
   6  -5  -2   37.29    1.88
  -6   5   1   20.42    1.36
   6  -5  -1   17.29    1.26
  -6   5   1   17.84    1.27
   6  -5  -1   16.55    1.26
  -6   5   0   57.14    2.31
   6  -5   0   54.02    2.24
  -6   5   0   55.23    2.36
   6  -5   0   57.68    2.40
  -6   5   0   56.05    2.24
   6  -5   0   54.02    2.14
   6  -5   1    8.28    0.85
  -6   5  -1    8.90    0.89
   6  -5   1    7.73    0.87
  -6   5  -1    7.27    0.86
  -6   5  -1    9.26    0.86
   6  -5   1    7.05    0.74
  -6   5  -2    1.03    0.36
   6  -5   2    0.99    0.46
   6  -5   2    0.44    0.32
  -6   5  -2   -0.07    0.38
   6  -5   2    1.39    0.47
  -6   5  -2    0.17    0.34
   6  -5   2    0.50    0.33
  -6   5  -3   24.08    1.36
  -6   5  -3   21.19    0.81
  -6   5  -3   25.38    1.64
  -6   5  -3   23.58    1.33
   6  -5   3   22.79    1.25
   6  -5   3   22.05    1.51
  -6   5  -4  215.44    4.89
  -6   5  -4  200.13    4.14
  -6   5  -4  197.32    5.43
  -6   5  -4  208.49    4.86
   6  -5   4  200.56    4.70
   6  -5   4  205.13    5.41
  -6   5  -5    0.20    0.28
  -6   5  -5    0.25    0.23
  -6   5  -5    0.12    0.44
  -6   5  -5    0.74    0.39
  -6   5  -5    0.48    0.34
   6  -5   5    0.54    0.48
   6  -5   5    0.57    0.33
  -6   5  -6   29.18    1.40
  -6   5  -6   30.37    1.40
  -6   5  -6   31.64    1.77
  -6   5  -6   29.48    1.92
   6  -5   6   29.02    1.44
   6  -5   6   28.77    1.83
   6  -5   6   30.10    1.07
  -6   5  -7  224.48    4.71
  -6   5  -7  216.88    5.09
  -6   5  -7  213.79    6.05
   6  -5   7  207.55    4.95
  -6   5  -7  211.21    5.02
   6  -5   7  220.82    5.97
   6  -5   7  217.23    4.21
  -6   5  -8   15.51    1.18
  -6   5  -8   15.07    0.84
  -6   5  -8   14.48    1.44
  -6   5  -8   15.25    1.09
   6  -5   8   16.24    1.10
   6  -5   8   15.48    0.74
   6  -5   8   14.69    1.40
  -6   5  -9   31.32    2.16
  -6   5  -9   32.96    1.66
   6  -5   9   31.57    1.64
   6  -5   9   33.59    2.19
  -6   5 -10  106.56    4.35
  -6   5 -10  113.70    3.46
   6  -5  10  117.24    4.38
  -6   5 -11   51.58    3.01
  -6   5 -11   51.52    2.25
   6  -5  11   51.02    2.90
  -6   5 -12   12.76    1.58
   6  -5  12   14.25    1.60
  -6   5 -13    1.79    0.93
   6  -5  13    0.66    0.61
  -6   4  15   -1.51    0.82
  -6   4  14    9.77    1.34
   6  -4 -14    7.00    1.19
  -6   4  13   60.73    3.22
   6  -4 -13   56.86    3.19
  -6   4  12    3.24    0.83
   6  -4 -12    1.16    0.64
  -6   4  11   88.81    3.77
   6  -4 -11   93.52    3.90
  -6   4  10   54.89    2.80
   6  -4 -10   58.41    2.91
   6  -4  -9  335.86    7.31
  -6   4   9  334.58    8.15
   6  -4  -9  341.64    8.20
   6  -4  -8  285.72    6.27
  -6   4   8  288.18    7.21
   6  -4  -8  300.29    7.25
   6  -4  -7  184.49    4.34
  -6   4   7  186.68    5.27
   6  -4  -7  193.21    5.25
   6  -4  -6   50.01    1.71
  -6   4   6   48.67    2.33
   6  -4  -6   47.02    2.22
   6  -4  -5   22.99    1.00
   6  -4  -5   24.71    1.57
  -6   4   5   21.20    1.49
   6  -4  -5   23.85    1.50
   6  -4  -4    0.63    0.18
  -6   4   4    0.31    0.35
   6  -4  -4    0.55    0.41
  -6   4   4    0.65    0.44
   6  -4  -4    1.44    0.47
   6  -4  -4    1.18    0.48
   6  -4  -3   42.63    1.02
  -6   4   3   45.86    2.12
   6  -4  -3   48.91    2.15
   6  -4  -3   50.30    2.14
  -6   4   3   40.52    1.96
   6  -4  -3   47.14    1.93
  -6   4   2  141.73    3.95
   6  -4  -2  131.03    3.87
   6  -4  -2  127.57    3.76
  -6   4   2  131.28    3.75
   6  -4  -2  128.98    3.46
  -6   4   1    0.71    0.38
   6  -4  -1    1.02    0.40
  -6   4   1    1.17    0.40
   6  -4  -1    0.60    0.29
  -6   4   0   17.61    1.20
  -6   4   0   16.83    1.27
   6  -4   0   17.08    1.25
  -6   4   0   16.09    1.10
   6  -4   0   17.86    0.97
  -6   4  -1   19.38    1.22
  -6   4  -1   18.13    1.32
   6  -4   1   19.88    1.34
   6  -4   1   17.94    1.05
  -6   4  -1   16.71    1.10
   6  -4   1   19.41    1.30
   6  -4   1   17.44    0.90
  -6   4  -2    0.50    0.33
  -6   4  -2    0.31    0.39
   6  -4   2    0.71    0.32
  -6   4  -2    0.34    0.27
   6  -4   2    0.86    0.31
   6  -4   2    0.39    0.37
  -6   4  -3    0.45    0.20
  -6   4  -3    0.41    0.32
  -6   4  -3    0.65    0.47
   6  -4   3    0.52    0.42
  -6   4  -3   -0.24    0.27
   6  -4   3   -0.02    0.39
   6  -4   3    0.18    0.21
  -6   4  -4    2.05    0.31
  -6   4  -4    1.98    0.42
  -6   4  -4    1.82    0.56
  -6   4  -4    2.13    0.44
   6  -4   4    1.87    0.57
   6  -4   4    1.17    0.29
  -6   4  -5   26.15    1.26
  -6   4  -5   27.13    1.24
  -6   4  -5   23.99    1.63
  -6   4  -5   26.52    1.59
  -6   4  -5   25.37    1.25
   6  -4   5   25.25    1.17
   6  -4   5   25.04    1.63
   6  -4   5   25.49    0.76
  -6   4  -6    9.94    0.73
  -6   4  -6    9.73    0.81
  -6   4  -6    9.75    1.02
  -6   4  -6    9.98    1.11
  -6   4  -6    9.88    0.76
   6  -4   6   10.62    0.76
   6  -4   6    9.76    0.39
   6  -4   6   10.34    1.07
  -6   4  -7    2.27    0.36
  -6   4  -7    2.54    0.50
  -6   4  -7    4.16    0.85
  -6   4  -7    2.88    0.47
  -6   4  -7    2.31    0.41
   6  -4   7    1.88    0.60
   6  -4   7    2.09    0.17
   6  -4   7    2.41    0.42
  -6   4  -8   80.50    1.96
  -6   4  -8   76.51    2.77
  -6   4  -8   73.82    3.22
  -6   4  -8   72.85    2.35
  -6   4  -8   78.13    2.29
   6  -4   8   78.92    3.26
  -6   4  -9   19.60    1.67
  -6   4  -9   18.55    1.12
   6  -4   9   18.34    1.60
  -6   4 -10    0.34    0.51
  -6   4 -10    0.38    0.33
   6  -4  10    0.69    0.56
  -6   4 -11   28.74    2.18
  -6   4 -11   31.06    1.59
   6  -4  11   35.70    2.35
  -6   4 -12   52.52    3.09
   6  -4  12   55.72    3.08
  -6   4 -13    1.55    0.77
   6  -4  13    1.88    0.76
  -6   3  15   34.09    2.52
  -6   3  14    8.47    1.30
   6  -3 -14    9.91    1.37
  -6   3  13   16.46    1.70
   6  -3 -13   15.25    1.65
  -6   3  12   57.93    3.05
   6  -3 -12   61.95    3.18
  -6   3  11   51.23    2.74
   6  -3 -11   50.77    2.76
  -6   3  10    6.13    1.00
   6  -3 -10    4.96    0.88
   6  -3  -9  114.25    3.51
  -6   3   9  112.31    4.00
   6  -3  -9  111.33    3.97
   6  -3  -8  192.59    4.75
  -6   3   8  192.96    5.44
   6  -3  -8  197.95    5.44
   6  -3  -7    4.51    0.60
  -6   3   7    5.14    0.78
   6  -3  -7    4.24    0.76
  -6   3   6  108.11    3.61
   6  -3  -6  110.57    3.53
  -6   3   5   26.63    1.62
   6  -3  -5   25.78    1.58
  -6   3   5   25.12    1.56
   6  -3  -5   24.24    1.47
  -6   3   4   50.20    2.19
   6  -3  -4   46.11    2.13
   6  -3  -4   44.67    2.07
  -6   3   4   47.09    2.09
   6  -3  -4   44.40    1.92
  -6   3   3  250.35    5.83
   6  -3  -3  242.90    5.83
   6  -3  -3  246.68    5.72
  -6   3   3  233.62    5.62
   6  -3  -3  241.50    5.39
  -6   3   2    1.95    0.47
   6  -3  -2    2.25    0.55
  -6   3   2    2.00    0.46
   6  -3  -2    2.71    0.53
   6  -3  -2    1.84    0.38
  -6   3   1  360.48    7.29
   6  -3  -1  336.36    5.59
   6  -3  -1  350.80    7.41
   6  -3  -1  339.70    7.05
  -6   3   1  334.00    6.99
   6  -3  -1  339.01    6.58
   6  -3   0   86.62    1.68
  -6   3   0   87.70    2.80
   6  -3   0   91.26    3.01
   6  -3   0   82.96    2.61
  -6   3   0   86.02    2.62
   6  -3   0   83.87    2.26
   6  -3   0   87.49    2.80
  -6   3  -1    3.12    0.60
   6  -3   1    3.19    0.33
   6  -3   1    7.40    0.90
  -6   3  -1    3.97    0.69
  -6   3  -1    3.59    0.58
   6  -3   1    6.12    0.58
   6  -3   1    2.53    0.34
   6  -3   1    3.23    0.77
  -6   3  -2   76.60    2.46
  -6   3  -2   77.49    2.78
   6  -3   2   78.56    2.80
   6  -3   2   72.41    2.08
  -6   3  -2   77.71    2.32
   6  -3   2   79.09    1.81
   6  -3   2   77.70    2.70
  -6   3  -3   18.36    1.09
  -6   3  -3   20.27    0.91
  -6   3  -3   19.68    1.37
   6  -3   3   22.12    1.45
  -6   3  -3   19.99    1.03
   6  -3   3   20.60    0.93
   6  -3   3   19.99    0.62
   6  -3   3   22.19    1.39
  -6   3  -4    6.71    0.58
  -6   3  -4    6.08    0.60
  -6   3  -4    6.33    0.83
   6  -3   4    7.11    0.87
  -6   3  -4    6.24    0.56
   6  -3   4    5.72    0.48
   6  -3   4    6.49    0.81
  -6   3  -5   24.77    1.23
  -6   3  -5   26.52    1.20
  -6   3  -5   24.52    1.60
  -6   3  -5   27.14    1.64
  -6   3  -5   26.81    1.13
   6  -3   5   24.16    1.00
   6  -3   5   25.80    1.61
  -6   3  -6   12.21    0.76
  -6   3  -6   11.02    0.88
  -6   3  -6   12.81    1.21
  -6   3  -6   11.06    0.68
   6  -3   6   12.24    0.70
   6  -3   6   12.39    1.19
  -6   3  -7    0.51    0.34
  -6   3  -7    0.79    0.24
  -6   3  -7    1.38    0.56
  -6   3  -7    0.41    0.19
   6  -3   7    0.20    0.43
  -6   3  -8   11.95    0.57
  -6   3  -8   11.88    1.05
  -6   3  -8   11.65    1.26
  -6   3  -8   12.32    0.55
  -6   3  -8   10.83    0.73
  -6   3  -8   12.34    0.67
   6  -3   8   10.92    1.19
  -6   3  -9    0.35    0.46
  -6   3  -9    0.76    0.20
  -6   3  -9    0.71    0.22
  -6   3  -9    0.65    0.25
   6  -3   9    0.75    0.62
  -6   3 -10   37.96    2.37
  -6   3 -10   38.49    1.16
  -6   3 -10   37.46    1.53
   6  -3  10   41.67    2.48
  -6   3 -11   14.53    1.55
  -6   3 -11   14.86    0.99
   6  -3  11   13.83    1.47
  -6   3 -12    9.76    1.34
   6  -3  12    9.94    1.34
  -6   3 -13   14.92    1.71
   6  -3  13   16.56    1.78
  -6   3 -14   23.51    2.12
   6  -3  14   25.41    2.21
  -6   2  15    2.74    0.78
  -6   2  14    0.27    0.56
   6  -2 -14    1.70    0.78
  -6   2  13    4.17    0.89
   6  -2 -13    6.43    1.10
  -6   2  12   16.35    1.63
   6  -2 -12   16.61    1.64
  -6   2  11    4.90    0.90
   6  -2 -11    5.60    1.01
  -6   2  10   17.73    1.56
   6  -2 -10   16.64    1.50
  -6   2   9    1.44    0.58
   6  -2  -9    2.07    0.66
  -6   2   8  211.23    5.69
   6  -2  -8  202.70    5.55
  -6   2   7   52.03    2.41
   6  -2  -7   50.65    2.32
  -6   2   6  125.02    3.88
   6  -2  -6  125.13    3.77
  -6   2   5    8.40    0.91
  -6   2   5    6.31    0.82
   6  -2  -5    7.42    0.88
   6  -2  -5    8.21    0.86
  -6   2   4  105.16    3.34
   6  -2  -4  104.18    3.28
  -6   2   4  102.20    3.25
   6  -2  -4  100.78    3.06
  -6   2   3  456.63    9.18
   6  -2  -3  460.68    9.23
   6  -2  -3  456.09    9.01
  -6   2   3  444.83    8.93
   6  -2  -3  442.69    8.64
  -6   2   2   32.37    1.62
   6  -2  -2   31.38    1.65
   6  -2  -2   31.59    1.55
  -6   2   2   30.00    1.50
   6  -2  -2   29.54    1.33
  -6   2   1   17.78    1.17
   6  -2  -1   16.89    0.74
   6  -2  -1   18.45    1.23
   6  -2  -1   17.65    1.11
  -6   2   1   17.44    1.10
   6  -2  -1   16.85    0.91
   6  -2  -1   17.67    1.10
  -6   2   0  405.95    8.02
   6  -2   0  395.44    6.93
   6  -2   0  402.50    8.25
   6  -2   0  385.99    7.69
  -6   2   0  390.01    7.66
   6  -2   0  411.53    7.91
   6  -2   0  401.48    7.19
  -6   2  -1  199.03    4.69
   6  -2   1  201.58    3.92
  -6   2  -1  194.83    4.92
   6  -2   1  206.10    5.01
   6  -2   1  194.31    4.37
  -6   2  -1  202.07    4.39
   6  -2   1  203.73    4.76
   6  -2   1  197.43    3.83
   6  -2   2    6.23    0.50
  -6   2  -2    5.60    0.64
   6  -2   2    6.65    0.78
  -6   2  -2    5.99    0.79
   6  -2   2    5.44    0.43
  -6   2  -2    6.22    0.58
   6  -2   2    5.58    0.71
   6  -2   2    5.58    0.33
   6  -2   3    0.85    0.26
  -6   2  -3    0.43    0.26
  -6   2  -3    0.56    0.24
  -6   2  -3    1.49    0.48
   6  -2   3    0.57    0.33
  -6   2  -3    0.47    0.23
   6  -2   3    0.56    0.17
   6  -2   3    1.06    0.41
   6  -2   4  101.80    2.75
  -6   2  -4  103.29    2.78
  -6   2  -4  100.83    2.77
  -6   2  -4  104.19    3.34
   6  -2   4  114.36    3.51
   6  -2   4  104.30    2.15
  -6   2  -4  102.02    2.44
   6  -2   4  104.90    3.33
   6  -2   5   89.80    2.66
  -6   2  -5   87.00    2.42
  -6   2  -5   85.69    2.63
  -6   2  -5   88.44    3.12
  -6   2  -5   92.41    3.22
  -6   2  -5   91.01    2.12
   6  -2   5   88.45    1.87
  -6   2  -5   97.75    3.24
   6  -2   5   87.73    3.11
  -6   2  -6   62.71    1.86
  -6   2  -6   60.32    2.25
  -6   2  -6   63.21    2.64
  -6   2  -6   62.83    1.53
   6  -2   6   63.01    2.64
  -6   2  -7   49.15    2.10
  -6   2  -7   49.29    1.48
  -6   2  -7   47.33    2.32
  -6   2  -7   51.16    1.48
  -6   2  -7   48.44    1.15
   6  -2   7   45.17    2.31
  -6   2  -8   26.58    0.87
  -6   2  -8   26.39    1.60
  -6   2  -8   22.65    1.64
  -6   2  -8   28.02    0.87
  -6   2  -8   25.19    0.94
   6  -2   8   26.06    1.81
  -6   2  -9    9.68    1.15
  -6   2  -9    9.28    0.60
   6  -2   9   10.52    1.23
  -6   2 -10   35.59    2.22
  -6   2 -10   35.61    1.32
   6  -2  10   36.31    2.30
  -6   2 -11   38.76    2.40
   6  -2  11   39.59    2.48
  -6   2 -12   24.13    1.94
   6  -2  12   21.99    1.97
  -6   2 -13   32.26    2.37
   6  -2  13   34.62    2.52
  -6   2 -14   19.47    1.92
   6  -2  14   20.89    2.00
  -6   1  15    4.35    1.00
  -6   1  14    0.68    0.71
   6  -1 -14    0.71    0.55
  -6   1  13    0.32    0.52
   6  -1 -13    1.00    0.75
  -6   1  12    6.63    1.12
   6  -1 -12    6.55    1.12
  -6   1  11   -0.29    0.55
   6  -1 -11   -0.34    0.51
  -6   1  10    8.44    1.09
   6  -1 -10    7.75    1.11
  -6   1   9   49.78    2.54
   6  -1  -9   48.82    2.46
  -6   1   8   -0.40    0.47
   6  -1  -8    0.47    0.42
  -6   1   7    6.05    0.85
   6  -1  -7    6.88    0.90
  -6   1   6  181.79    4.84
  -6   1   6  166.70    4.70
  -6   1   6  180.90    4.75
   6  -1  -6  164.83    4.56
  -6   1   5   13.92    1.14
   6  -1  -5   17.01    1.24
  -6   1   5   15.60    1.16
   6  -1  -5   13.52    1.07
  -6   1   4    1.98    0.52
   6  -1  -4    2.56    0.49
   6  -1  -4    1.26    0.41
  -6   1   4    2.58    0.49
  -6   1   3   24.92    1.41
   6  -1  -3   28.03    1.48
  -6   1   3   26.30    1.33
   6  -1  -3   23.99    1.27
   6  -1  -2  708.45   12.94
  -6   1   2  691.81   12.55
   6  -1  -2  692.02   12.58
   6  -1  -2  697.82   12.17
  -6   1   2  670.39   12.20
   6  -1  -2  702.65   12.21
   6  -1  -1   50.58    2.08
   6  -1  -1   48.28    1.84
  -6   1   1   43.68    1.76
  -6   1   1   48.67    1.66
   6  -1  -1   48.75    1.62
   6  -1  -1   46.70    1.73
   6  -1   0   55.66    1.69
   6  -1   0   53.32    2.15
   6  -1   0   54.29    1.88
  -6   1   0   58.45    1.92
  -6   1   0   52.70    1.61
   6  -1   0   53.39    1.94
   6  -1   0   56.57    1.64
   6  -1   1  377.85    7.01
   6  -1   1  383.63    7.87
   6  -1   1  368.25    7.11
  -6   1  -1  383.64    7.13
   6  -1   1  378.88    7.52
   6  -1   2   79.58    2.22
  -6   1  -2   78.97    2.67
   6  -1   2   74.64    2.64
   6  -1   2   75.63    2.09
  -6   1  -2   75.38    2.07
   6  -1   2   75.80    1.70
   6  -1   2   76.51    2.55
   6  -1   3    4.10    0.49
  -6   1  -3    3.34    0.46
  -6   1  -3    2.91    0.51
   6  -1   3    3.97    0.62
  -6   1  -3    3.72    0.60
  -6   1  -3    3.23    0.36
   6  -1   3    3.67    0.60
   6  -1   4   92.02    2.65
  -6   1  -4   88.15    2.64
  -6   1  -4   85.78    2.94
   6  -1   4   87.51    2.99
  -6   1  -4   86.68    2.00
  -6   1  -4   89.46    2.99
   6  -1   4   90.77    3.00
  -6   1  -5  211.79    4.58
   6  -1   5  214.25    4.98
  -6   1  -5  218.88    5.05
  -6   1  -5  215.56    4.59
  -6   1  -5  212.58    5.35
  -6   1  -5  221.20    5.65
  -6   1  -5  216.78    3.80
   6  -1   5  225.30    5.49
  -6   1  -5  218.21    5.46
  -6   1  -6  120.59    3.75
  -6   1  -6  123.23    2.89
  -6   1  -6  115.87    2.86
   6  -1   6  115.55    3.43
  -6   1  -6  116.31    3.46
   6  -1   6  116.32    3.78
  -6   1  -7   52.66    2.39
  -6   1  -7   51.07    1.57
   6  -1   7   49.92    2.18
  -6   1  -7   50.84    1.56
  -6   1  -7   50.84    2.21
   6  -1   7   50.47    2.40
  -6   1  -8   85.34    3.24
  -6   1  -8   86.70    2.02
  -6   1  -8   85.52    1.99
   6  -1   8   81.23    3.31
  -6   1  -9   48.81    2.46
  -6   1  -9   47.90    1.13
   6  -1   9   44.61    2.47
  -6   1 -10   11.74    1.25
  -6   1 -10   12.58    0.61
   6  -1  10   11.51    1.33
  -6   1 -11   97.39    3.86
   6  -1  11   98.73    4.07
  -6   1 -12   79.90    3.57
   6  -1  12   83.00    3.83
  -6   1 -13   41.01    2.62
  -6   1 -14   26.00    2.14
  -6   1 -15   23.21    2.07
  -6   0  15   31.86    2.45
  -6   0  14   15.43    1.67
   6   0 -14   15.83    1.72
   6   0 -14   12.87    1.64
  -6   0  13    4.98    0.99
   6   0 -13    2.88    0.79
   6   0 -13    4.33    1.03
  -6   0  12    4.44    0.95
   6   0 -12    3.58    0.86
  -6   0  11   11.36    1.32
   6   0 -11   10.04    1.24
   6   0 -11   10.86    0.91
  -6   0  10   -0.29    0.50
   6   0 -10   -0.37    0.60
  -6   0   9    0.24    0.47
   6   0  -9   -0.01    0.47
  -6   0   8   -0.44    0.48
   6   0  -8   -0.28    0.51
  -6   0   7    2.29    0.61
   6   0  -7    1.49    0.50
  -6   0   6    2.07    0.54
   6   0  -6    1.54    0.48
  -6   0   6    1.27    0.42
  -6   0   5    6.45    0.82
   6   0  -5    7.21    0.83
   6   0  -5    5.34    0.72
  -6   0   5    6.37    0.76
  -6   0   4   33.20    1.71
   6   0  -4   35.04    1.74
  -6   0   4   35.12    1.66
   6   0  -4   32.96    1.61
  -6   0   3    1.67    0.47
   6   0  -3    1.88    0.44
   6   0  -3    1.31    0.30
   6   0  -3    1.72    0.43
  -6   0   3    2.15    0.42
   6   0  -2   21.79    1.34
  -6   0   2   20.17    1.22
   6   0  -2   21.99    1.25
  -6   0   2   23.00    1.17
   6   0  -2   21.39    1.02
   6   0  -2   23.36    1.17
   6   0  -1    1.18    0.46
  -6   0   1    1.35    0.39
   6   0  -1    1.96    0.43
   6   0  -1    1.02    0.31
  -6   0   1    1.03    0.32
   6   0   0   15.20    0.92
   6   0   0   15.19    1.08
  -6   0   0   16.66    0.97
   6   0   0   15.33    0.94
  -6   0   0   15.26    0.81
   6   0   0   16.46    0.98
   6   0   1   64.26    2.07
   6   0   1   64.61    2.34
  -6   0  -1   63.50    1.93
   6   0   1   63.66    1.94
   6   0   1   66.29    1.60
  -6   0  -1   64.01    1.70
   6   0   1   64.36    2.14
   6   0   2    0.71    0.32
  -6   0  -2    0.66    0.29
   6   0   2    1.25    0.41
  -6   0  -2    1.12    0.40
  -6   0  -2    0.80    0.26
   6   0   2    1.01    0.26
   6   0   2    1.12    0.41
  -6   0  -2    0.89    0.18
   6   0   2    0.77    0.11
   6   0   3   66.64    2.22
  -6   0  -3   65.02    2.19
  -6   0  -3   64.08    2.38
   6   0   3   63.27    2.37
   6   0   3   63.62    1.69
  -6   0  -3   66.12    1.71
   6   0   3   70.58    2.44
  -6   0  -3   65.40    1.33
  -6   0  -3   67.80    2.41
  -6   0  -4  171.65    4.00
  -6   0  -4  165.35    4.35
   6   0   4  167.27    4.39
  -6   0  -4  164.32    4.19
   6   0   4  165.02    4.16
   6   0   4  170.17    4.44
  -6   0  -4  174.65    4.48
  -6   0  -5    4.92    0.67
  -6   0  -5    6.07    0.60
   6   0   5    5.06    0.67
  -6   0  -5    4.95    0.66
   6   0   5    5.01    0.76
  -6   0  -5    5.60    0.75
  -6   0  -6   82.63    2.92
  -6   0  -6   86.54    2.40
   6   0   6   81.42    2.84
  -6   0  -6   85.35    2.93
   6   0   6   76.59    2.98
  -6   0  -7   69.30    2.72
  -6   0  -7   71.30    2.06
   6   0   7   69.48    2.71
  -6   0  -7   71.57    2.76
   6   0   7   68.23    2.88
  -6   0  -8   32.42    1.20
  -6   0  -8   32.24    1.84
   6   0   8   27.67    1.75
   6   0   8   32.01    1.97
  -6   0  -9   10.51    1.12
   6   0   9   11.52    1.20
  -6   0  -9   12.94    0.60
  -6   0  -9   12.90    0.61
   6   0   9   11.89    1.27
  -6   0 -10   85.15    3.40
   6   0  10   90.25    3.75
  -6   0 -11    9.80    1.16
   6   0  11    8.49    1.22
  -6   0 -12   15.83    1.53
  -6   0 -13   50.06    2.82
  -6   0 -14   24.05    2.01
  -6   0 -15    2.17    0.76
  -6  -1  15   -0.46    0.49
  -6  -1  14   14.36    1.46
  -6  -1  14   16.13    1.76
   6   1 -14   16.12    1.74
   6   1 -14   20.19    1.93
  -6  -1  13   56.32    3.11
   6   1 -13   51.99    3.03
   6   1 -13   52.64    3.05
   6   1 -12   72.52    3.48
  -6  -1  12   68.49    3.38
   6   1 -12   66.94    3.32
  -6  -1  11    4.08    0.94
   6   1 -11    3.94    0.90
   6   1 -11    2.55    0.79
   6   1 -10   34.30    2.19
  -6  -1  10   30.10    2.07
   6   1 -10   30.45    2.06
   6   1 -10   32.56    1.32
   6   1  -9   25.45    1.78
  -6  -1   9   23.70    1.76
   6   1  -9   23.16    1.03
   6   1  -9   22.94    1.70
  -6  -1   8   76.59    3.13
   6   1  -8   77.59    3.10
   6   1  -8   73.71    3.03
  -6  -1   7  101.01    3.55
   6   1  -7  100.36    3.45
   6   1  -7   99.73    3.46
  -6  -1   6   82.08    3.07
   6   1  -6   86.85    3.03
  -6  -1   6   86.66    3.06
   6   1  -6   85.19    3.03
  -6  -1   5   99.99    3.35
   6   1  -5  100.76    3.22
   6   1  -5  110.93    3.47
  -6  -1   5  108.22    3.36
   6   1  -5  106.56    3.32
   6   1  -5  103.26    2.30
   6   1  -4   81.37    2.67
  -6  -1   4   80.36    2.82
   6   1  -4   83.22    2.87
  -6  -1   4   84.47    2.78
   6   1  -4   81.45    1.97
   6   1  -3   23.65    1.25
  -6  -1   3   25.38    1.43
   6   1  -3   23.54    1.38
  -6  -1   3   23.65    1.30
   6   1  -3   22.31    0.91
   6   1  -2  158.94    4.16
  -6  -1   2  152.42    3.95
   6   1  -2  152.82    3.98
   6   1  -2  155.36    3.69
  -6  -1   2  153.02    3.82
   6   1  -2  159.54    3.38
   6   1  -1  281.88    6.19
   6   1  -1  276.54    5.51
  -6  -1   1  282.68    5.92
   6   1  -1  277.03    5.90
  -6  -1   1  279.50    5.72
   6   1  -1  284.87    5.50
   6   1   0   35.90    1.58
   6   1   0   38.18    1.71
  -6  -1   0   37.96    1.53
   6   1   0   37.48    1.51
   6   1   0   37.14    1.27
   6   1   0   37.02    1.45
  -6  -1   0   37.13    1.41
   6   1   1   11.54    0.93
  -6  -1  -1    7.72    0.81
   6   1   1    9.46    0.88
   6   1   1   10.10    0.55
  -6  -1  -1    9.23    0.71
   6   1   1    8.99    0.67
  -6  -1  -1    9.00    0.74
   6   1   1   10.92    0.85
  -6  -1  -1    7.75    0.58
   6   1   2  193.84    4.62
  -6  -1  -2  206.49    4.74
   6   1   2  179.58    4.58
   6   1   2  197.51    3.39
   6   1   2  190.94    4.02
   6   1   2  202.15    4.63
  -6  -1  -2  191.21    4.55
  -6  -1  -2  193.78    3.87
   6   1   3   49.55    1.99
  -6  -1  -3   48.26    1.96
   6   1   3   49.70    1.99
  -6  -1  -3   49.03    1.91
   6   1   3   47.01    1.39
  -6  -1  -3   45.04    1.93
  -6  -1  -3   47.38    1.32
   6   1   3   50.10    2.01
   6   1   4   66.60    2.43
  -6  -1  -4   64.00    2.33
  -6  -1  -4   67.72    2.71
   6   1   4   64.27    2.36
  -6  -1  -4   65.77    2.23
   6   1   4   60.85    1.44
  -6  -1  -4   69.63    2.54
  -6  -1  -4   62.16    1.47
   6   1   4   64.94    2.45
  -6  -1  -5   25.51    1.43
  -6  -1  -5   24.99    1.28
  -6  -1  -5   25.14    1.50
   6   1   5   22.46    1.42
  -6  -1  -5   26.78    1.57
  -6  -1  -5   25.51    0.73
   6   1   5   24.49    1.54
  -6  -1  -6   73.12    2.64
  -6  -1  -6   75.69    2.35
   6   1   6   72.55    2.77
  -6  -1  -6   71.84    2.77
  -6  -1  -6   73.12    1.47
   6   1   6   70.94    2.82
  -6  -1  -7   22.29    1.42
  -6  -1  -7   22.42    1.16
   6   1   7   21.64    1.52
  -6  -1  -7   22.40    0.63
   6   1   7   22.96    1.63
  -6  -1  -8   12.63    1.11
   6   1   8   13.16    1.27
  -6  -1  -8   13.75    0.87
   6   1   8   15.20    1.39
  -6  -1  -8   14.16    0.52
  -6  -1  -9    0.30    0.37
  -6  -1  -9    0.35    0.19
   6   1   9   -0.07    0.48
   6   1   9    0.03    0.48
  -6  -1  -9    0.26    0.15
   6   1  10   43.19    2.41
  -6  -1 -10   37.12    2.09
  -6  -1 -11   12.40    1.25
  -6  -1 -12    4.54    0.83
  -6  -1 -13    1.94    0.64
  -6  -1 -14    1.73    0.65
  -6  -1 -15    3.11    0.86
  -6  -2  15   23.51    1.91
  -6  -2  14   28.44    2.04
   6   2 -14   29.37    2.38
  -6  -2  13    0.61    0.60
   6   2 -13   -0.21    0.61
  -6  -2  12  156.90    5.07
   6   2 -12  165.23    5.60
  -6  -2  11   36.43    2.21
  -6  -2  11   38.76    2.46
   6   2 -11   37.72    2.40
  -6  -2  10    7.51    1.02
  -6  -2  10    9.23    1.20
   6   2 -10    7.32    1.07
  -6  -2   9   23.17    1.67
  -6  -2   9   23.29    1.79
   6   2  -9   23.90    1.75
   6   2  -9   24.05    0.76
  -6  -2   8   60.41    2.78
   6   2  -8   61.31    2.73
   6   2  -8   55.10    1.14
  -6  -2   7   66.57    2.86
   6   2  -7   68.39    2.80
   6   2  -6   31.47    1.77
  -6  -2   6   30.32    1.81
   6   2  -5   89.35    3.02
  -6  -2   5   92.77    3.22
  -6  -2   5   91.15    3.12
  -6  -2   4   52.35    2.33
   6   2  -4   52.93    2.12
  -6  -2   4   49.79    2.20
   6   2  -4   51.83    2.24
  -6  -2   4   54.02    2.21
   6   2  -4   51.85    1.18
  -6  -2   3   23.53    1.50
   6   2  -3   20.94    1.23
  -6  -2   3   22.21    1.38
   6   2  -3   23.19    1.39
  -6  -2   3   23.04    1.34
   6   2  -3   22.58    0.80
  -6  -2   2   97.27    3.25
  -6  -2   2  102.61    3.10
   6   2  -2  102.20    3.11
   6   2  -2  104.13    2.86
  -6  -2   2  105.24    3.04
   6   2  -2  101.99    2.36
  -6  -2   1  188.88    4.85
   6   2  -1  188.49    4.62
   6   2  -1  192.61    4.17
   6   2  -1  180.27    4.42
  -6  -2   1  186.91    4.37
   6   2  -1  189.02    3.94
   6   2   0  199.45    4.89
  -6  -2   0  209.65    5.09
   6   2   0  198.53    4.76
   6   2   0  202.95    4.20
   6   2   0  201.73    4.58
  -6  -2   0  199.45    4.33
  -6  -2   0  207.51    4.53
   6   2   0  208.89    4.39
   6   2   1  104.94    3.21
   6   2   1  104.55    3.04
  -6  -2  -1  108.21    3.29
   6   2   1  108.04    2.44
   6   2   1  107.01    2.81
  -6  -2  -1  104.04    2.86
  -6  -2  -1  103.34    2.73
   6   2   1  106.57    2.89
   6   2   2   50.47    2.11
   6   2   2   50.74    1.94
  -6  -2  -2   49.43    2.07
   6   2   2   50.02    1.29
   6   2   2   50.08    1.63
  -6  -2  -2   48.75    1.90
  -6  -2  -2   48.19    1.62
   6   2   2   52.52    1.96
   6   2   3   95.58    3.13
   6   2   3   98.39    2.93
  -6  -2  -3  101.18    3.09
   6   2   3   99.28    2.37
  -6  -2  -3   99.35    3.04
   6   2   3   98.15    3.04
   6   2   4   66.92    2.61
  -6  -2  -4   74.78    2.46
  -6  -2  -4   69.98    2.47
   6   2   4   72.70    2.45
   6   2   4   70.29    1.69
  -6  -2  -4   74.51    2.65
   6   2   4   69.88    2.59
  -6  -2  -5  171.65    4.31
  -6  -2  -5  173.05    4.32
  -6  -2  -5  169.98    4.72
   6   2   5  173.19    4.73
  -6  -2  -5  165.42    4.63
   6   2   5  172.71    4.69
  -6  -2  -6   23.92    1.39
  -6  -2  -6   28.32    1.45
   6   2   6   24.77    1.62
   6   2   6   24.73    1.62
  -6  -2  -7   40.20    1.89
  -6  -2  -7   47.04    1.86
   6   2   7   42.26    2.21
  -6  -2  -7   41.98    1.34
  -6  -2  -8  225.00    5.57
  -6  -2  -8  229.15    5.11
   6   2   8  219.07    6.06
  -6  -2  -8  229.83    4.48
  -6  -2  -9   92.87    3.24
   6   2   9   90.09    3.64
  -6  -2  -9   97.74    2.73
  -6  -2  -9   93.07    2.34
  -6  -2 -10   35.12    1.95
   6   2  10   31.69    2.17
  -6  -2 -10   35.70    1.40
  -6  -2 -11    4.46    0.75
   6   2  11    3.95    0.93
  -6  -2 -12   -0.10    0.43
   6   2  12    0.94    0.62
  -6  -2 -13    2.01    0.64
  -6  -2 -14    0.28    0.54
  -6  -3  15    1.48    0.61
  -6  -3  14    1.44    0.63
  -6  -3  13    1.02    0.62
   6   3 -13    1.41    0.60
  -6  -3  12    3.89    0.85
   6   3 -12    4.76    1.01
  -6  -3  11   45.51    2.53
   6   3 -11   49.26    2.82
  -6  -3  10   21.08    1.68
   6   3 -10   25.83    1.94
  -6  -3   9   38.05    2.20
   6   3  -9   35.85    2.21
  -6  -3   8    0.38    0.43
   6   3  -8    0.43    0.51
  -6  -3   7  310.83    7.47
   6   3  -7  308.27    7.38
  -6  -3   6    0.78    0.54
   6   3  -6    0.42    0.46
  -6  -3   5   10.54    1.10
   6   3  -5   10.91    1.02
  -6  -3   4   29.37    1.77
   6   3  -4   30.01    1.60
   6   3  -4   28.66    1.67
  -6  -3   4   27.00    1.59
  -6  -3   3   25.90    1.63
   6   3  -3   25.26    1.39
   6   3  -3   25.20    1.50
  -6  -3   3   25.24    1.48
  -6  -3   2    8.86    0.97
   6   3  -2    8.03    0.84
  -6  -3   2    7.45    0.79
   6   3  -2    6.21    0.67
   6   3  -1   81.67    2.65
  -6  -3   1   86.03    3.03
   6   3  -1   82.72    2.45
   6   3  -1   79.91    2.66
  -6  -3   1   77.86    2.08
  -6  -3   1   85.51    2.70
   6   3   0   64.12    2.51
   6   3   0   62.61    2.23
  -6  -3   0   63.26    2.54
   6   3   0   65.46    2.24
   6   3   0   64.26    1.98
  -6  -3   0   63.04    2.20
  -6  -3   0   60.93    1.91
   6   3   1   27.26    1.59
   6   3   1   21.72    1.22
  -6  -3  -1   28.36    1.63
   6   3   1   25.21    1.08
   6   3   1   25.01    1.25
  -6  -3  -1   25.32    1.24
   6   3   2   33.95    1.83
   6   3   2   35.68    1.55
  -6  -3  -2   33.32    1.75
   6   3   2   32.58    1.14
   6   3   2   33.12    1.38
  -6  -3  -2   31.22    1.50
   6   3   3   16.65    1.27
  -6  -3  -3   14.28    1.21
   6   3   3   14.19    0.96
  -6  -3  -3   14.40    1.14
   6   3   3   13.50    0.79
  -6  -3  -3   14.19    1.06
   6   3   4   15.28    1.27
  -6  -3  -4   11.96    1.04
   6   3   4   13.68    0.96
   6   3   4   13.53    0.70
  -6  -3  -4   14.49    1.12
   6   3   5   47.15    2.29
  -6  -3  -5   46.64    1.84
  -6  -3  -5   45.16    2.02
   6   3   5   44.46    1.19
  -6  -3  -5   45.02    2.14
  -6  -3  -6   42.75    1.82
  -6  -3  -6   44.76    1.99
   6   3   6   41.59    2.21
  -6  -3  -7   12.50    0.98
   6   3   7   11.17    1.21
  -6  -3  -7   11.87    0.99
  -6  -3  -8   23.96    1.42
  -6  -3  -8   25.23    1.44
   6   3   8   23.86    1.79
  -6  -3  -9  122.32    3.72
  -6  -3  -9  124.45    3.50
   6   3   9  125.03    4.49
  -6  -3  -9  126.52    3.19
  -6  -3 -10    2.09    0.55
  -6  -3 -10    2.61    0.45
   6   3  10    2.25    0.80
  -6  -3 -11   25.65    1.67
   6   3  11   22.20    1.96
  -6  -3 -12   37.94    2.12
   6   3  12   37.07    2.62
   6   3  13   40.26    2.82
  -6  -4  15   60.28    3.20
  -6  -4  14   21.30    1.89
  -6  -4  13    2.08    0.72
   6   4 -13    1.00    0.56
  -6  -4  12   29.54    2.11
   6   4 -12   33.63    2.41
  -6  -4  11   67.70    3.20
   6   4 -11   68.99    3.44
  -6  -4  10   23.06    1.81
   6   4 -10   27.12    2.04
  -6  -4   9    1.45    0.64
   6   4  -9    2.06    0.67
  -6  -4   8   48.93    2.55
   6   4  -8   48.63    2.54
  -6  -4   7   22.68    1.71
   6   4  -7   24.85    1.72
  -6  -4   6   47.99    2.47
   6   4  -6   53.10    2.45
  -6  -4   5    4.00    0.79
   6   4  -5    4.74    0.77
  -6  -4   4    1.31    0.47
   6   4  -4    0.27    0.35
  -6  -4   3   21.81    1.60
   6   4  -3   21.40    1.35
   6   4  -3   24.75    1.58
  -6  -4   3   25.55    1.56
  -6  -4   2    0.40    0.46
   6   4  -2    0.59    0.36
  -6  -4   2    0.84    0.39
   6   4  -2    0.51    0.31
   6   4  -1  108.17    3.16
  -6  -4   1  109.84    3.70
   6   4  -1  110.27    3.36
   6   4  -1  109.58    3.10
  -6  -4   1  104.25    3.28
  -6  -4   1  107.69    2.56
   6   4   0   15.37    1.28
   6   4   0   16.58    1.06
  -6  -4   0   17.79    1.37
   6   4   0   17.25    1.02
   6   4   0   17.04    1.15
  -6  -4   0   16.46    0.92
   6   4   1   72.55    2.86
   6   4   1   68.67    2.27
  -6  -4  -1   72.43    2.85
   6   4   1   73.14    2.20
   6   4   1   68.47    2.36
  -6  -4  -1   70.84    2.26
   6   4   2   48.21    2.31
   6   4   2   48.17    1.79
  -6  -4  -2   49.15    2.24
  -6  -4  -2   50.90    2.32
   6   4   2   48.97    1.64
   6   4   2   47.56    1.81
  -6  -4  -2   44.57    1.86
   6   4   3    6.57    0.91
   6   4   3    6.21    0.62
  -6  -4  -3    5.60    0.82
  -6  -4  -3    6.00    0.50
   6   4   3    5.78    0.59
  -6  -4  -3    3.96    0.59
   6   4   4   14.73    1.32
  -6  -4  -4   14.87    1.25
   6   4   4   16.66    0.88
  -6  -4  -4   14.86    0.72
  -6  -4  -4   13.02    1.08
   6   4   5   41.41    2.28
  -6  -4  -5   45.95    1.27
   6   4   5   49.27    1.48
  -6  -4  -5   46.71    2.20
   6   4   6   32.83    2.04
  -6  -4  -6   31.75    0.91
   6   4   6   31.70    0.96
  -6  -4  -6   32.86    1.83
  -6  -4  -7   32.21    1.78
   6   4   7   28.23    1.96
  -6  -4  -7   29.09    0.79
  -6  -4  -7   29.39    1.43
  -6  -4  -8   15.59    1.09
  -6  -4  -8   15.57    1.23
   6   4   8   15.03    1.50
  -6  -4  -9   27.36    1.48
  -6  -4  -9   25.54    1.54
   6   4   9   24.93    1.97
  -6  -4 -10    2.68    0.60
  -6  -4 -10    2.32    0.55
   6   4  10    2.46    0.76
   6   4  11   99.78    4.36
   6   4  12   -0.14    0.63
  -6  -5  14   33.27    2.41
  -6  -5  13   19.12    1.79
  -6  -5  12    7.36    1.11
   6   5 -12    5.42    1.02
  -6  -5  11   11.04    1.35
   6   5 -11   10.88    1.44
  -6  -5  10   88.34    3.78
   6   5 -10   88.41    3.90
  -6  -5   9   -0.52    0.54
   6   5  -9    0.01    0.55
  -6  -5   8   14.75    1.48
   6   5  -8   15.55    1.48
  -6  -5   7   74.21    3.27
   6   5  -7   70.88    3.10
  -6  -5   6   13.20    1.37
   6   5  -6   11.88    1.21
  -6  -5   5   17.63    1.54
   6   5  -5   20.05    1.49
  -6  -5   4    5.43    0.89
   6   5  -4    5.87    0.82
  -6  -5   3   54.55    2.63
   6   5  -3   51.92    2.29
  -6  -5   2   71.90    3.06
   6   5  -2   71.44    2.64
   6   5  -1   17.27    1.13
  -6  -5   1   19.58    1.52
   6   5  -1   17.10    1.20
   6   5  -1   17.90    1.29
  -6  -5   1   17.68    0.86
   6   5   0    2.67    0.69
  -6  -5   0    3.83    0.75
   6   5   0    3.78    0.55
   6   5   0    2.41    0.48
   6   5   0    2.56    0.47
  -6  -5   0    3.19    0.45
  -6  -5   0    2.11    0.44
   6   5   1   71.03    2.98
   6   5   1   71.30    2.24
  -6  -5  -1   70.32    2.72
  -6  -5  -1   71.45    2.98
  -6  -5  -1   69.32    2.30
   6   5   1   71.56    2.35
   6   5   1   65.71    2.44
  -6  -5  -1   68.80    2.28
   6   5   2    1.18    0.54
  -6  -5  -2    1.40    0.46
   6   5   2    1.16    0.33
  -6  -5  -2    2.30    0.66
   6   5   2    0.62    0.30
   6   5   2    0.71    0.29
  -6  -5  -2    0.96    0.37
  -6  -5  -2    0.85    0.34
   6   5   3   -0.19    0.48
   6   5   3   -0.10    0.21
  -6  -5  -3    0.17    0.41
   6   5   3   -0.46    0.33
  -6  -5  -3   -0.08    0.33
  -6  -5  -3    0.09    0.26
   6   5   4    9.35    1.06
  -6  -5  -4    7.68    0.95
  -6  -5  -4    9.45    0.68
   6   5   4    9.72    0.75
  -6  -5  -4    9.02    0.96
   6   5   5    2.82    0.71
  -6  -5  -5    2.55    0.60
   6   5   5    2.57    0.38
  -6  -5  -5    2.87    0.39
   6   5   6    7.00    1.03
  -6  -5  -6    7.57    0.96
   6   5   7    5.76    1.01
  -6  -5  -7    6.46    0.87
   6   5   8    6.59    1.06
  -6  -5  -8    5.41    0.82
   6   5   9   -0.48    0.68
  -6  -5  -9    1.36    0.53
   6   5  10   16.37    1.74
  -6  -5 -10   15.41    1.27
   6   5  11    5.88    1.14
  -6  -6  14   37.68    2.63
  -6  -6  13    9.30    1.32
  -6  -6  12   14.74    1.62
  -6  -6  11   18.57    1.77
   6   6 -11   21.42    2.00
  -6  -6  10   12.05    1.44
   6   6 -10   10.96    1.40
  -6  -6   9   27.85    2.13
   6   6  -9   28.86    2.19
  -6  -6   8   17.39    1.67
   6   6  -8   18.27    1.69
  -6  -6   7    6.56    1.01
   6   6  -7    5.58    0.92
  -6  -6   6   10.96    1.29
   6   6  -6   10.66    1.19
  -6  -6   5   89.07    3.69
   6   6  -5   83.92    3.34
  -6  -6   4   35.13    2.24
   6   6  -4   34.39    1.99
  -6  -6   3   57.94    2.88
   6   6  -3   55.08    2.49
  -6  -6   2    1.90    0.77
  -6  -6   2    1.12    0.21
   6   6  -2    1.80    0.56
   6   6  -1  702.80   12.78
  -6  -6   1  735.72   14.42
  -6  -6   1  696.30   13.28
   6   6  -1  724.70   13.39
  -6  -6   1  698.19   12.09
   6   6   0  219.16    6.12
   6   6   0  225.53    4.93
  -6  -6   0  221.27    6.21
  -6  -6   0  224.85    5.57
   6   6   0  221.35    5.39
  -6  -6   0  212.73    5.30
  -6  -6   0  223.35    4.80
   6   6   1   45.24    2.47
  -6  -6  -1   42.95    2.11
   6   6   1   49.22    1.72
  -6  -6  -1   42.46    2.39
   6   6   1   48.83    2.04
  -6  -6  -1   38.67    1.83
   6   6   1   43.09    2.03
  -6  -6  -1   44.01    1.81
   6   6   2  179.14    5.45
  -6  -6  -2  177.16    5.37
   6   6   2  186.12    3.95
  -6  -6  -2  175.16    4.38
   6   6   2  174.84    4.60
   6   6   2  180.84    4.46
  -6  -6  -2  172.85    4.49
   6   6   3   36.95    2.25
  -6  -6  -3   41.40    2.34
  -6  -6  -3   40.92    1.72
   6   6   3   39.89    1.82
  -6  -6  -3   38.86    1.92
   6   6   4    3.80    0.82
  -6  -6  -4    4.10    0.84
   6   6   4    4.40    0.61
  -6  -6  -4    4.45    0.58
   6   6   5   30.40    2.11
  -6  -6  -5   26.69    1.90
   6   6   6  118.26    4.43
  -6  -6  -6  110.12    4.03
  -6  -6  -7   19.60    1.58
   6   6   7   19.53    1.82
   6   6   8    1.65    0.71
  -6  -6  -8    3.74    0.74
  -6  -6  -9   27.02    1.84
   6   6   9   29.35    2.31
   6   6  10   31.80    2.46
  -6  -7  13   18.46    1.92
  -6  -7  12    2.48    0.82
  -6  -7  11    4.52    0.97
  -6  -7  10   27.64    2.19
   6   7 -10   29.42    2.33
  -6  -7   9    2.55    0.80
   6   7  -9    0.93    0.65
  -6  -7   8   11.13    1.41
   6   7  -8    9.07    1.25
  -6  -7   7   39.84    2.58
   6   7  -7   40.83    2.51
  -6  -7   6   21.93    1.89
   6   7  -6   20.46    1.74
  -6  -7   5   33.67    2.32
   6   7  -5   32.73    2.12
  -6  -7   4   72.75    3.40
   6   7  -4   64.59    2.94
  -6  -7   3   93.04    3.88
   6   7  -3   84.80    3.34
  -6  -7   2    3.41    0.91
   6   7  -2    3.51    0.76
   6   7  -1   27.84    2.05
   6   7  -1   29.34    1.77
   6   7  -1   27.35    1.39
  -6  -7   1   30.87    1.69
  -6  -7   1   31.88    2.16
   6   7   0  137.85    4.80
  -6  -7   0  133.78    4.04
  -6  -7   0  140.74    4.86
   6   7   0  141.58    4.18
   6   7   1   41.72    2.50
  -6  -7  -1   46.04    2.20
  -6  -7  -1   43.73    2.56
   6   7   1   44.40    2.08
  -6  -7  -1   43.25    2.03
  -6  -7  -1   42.13    1.84
   6   7   2   20.77    1.79
  -6  -7  -2   21.52    1.80
  -6  -7  -2   23.18    1.44
  -6  -7  -2   22.15    1.39
  -6  -7  -3   84.84    3.61
   6   7   3   75.34    3.49
  -6  -7  -4   14.37    1.50
   6   7   4   11.89    1.41
   6   7   5   20.49    1.83
  -6  -7  -5   22.09    1.80
  -6  -7  -6    0.57    0.49
   6   7   6    2.06    0.78
   6   7   7   78.63    3.78
  -6  -7  -7   80.31    3.51
  -6  -7  -8   23.50    1.86
   6   7   8   21.32    1.99
   6   7   9    0.52    0.78
  -6  -7  -9    0.37    0.52
  -6  -8  11    3.54    0.87
  -6  -8  10    1.77    0.77
  -6  -8   9    4.02    0.99
   6   8  -9    4.21    1.02
  -6  -8   8    0.90    0.56
   6   8  -8    0.93    0.74
  -6  -8   7    0.09    0.59
   6   8  -7    0.46    0.71
  -6  -8   6   -0.77    0.74
   6   8  -6   -0.73    0.58
  -6  -8   5    3.06    0.93
   6   8  -5    2.62    0.73
  -6  -8   4   10.91    1.41
   6   8  -4   12.11    1.32
  -6  -8   3    1.98    0.77
   6   8  -3    1.48    0.63
  -6  -8   2   26.29    2.13
   6   8  -2   25.34    1.82
  -6  -8   1    0.69    0.61
   6   8  -1    1.79    0.86
   6   8  -1    1.65    0.60
   6   8   0   47.29    2.77
   6   8   0   46.82    2.35
  -6  -8   0   50.78    2.92
   6   8   1   58.94    3.15
   6   8   1   57.17    2.57
  -6  -8  -1   60.92    3.21
  -6  -8  -2  136.68    5.05
   6   8   2  137.46    5.05
  -6  -8  -3   24.18    1.99
   6   8   3   21.96    1.92
  -6  -8  -4   10.59    1.43
   6   8   4   11.68    1.48
  -6  -8  -5  137.24    5.08
   6   8   5  148.70    5.39
   6   8   6   24.33    2.12
  -6  -8  -6   19.86    1.85
  -6  -8  -7   13.51    1.54
   6   8   7   15.82    1.76
  -6  -8  -8  101.49    4.20
  -6  -8  -9   28.61    2.14
   6   9  -8   14.13    1.69
  -6  -9   7    1.34    0.75
   6   9  -7    0.83    0.68
  -6  -9   6   -0.20    0.61
   6   9  -6   -0.17    0.52
  -6  -9   5    1.27    0.66
   6   9  -5   -0.35    0.63
  -6  -9   4    0.14    0.59
   6   9  -4    0.56    0.51
  -6  -9   3    0.28    0.55
   6   9  -3    0.76    0.56
  -6  -9   2    1.93    0.81
   6   9  -2    3.71    1.06
   6   9  -2    1.84    0.75
  -6  -9   1    2.11    0.80
   6   9  -1    2.35    0.90
   6   9  -1    2.43    0.63
   6   9   0    2.16    0.70
   6   9   0    1.96    0.72
  -6  -9   0    1.89    0.88
  -6  -9  -1    2.43    0.88
   6   9   1    1.33    0.65
  -6  -9  -2   26.43    2.23
   6   9   2   26.73    2.23
  -6  -9  -3    6.46    1.22
   6   9   3    3.46    0.95
  -6  -9  -4    2.37    0.89
   6   9   4    1.68    0.71
   6   9   5   26.94    2.26
  -6  -9  -5   24.93    2.13
  -6  -9  -6   49.13    3.02
  -6  -9  -7   20.70    1.94
  -6  -9  -8    0.49    0.71
  -6  -9  -9    4.01    0.97
   6  10  -6   12.67    1.55
   6  10  -5   12.93    1.61
   6  10  -4    6.11    1.07
   6  10  -3   25.58    2.08
   6  10  -2   12.24    1.48
   6  10  -1    1.79    0.83
   6  10  -1    2.66    0.74
  -6 -10   1    2.74    0.87
   6  10   0   15.31    1.78
  -6 -10   0   16.43    1.85
   6  10   0   14.10    1.48
  -6 -10  -1    5.71    1.17
  -6 -10  -2   -1.41    0.75
  -6 -10  -3    8.35    1.35
  -6 -10  -4   18.58    1.99
   6  11  -4   23.58    2.14
   6  11  -3   14.63    1.74
   6  11  -2   58.95    3.27
   6  11  -1   29.91    2.27
  -7  13  -2    1.74    0.76
   7 -13   3    0.92    0.84
  -7  13  -3    0.22    0.59
   7 -13   4    8.29    1.25
  -7  13  -4    5.55    1.09
   7 -13   5    7.96    1.28
   7 -12  -2   58.82    3.38
   7 -12  -1   -0.14    0.50
  -7  12   1    0.19    0.57
   7 -12   0    0.86    0.64
  -7  12   0    0.47    0.70
   7 -12   1    9.31    1.29
  -7  12  -1    6.46    1.19
  -7  12  -1    8.54    1.23
   7 -12   2   19.68    1.85
  -7  12  -2   18.98    1.92
  -7  12  -2   21.64    1.86
   7 -12   3    4.68    1.02
   7 -12   3    5.76    1.13
  -7  12  -3    5.77    1.06
  -7  12  -3    3.92    0.93
   7 -12   4   12.20    1.45
  -7  12  -4   11.17    1.45
  -7  12  -4   11.64    1.51
   7 -12   5    2.54    0.86
  -7  12  -5    1.67    0.78
  -7  12  -5    0.85    0.68
   7 -12   6    0.54    0.53
  -7  12  -6    0.83    0.60
   7 -11  -6   -0.76    0.80
   7 -11  -5   23.58    2.12
  -7  11   5   23.95    2.15
   7 -11  -4   51.48    3.08
  -7  11   4   49.85    3.04
   7 -11  -3    3.93    1.01
  -7  11   3    3.19    0.98
   7 -11  -2    1.73    0.67
  -7  11   2    0.33    0.58
   7 -11  -1   63.57    3.34
  -7  11   1   65.11    3.43
   7 -11   0   59.68    3.19
  -7  11   0   63.24    3.33
   7 -11   1    1.19    0.74
  -7  11  -1    2.17    0.69
  -7  11  -1    2.06    0.72
   7 -11   2   12.11    1.44
  -7  11  -2   12.16    1.45
  -7  11  -2   10.04    1.35
   7 -11   3   61.75    3.14
  -7  11  -3   62.20    3.22
  -7  11  -3   59.88    3.23
   7 -11   3   65.98    3.42
   7 -11   4    7.41    1.10
  -7  11  -4    9.15    1.28
  -7  11  -4   10.75    1.38
   7 -11   4   10.23    1.37
   7 -11   5   12.65    1.39
  -7  11  -5   11.84    1.47
  -7  11  -5   11.58    1.42
   7 -11   5   17.17    1.76
  -7  11  -6   19.29    1.89
   7 -11   6   18.49    1.63
   7 -11   6   14.56    1.63
  -7  11  -7   63.90    3.56
   7 -10  -8   17.81    1.84
  -7  10   8   18.26    1.88
   7 -10  -8   19.65    1.92
   7 -10  -7    2.86    0.88
  -7  10   7    2.65    0.86
   7 -10  -7    3.86    1.00
   7 -10  -6    0.26    0.56
  -7  10   6    0.50    0.62
   7 -10  -5    7.04    1.22
  -7  10   5    7.56    1.19
   7 -10  -4   10.84    1.43
  -7  10   4   11.35    1.45
   7 -10  -3    4.27    0.96
  -7  10   3    3.90    0.87
   7 -10  -2   17.57    1.68
  -7  10   2   11.52    1.40
   7 -10  -1   16.82    1.62
  -7  10   1   17.59    1.68
   7 -10   0   29.76    2.14
  -7  10   0   33.00    2.28
   7 -10   1   23.96    1.89
  -7  10  -1   20.62    1.81
  -7  10  -1   23.42    1.83
   7 -10   2   75.50    3.38
  -7  10  -2   72.51    3.42
  -7  10  -2   81.10    3.54
   7 -10   3    2.11    0.70
   7 -10   3    1.24    0.67
  -7  10  -3    0.90    0.53
  -7  10  -3    2.19    0.79
   7 -10   4   69.81    3.13
  -7  10  -4   73.88    3.48
  -7  10  -4   64.53    3.20
   7 -10   4   69.25    3.47
   7 -10   5   12.56    1.30
  -7  10  -5   14.30    1.59
  -7  10  -5   13.79    1.51
   7 -10   5   14.30    1.59
  -7  10  -6   14.00    1.59
   7 -10   6   12.81    1.28
   7 -10   6   10.55    1.38
  -7  10  -7   43.37    2.86
   7 -10   7   44.53    2.34
   7 -10   7   42.67    2.77
  -7  10  -8   97.93    4.49
   7 -10   8   97.90    4.36
   7  -9  -9   11.38    1.48
  -7   9   9   13.06    1.57
   7  -9  -9   13.34    1.55
   7  -9  -8   21.74    1.94
  -7   9   8   19.33    1.86
   7  -9  -8   18.88    1.80
   7  -9  -7    7.16    1.18
  -7   9   7   10.61    1.38
   7  -9  -7   10.09    1.36
   7  -9  -6    6.80    1.16
  -7   9   6    6.22    1.12
   7  -9  -6    4.39    0.97
   7  -9  -5    0.71    0.55
  -7   9   5    0.54    0.60
   7  -9  -4   20.00    1.76
  -7   9   4   17.17    1.65
   7  -9  -3   53.00    2.83
  -7   9   3   49.56    2.76
   7  -9  -2   36.03    2.31
  -7   9   2   37.37    2.34
   7  -9  -1    1.20    0.51
  -7   9   1    0.17    0.53
   7  -9   0   29.32    2.02
  -7   9   0   27.17    1.93
  -7   9   0   24.72    1.84
   7  -9   1    1.21    0.62
  -7   9  -1    0.71    0.57
  -7   9  -1    1.32    0.70
   7  -9   2    0.12    0.43
  -7   9  -2    0.35    0.49
  -7   9  -2   -0.15    0.52
   7  -9   3   38.01    2.18
  -7   9  -3   35.25    2.30
  -7   9  -3   36.67    2.24
   7  -9   3   39.74    2.47
   7  -9   4   23.20    1.69
  -7   9  -4   23.49    1.90
  -7   9  -4   24.53    1.84
   7  -9   4   23.56    1.91
   7  -9   5    6.04    0.88
  -7   9  -5    6.01    1.12
  -7   9  -5    6.28    0.96
   7  -9   5    6.23    1.02
  -7   9  -6    5.23    1.03
   7  -9   6    4.25    0.77
   7  -9   6    4.83    0.91
  -7   9  -7   58.02    3.23
   7  -9   7   57.17    2.51
   7  -9   7   53.37    3.04
  -7   9  -8    9.47    1.33
   7  -9   8    7.20    1.23
  -7   9  -9    0.70    0.76
   7  -9   9    1.11    0.65
   7  -9  10    0.68    0.69
  -7   8  11   31.22    2.39
  -7   8  10   18.59    1.84
   7  -8 -10   19.17    1.86
  -7   8   9   11.75    1.47
   7  -8  -9    9.91    1.34
  -7   8   8    9.93    1.33
   7  -8  -8    9.83    1.35
   7  -8  -7   54.51    2.99
  -7   8   7   56.69    3.02
   7  -8  -7   50.58    2.81
   7  -8  -6   23.10    1.91
  -7   8   6   22.02    1.86
   7  -8  -6   25.99    1.97
   7  -8  -5    4.66    0.89
  -7   8   5    5.17    0.92
   7  -8  -5    4.25    0.87
   7  -8  -4   21.14    1.79
  -7   8   4   23.94    1.86
   7  -8  -3   59.47    2.93
  -7   8   3   64.37    3.01
   7  -8  -2   46.80    2.53
  -7   8   2   46.07    2.48
   7  -8  -1   28.76    1.93
  -7   8   1   28.78    1.91
   7  -8   0    0.80    0.44
  -7   8   0    0.31    0.48
  -7   8   0    0.22    0.51
   7  -8   1    6.79    0.96
  -7   8  -1    7.73    1.03
  -7   8  -1    7.40    1.07
   7  -8   2   85.07    3.30
  -7   8  -2   89.41    3.45
  -7   8  -2   88.01    3.55
   7  -8   3   13.07    1.35
   7  -8   3   10.78    1.12
  -7   8  -3   11.99    1.29
  -7   8  -3   11.71    1.21
   7  -8   4    1.26    0.46
  -7   8  -4    0.24    0.57
  -7   8  -4    1.60    0.56
   7  -8   4    1.06    0.54
   7  -8   5   37.60    1.99
  -7   8  -5   38.37    2.40
  -7   8  -5   38.01    2.13
   7  -8   5   38.46    2.37
   7  -8   6   80.31    2.95
  -7   8  -6   76.92    3.58
  -7   8  -6   74.77    3.12
   7  -8   6   82.74    3.62
  -7   8  -7   16.37    1.69
   7  -8   7   15.17    1.59
  -7   8  -8   21.87    1.98
   7  -8   8   22.52    1.93
  -7   8  -9   77.57    3.84
   7  -8   9   74.92    3.65
  -7   8 -10    0.90    0.65
   7  -8  10    1.36    0.76
  -7   7  12   -0.73    0.67
  -7   7  11   21.79    1.99
   7  -7 -11   18.64    1.86
  -7   7  10   17.46    1.78
   7  -7 -10   18.50    1.84
  -7   7   9   59.54    3.19
   7  -7  -9   68.02    3.36
  -7   7   8    0.12    0.56
   7  -7  -8    1.48    0.70
  -7   7   7    7.61    1.14
   7  -7  -7    9.44    1.25
  -7   7   6   26.33    1.92
   7  -7  -6   21.09    1.67
   7  -7  -5  125.21    4.36
  -7   7   5  118.91    4.25
   7  -7  -5  114.91    4.05
   7  -7  -4   59.36    2.86
  -7   7   4   61.71    2.89
   7  -7  -4   64.64    2.78
   7  -7  -3    4.12    0.80
  -7   7   3    3.33    0.78
   7  -7  -2  126.79    4.25
  -7   7   2  129.16    4.26
   7  -7  -1   57.45    2.66
  -7   7   1   55.77    2.61
   7  -7   0   51.13    2.44
  -7   7   0   52.41    2.46
  -7   7   0   47.98    2.43
   7  -7   1   26.12    1.70
  -7   7  -1   23.32    1.72
  -7   7  -1   26.73    1.73
   7  -7   2   43.17    2.15
  -7   7  -2   40.79    2.29
  -7   7  -2   42.24    2.16
   7  -7   2   43.44    2.12
   7  -7   2   40.92    2.29
   7  -7   3   66.87    2.67
  -7   7  -3   65.89    2.99
  -7   7  -3   61.43    2.65
   7  -7   3   65.13    2.62
   7  -7   3   65.07    2.96
   7  -7   4   43.61    2.07
  -7   7  -4   45.12    1.30
  -7   7  -4   45.29    2.17
  -7   7  -4   45.34    2.50
  -7   7  -4   41.10    2.10
   7  -7   4   42.14    2.06
   7  -7   4   44.69    2.44
  -7   7  -5   19.24    1.35
  -7   7  -5   15.98    0.87
  -7   7  -5   17.26    1.55
  -7   7  -5   15.53    1.28
   7  -7   5   15.49    1.23
   7  -7   5   17.54    1.58
  -7   7  -6   37.43    1.87
  -7   7  -6   39.17    2.41
   7  -7   6   38.08    1.96
  -7   7  -6   38.93    2.02
   7  -7   6   33.45    2.21
  -7   7  -7   66.32    3.31
  -7   7  -7   63.46    2.65
   7  -7   7   74.02    3.38
  -7   7  -8    0.39    0.52
   7  -7   8    0.95    0.61
  -7   7  -9   15.06    1.62
   7  -7   9   15.30    1.64
  -7   7 -10  115.96    4.82
  -7   7 -10  108.13    3.72
   7  -7  10  112.33    4.59
  -7   7 -11   23.07    2.18
   7  -7  11   19.80    1.91
  -7   6  12    9.80    1.40
   7  -6 -12    8.36    1.26
  -7   6  11   33.00    2.40
   7  -6 -11   31.73    2.38
  -7   6  10  103.23    4.26
   7  -6 -10  105.50    4.31
  -7   6   9    8.96    1.22
   7  -6  -9   10.48    1.32
  -7   6   8   72.69    3.32
   7  -6  -8   66.23    3.15
   7  -6  -7   62.60    2.00
  -7   6   7   60.94    2.96
   7  -6  -7   59.53    2.86
   7  -6  -6    5.79    0.49
  -7   6   6    6.47    0.96
   7  -6  -6    5.56    0.91
   7  -6  -5   54.55    1.38
  -7   6   5   53.76    2.65
   7  -6  -5   57.54    2.61
  -7   6   4    2.18    0.65
   7  -6  -4    3.30    0.66
  -7   6   3    5.77    0.84
   7  -6  -3    6.57    0.86
  -7   6   2    0.53    0.53
   7  -6  -2   -0.22    0.38
   7  -6  -1    6.11    0.78
  -7   6   1    8.01    0.97
  -7   6   0    4.30    0.80
   7  -6   0    2.30    0.52
  -7   6   0    2.92    0.64
  -7   6  -1    1.12    0.64
  -7   6  -1    0.07    0.39
   7  -6   1    0.39    0.26
  -7   6  -2   55.02    2.38
  -7   6  -2   50.60    2.50
  -7   6  -2   51.74    2.28
   7  -6   2   53.03    2.21
   7  -6   2   52.87    2.52
  -7   6  -3    6.79    0.85
  -7   6  -3    6.87    0.32
  -7   6  -3    6.43    0.96
  -7   6  -3    7.89    0.88
   7  -6   3    7.44    1.02
   7  -6   3    4.82    0.65
  -7   6  -4   13.00    1.08
  -7   6  -4   12.19    0.65
  -7   6  -4   12.49    1.28
  -7   6  -4   12.90    1.09
   7  -6   4   10.85    0.94
   7  -6   4   11.52    1.22
  -7   6  -5   15.30    1.15
  -7   6  -5   14.83    0.85
  -7   6  -5   14.36    1.43
  -7   6  -5   16.38    1.21
   7  -6   5   16.38    1.15
   7  -6   5   17.45    1.49
  -7   6  -6    7.57    0.80
  -7   6  -6    8.01    0.72
  -7   6  -6    7.04    1.05
  -7   6  -6    7.93    0.86
   7  -6   6    6.73    0.78
   7  -6   6    6.15    0.98
  -7   6  -7    5.65    0.69
  -7   6  -7    6.21    1.06
  -7   6  -7    6.28    0.71
  -7   6  -7    6.85    0.81
   7  -6   7    7.13    1.04
   7  -6   7    6.67    0.77
  -7   6  -8   33.79    2.33
  -7   6  -8   34.88    1.75
   7  -6   8   37.90    2.38
  -7   6  -9   19.10    1.80
  -7   6  -9   17.95    1.23
   7  -6   9   16.67    1.64
  -7   6 -10    8.37    1.27
  -7   6 -10    7.06    0.85
   7  -6  10    6.16    1.12
  -7   6 -11   32.48    2.49
   7  -6  11   29.41    2.29
   7  -6  12   38.26    2.69
  -7   5  13   33.19    2.49
   7  -5 -13   40.78    2.79
  -7   5  12   34.00    2.46
   7  -5 -12   25.56    2.16
  -7   5  11    6.15    1.12
   7  -5 -11    6.35    1.08
  -7   5  10    4.51    0.92
   7  -5 -10    3.53    0.96
   7  -5  -9    2.26    0.55
  -7   5   9    2.60    0.78
   7  -5  -9    1.73    0.58
   7  -5  -8  132.98    3.57
  -7   5   8  135.36    4.65
   7  -5  -8  139.49    4.63
   7  -5  -7   34.87    1.45
  -7   5   7   33.83    2.13
   7  -5  -7   30.61    1.97
   7  -5  -6   18.90    0.94
  -7   5   6   16.55    1.46
   7  -5  -6   19.10    1.48
   7  -5  -5   56.34    1.53
  -7   5   5   56.77    2.64
   7  -5  -5   56.53    2.49
   7  -5  -4    0.29    0.10
  -7   5   4   -0.36    0.45
   7  -5  -4   -0.29    0.40
  -7   5   3    7.13    0.92
   7  -5  -3    7.35    0.81
  -7   5   2  110.01    3.57
   7  -5  -2  106.50    3.24
  -7   5   1  151.85    4.34
   7  -5  -1  154.88    3.96
  -7   5   0    4.31    0.71
   7  -5   0    4.25    0.62
  -7   5   0    4.33    0.66
   7  -5   0    4.37    0.56
   7  -5   1    4.98    0.88
  -7   5  -1    7.35    0.84
  -7   5  -1    5.99    0.92
  -7   5  -1    6.24    0.76
   7  -5   1    8.14    0.82
   7  -5   1    4.69    0.55
  -7   5  -2    4.05    0.64
  -7   5  -2    5.00    0.85
  -7   5  -2    4.98    0.68
   7  -5   2    5.24    0.63
   7  -5   2    4.32    0.49
   7  -5   2    4.54    0.76
  -7   5  -3  216.53    3.94
  -7   5  -3  221.01    5.32
  -7   5  -3  211.70    5.79
  -7   5  -3  215.96    5.16
   7  -5   3  206.04    4.88
   7  -5   3  215.22    5.71
  -7   5  -4    5.42    0.69
  -7   5  -4    3.70    0.40
  -7   5  -4    5.02    0.90
  -7   5  -4    3.15    0.55
   7  -5   4    4.53    0.82
   7  -5   4    5.05    0.60
  -7   5  -5   38.75    1.76
  -7   5  -5   38.10    1.47
  -7   5  -5   35.71    2.16
   7  -5   5   37.70    1.63
  -7   5  -5   39.04    1.75
   7  -5   5   39.41    2.21
  -7   5  -6   29.68    1.47
  -7   5  -6   28.64    1.38
  -7   5  -6   28.96    1.98
  -7   5  -6   28.62    1.46
   7  -5   6   29.65    1.43
   7  -5   6   27.26    1.87
   7  -5   6   28.92    0.81
  -7   5  -7    3.29    0.51
  -7   5  -7    3.40    0.56
  -7   5  -7    2.12    0.70
  -7   5  -7    3.48    0.55
   7  -5   7    2.74    0.73
   7  -5   7    2.85    0.49
  -7   5  -8   -0.09    0.32
  -7   5  -8   -0.33    0.67
  -7   5  -8    0.00    0.30
   7  -5   8   -0.19    0.53
  -7   5  -9    0.12    0.60
  -7   5  -9    0.44    0.33
   7  -5   9    0.81    0.63
  -7   5 -10   -0.64    0.70
  -7   5 -10    0.11    0.32
   7  -5  10   -0.44    0.52
  -7   5 -11    0.57    0.54
   7  -5  11    1.74    0.69
  -7   5 -12   -0.78    0.60
   7  -5  12    0.68    0.59
  -7   4  13   15.57    1.71
   7  -4 -13   15.96    1.75
  -7   4  12   10.16    1.38
   7  -4 -12   10.72    1.42
  -7   4  11   39.29    2.55
   7  -4 -11   43.90    2.66
  -7   4  10   42.24    2.54
   7  -4 -10   40.56    2.47
   7  -4  -9    5.97    0.73
  -7   4   9    6.33    1.03
   7  -4  -9    5.65    0.95
   7  -4  -8   24.97    1.37
  -7   4   8   21.46    1.70
   7  -4  -8   22.31    1.69
   7  -4  -7  341.19    6.84
  -7   4   7  341.04    8.15
   7  -4  -7  336.47    7.95
   7  -4  -6   21.34    1.05
  -7   4   6   18.28    1.49
   7  -4  -6   20.81    1.51
   7  -4  -5   19.22    0.89
  -7   4   5   17.63    1.42
   7  -4  -5   17.10    1.31
   7  -4  -4  209.50    3.91
  -7   4   4  198.33    5.38
   7  -4  -4  203.39    5.15
   7  -4  -3  348.74    5.75
  -7   4   3  343.00    7.71
   7  -4  -3  347.84    7.35
   7  -4  -2   21.20    1.41
  -7   4   2   19.95    1.37
   7  -4  -2   20.82    1.23
  -7   4   1   39.34    1.95
  -7   4   1   34.30    1.76
   7  -4  -1   35.44    1.55
  -7   4   0  451.47    9.09
  -7   4   0  423.34    8.71
   7  -4   0  434.46    8.13
   7  -4   0  426.35    8.99
  -7   4  -1   26.36    1.53
  -7   4  -1   27.57    1.73
   7  -4   1   24.98    1.30
  -7   4  -1   28.11    1.48
   7  -4   1   27.65    1.64
   7  -4   1   26.80    1.15
  -7   4  -2    5.42    0.70
  -7   4  -2    5.69    0.82
  -7   4  -2    4.72    0.63
   7  -4   2    5.39    0.45
   7  -4   2    4.97    0.73
   7  -4   2    5.14    0.57
  -7   4  -3    1.09    0.36
  -7   4  -3    0.22    0.47
  -7   4  -3    1.23    0.43
   7  -4   3    1.40    0.54
   7  -4   3    0.61    0.15
   7  -4   3    1.00    0.30
  -7   4  -4  317.26    6.79
  -7   4  -4  315.15    6.12
  -7   4  -4  315.07    7.60
  -7   4  -4  332.08    6.64
   7  -4   4  317.07    6.29
   7  -4   4  323.98    5.35
   7  -4   4  325.97    7.55
  -7   4  -5    0.19    0.23
  -7   4  -5    0.38    0.31
  -7   4  -5   -0.56    0.63
  -7   4  -5    0.19    0.25
   7  -4   5    0.30    0.22
   7  -4   5   -0.09    0.44
  -7   4  -6   18.56    1.09
  -7   4  -6   16.25    1.06
  -7   4  -6   16.98    1.47
  -7   4  -6   16.93    0.99
   7  -4   6   15.59    0.89
   7  -4   6   17.06    1.47
  -7   4  -7   73.20    2.21
  -7   4  -7   69.55    2.52
  -7   4  -7   67.64    3.12
  -7   4  -7   71.23    2.16
   7  -4   7   71.69    2.12
   7  -4   7   74.84    3.21
  -7   4  -8   10.38    0.69
  -7   4  -8    8.22    0.88
  -7   4  -8    8.13    1.15
  -7   4  -8    8.59    0.66
   7  -4   8   10.37    1.24
  -7   4  -9   16.62    1.60
  -7   4  -9   16.57    0.88
   7  -4   9   17.10    1.61
  -7   4 -10   27.88    2.10
   7  -4  10   26.15    2.06
  -7   4 -11    9.43    1.37
   7  -4  11   11.26    1.44
  -7   4 -12    8.14    1.26
   7  -4  12   10.19    1.39
  -7   4 -13    8.80    1.33
  -7   3  14    2.49    0.79
  -7   3  13    0.72    0.75
   7  -3 -13    0.35    0.55
  -7   3  12    0.08    0.57
   7  -3 -12    0.35    0.58
  -7   3  11    0.87    0.65
   7  -3 -11    0.53    0.55
  -7   3  10    0.40    0.56
   7  -3 -10   -0.09    0.50
   7  -3  -9   11.50    1.02
  -7   3   9   16.68    1.56
   7  -3  -9   13.91    1.38
   7  -3  -8   32.15    1.61
  -7   3   8   34.82    2.12
   7  -3  -8   27.87    1.87
  -7   3   7   52.86    2.58
   7  -3  -7   56.27    2.58
  -7   3   6   49.08    2.40
   7  -3  -6   50.28    2.32
  -7   3   5    5.90    0.84
   7  -3  -5    7.42    0.87
  -7   3   4    2.96    0.62
   7  -3  -4    1.82    0.48
   7  -3  -3  117.85    3.66
  -7   3   3  115.55    3.60
   7  -3  -3  120.14    3.38
  -7   3   2  385.14    8.12
   7  -3  -2  366.49    6.36
   7  -3  -2  376.66    7.90
  -7   3   2  370.34    7.83
   7  -3  -2  361.09    7.34
  -7   3   1    0.35    0.49
   7  -3  -1    1.10    0.21
   7  -3  -1    0.40    0.34
   7  -3  -1    2.55    0.62
  -7   3   1    1.29    0.50
   7  -3  -1    1.96    0.56
   7  -3  -1    0.86    0.32
  -7   3   0   69.01    2.58
   7  -3   0   63.08    1.51
   7  -3   0   72.19    2.79
   7  -3   0   67.49    2.38
  -7   3   0   70.00    2.40
   7  -3   0   66.27    2.49
   7  -3   0   65.88    1.97
   7  -3   1  444.39    7.73
  -7   3  -1  463.11    9.17
  -7   3  -1  457.87    9.53
   7  -3   1  468.80    9.61
  -7   3  -1  456.85    8.78
   7  -3   1  458.81    8.05
   7  -3   1  444.67    9.19
   7  -3   2   39.07    1.26
  -7   3  -2   39.05    1.81
  -7   3  -2   41.48    2.09
   7  -3   2   38.56    1.43
  -7   3  -2   35.94    1.57
   7  -3   2   39.29    1.94
   7  -3   2   39.41    1.15
  -7   3  -3   18.62    1.18
  -7   3  -3   18.30    1.40
   7  -3   3   15.88    0.83
  -7   3  -3   16.67    1.01
   7  -3   3   15.54    1.23
   7  -3   3   16.39    0.48
  -7   3  -4  207.71    4.82
  -7   3  -4  199.81    4.42
  -7   3  -4  204.06    5.51
   7  -3   4  204.27    4.09
  -7   3  -4  209.36    4.47
   7  -3   4  202.95    5.41
  -7   3  -5  185.88    4.35
  -7   3  -5  182.08    4.30
  -7   3  -5  177.88    5.18
   7  -3   5  187.10    3.70
  -7   3  -5  188.22    4.04
   7  -3   5  175.45    5.07
  -7   3  -6   65.65    2.35
  -7   3  -6   67.76    2.16
  -7   3  -6   66.86    2.93
   7  -3   6   65.80    1.71
  -7   3  -6   67.07    1.92
   7  -3   6   68.92    2.94
  -7   3  -7    1.77    0.43
  -7   3  -7    3.23    0.42
  -7   3  -7    2.22    0.63
  -7   3  -7    2.63    0.33
   7  -3   7    3.22    0.71
  -7   3  -8   58.16    1.71
  -7   3  -8   56.44    2.41
  -7   3  -8   58.02    2.86
  -7   3  -8   59.42    1.68
  -7   3  -8   59.35    1.52
   7  -3   8   56.91    2.84
  -7   3  -9    7.76    1.10
   7  -3   9    7.71    1.61
  -7   3 -10   11.25    1.40
   7  -3  10   11.56    1.38
  -7   3 -11   34.58    2.40
   7  -3  11   36.81    2.49
  -7   3 -12   24.28    2.10
   7  -3  12   23.55    2.10
  -7   3 -13    3.76    0.93
   7  -3  13    3.05    0.90
  -7   2  14    2.02    0.85
  -7   2  13    0.04    0.56
   7  -2 -13    0.19    0.55
  -7   2  12    1.61    0.70
   7  -2 -12    1.76    0.73
  -7   2  11   -0.14    0.54
   7  -2 -11    0.04    0.52
  -7   2  10   13.34    1.42
   7  -2 -10   14.39    1.47
  -7   2   9    0.23    0.48
   7  -2  -9    0.06    0.49
  -7   2   8   -0.01    0.46
   7  -2  -8    0.44    0.45
  -7   2   7   17.54    1.45
   7  -2  -7   17.37    1.38
  -7   2   6   10.98    1.13
   7  -2  -6   13.13    1.15
  -7   2   5    5.81    0.83
   7  -2  -5    5.12    0.72
   7  -2  -4   11.77    1.07
  -7   2   4   10.14    1.00
   7  -2  -4   10.09    0.91
  -7   2   3   57.11    2.42
   7  -2  -3   55.54    2.29
  -7   2   3   53.01    2.25
   7  -2  -3   50.71    2.01
  -7   2   2    7.40    0.85
   7  -2  -2    8.55    0.94
   7  -2  -2    9.71    0.89
  -7   2   2    8.78    0.85
   7  -2  -2    9.69    0.86
   7  -2  -2    9.98    0.80
  -7   2   1  123.58    3.73
   7  -2  -1  124.28    2.79
   7  -2  -1  125.93    3.85
   7  -2  -1  121.59    3.49
  -7   2   1  120.71    3.43
   7  -2  -1  116.82    3.38
   7  -2  -1  123.23    3.09
  -7   2   0   22.93    1.40
   7  -2   0   20.83    0.92
   7  -2   0   22.70    1.48
   7  -2   0   24.12    1.32
  -7   2   0   21.52    1.24
   7  -2   0   21.17    1.30
   7  -2   0   22.20    1.01
  -7   2  -1   39.34    1.82
   7  -2   1   39.80    1.36
   7  -2   1   40.81    2.01
   7  -2   1   35.98    1.58
  -7   2  -1   40.26    1.63
   7  -2   1   35.91    1.78
   7  -2   1   38.20    1.23
  -7   2  -2   67.98    2.40
   7  -2   2   65.90    1.93
  -7   2  -2   63.58    2.60
   7  -2   2   64.89    2.62
   7  -2   2   59.88    1.70
  -7   2  -2   64.96    2.07
   7  -2   2   63.80    2.46
  -7   2  -3   97.50    2.94
   7  -2   3  102.24    2.66
  -7   2  -3   92.39    3.29
   7  -2   3   95.46    3.35
   7  -2   3   95.84    2.13
  -7   2  -3   95.13    2.56
   7  -2   3   94.76    3.20
  -7   2  -4   21.04    1.14
  -7   2  -4   17.41    1.10
   7  -2   4   20.14    1.11
  -7   2  -4   17.89    1.39
   7  -2   4   19.16    0.62
  -7   2  -4   17.99    0.90
   7  -2   4   16.78    1.29
  -7   2  -5    3.73    0.51
   7  -2   5    4.75    0.60
  -7   2  -5    4.05    0.57
  -7   2  -5    4.74    0.75
  -7   2  -5    4.51    0.42
   7  -2   5    3.31    0.68
   7  -2   6  262.19    5.98
  -7   2  -6  266.75    5.54
  -7   2  -6  256.53    5.98
  -7   2  -6  264.00    6.66
  -7   2  -6  273.42    4.80
   7  -2   6  256.25    6.63
  -7   2  -7   66.07    2.93
  -7   2  -7   70.82    2.09
  -7   2  -7   73.31    2.12
  -7   2  -7   69.74    2.65
   7  -2   7   73.94    3.14
  -7   2  -8   55.27    2.73
  -7   2  -8   58.57    1.69
  -7   2  -8   59.12    1.71
   7  -2   8   53.68    2.73
  -7   2  -9    2.31    0.67
   7  -2   9    2.55    0.75
  -7   2 -10  307.60    8.02
   7  -2  10  310.91    8.25
  -7   2 -11    4.78    0.95
   7  -2  11    4.64    1.02
  -7   2 -12    1.26    0.70
   7  -2  12   -0.37    0.73
  -7   2 -13   21.12    2.01
   7  -2  13   24.56    2.22
  -7   2 -14   28.79    2.35
  -7   1  14   29.77    2.35
  -7   1  13    9.57    1.38
   7  -1 -13   11.95    1.48
  -7   1  12   18.20    1.76
   7  -1 -12   18.78    1.76
  -7   1  11    6.02    1.05
   7  -1 -11    7.84    1.15
  -7   1  10    5.32    0.95
   7  -1 -10    4.14    0.85
  -7   1   9    1.02    0.60
   7  -1  -9    0.21    0.50
  -7   1   8   78.23    3.28
   7  -1  -8   80.51    3.20
  -7   1   7    0.52    0.50
   7  -1  -7    0.38    0.41
  -7   1   6    0.02    0.44
   7  -1  -6   -0.13    0.42
  -7   1   5   -0.12    0.45
   7  -1  -5    0.71    0.39
  -7   1   5   -0.08    0.39
  -7   1   4    0.11    0.38
   7  -1  -4    0.32    0.36
   7  -1  -4    0.05    0.32
  -7   1   4    0.85    0.37
   7  -1  -3    6.65    0.67
   7  -1  -3    8.41    0.96
  -7   1   3    5.52    0.73
   7  -1  -3    5.83    0.76
   7  -1  -3    5.91    0.67
  -7   1   3    7.22    0.75
   7  -1  -2    0.52    0.37
  -7   1   2    1.18    0.42
   7  -1  -2    0.57    0.36
   7  -1  -2    0.81    0.28
  -7   1   2    0.70    0.35
   7  -1  -2    1.48    0.40
   7  -1  -1    7.21    0.63
   7  -1  -1    7.61    0.85
  -7   1   1    6.95    0.74
   7  -1  -1    7.60    0.75
   7  -1  -1    7.56    0.74
  -7   1   1    6.68    0.62
   7  -1  -1    7.20    0.63
   7  -1   0   10.97    0.76
   7  -1   0   11.82    1.06
   7  -1   0   12.05    0.89
  -7   1   0    9.79    0.82
   7  -1   0    9.84    0.85
   7  -1   1    0.86    0.32
   7  -1   1    1.51    0.42
  -7   1  -1    1.81    0.40
   7  -1   1    1.26    0.33
   7  -1   1    0.76    0.38
   7  -1   2   27.28    1.28
  -7   1  -2   29.30    1.67
   7  -1   2   29.03    1.66
   7  -1   2   27.22    1.22
  -7   1  -2   29.29    1.26
   7  -1   2   28.33    0.90
   7  -1   2   27.08    1.50
   7  -1   3   14.83    0.98
  -7   1  -3   13.16    1.17
   7  -1   3   14.95    1.19
  -7   1  -3   15.30    0.83
   7  -1   3   14.78    1.15
   7  -1   4    3.24    0.54
  -7   1  -4    5.35    0.73
   7  -1   4    5.78    0.78
  -7   1  -4    4.63    0.74
  -7   1  -4    4.25    0.39
   7  -1   4    5.35    0.82
   7  -1   5    4.11    0.60
  -7   1  -5    5.58    0.70
  -7   1  -5    4.79    0.59
  -7   1  -5    7.13    0.89
  -7   1  -5    5.34    0.63
  -7   1  -5    5.04    0.34
   7  -1   5    5.32    0.81
  -7   1  -6   37.99    2.06
  -7   1  -6   39.93    1.59
  -7   1  -6   38.20    1.56
   7  -1   6   37.22    1.84
  -7   1  -6   37.71    1.86
   7  -1   6   40.70    2.18
  -7   1  -7    9.72    1.10
  -7   1  -7   10.61    0.75
   7  -1   7   10.51    1.03
  -7   1  -7   10.47    1.05
  -7   1  -7   10.36    0.75
   7  -1   7   11.29    1.23
  -7   1  -8    2.79    0.74
  -7   1  -8    2.30    0.37
   7  -1   8    1.35    0.48
  -7   1  -8    2.22    0.36
   7  -1   8    2.69    0.71
  -7   1  -9   28.09    1.92
  -7   1  -9   30.63    1.03
   7  -1   9   27.46    2.03
  -7   1 -10   19.24    1.64
   7  -1  10   15.54    1.61
  -7   1 -11    9.80    1.24
   7  -1  11   10.34    1.38
  -7   1 -12    5.56    1.08
   7  -1  12    5.11    0.98
  -7   1 -13    6.15    1.08
  -7   1 -14    7.24    1.20
  -7   0  14    0.97    0.75
   7   0 -13  151.97    5.58
  -7   0  13  152.42    5.55
   7   0 -13  148.59    5.49
  -7   0  12   73.08    3.60
   7   0 -12   76.41    3.66
   7   0 -12   81.17    3.74
  -7   0  11    1.40    0.62
   7   0 -11    1.50    0.58
  -7   0  10   11.91    1.35
   7   0 -10   13.63    1.44
  -7   0   9  150.15    4.92
   7   0  -9  148.09    4.79
  -7   0   8   50.26    2.56
   7   0  -8   50.50    2.51
  -7   0   7   25.66    1.75
   7   0  -7   25.81    1.69
  -7   0   6  120.60    3.97
   7   0  -6  124.93    3.89
  -7   0   5   79.46    3.01
  -7   0   5   83.31    2.95
   7   0  -5   80.11    2.26
   7   0  -5   79.22    2.86
  -7   0   4   15.34    1.24
   7   0  -4   17.22    1.30
  -7   0   4   17.41    1.21
   7   0  -4   17.39    1.21
   7   0  -4   16.78    0.92
   7   0  -3   40.42    2.02
  -7   0   3   36.92    1.83
   7   0  -3   35.86    1.79
  -7   0   3   36.16    1.69
   7   0  -3   36.41    1.43
   7   0  -3   34.34    1.64
   7   0  -2  225.35    5.67
  -7   0   2  218.69    5.30
   7   0  -2  229.12    5.38
  -7   0   2  231.80    5.13
   7   0  -2  231.84    4.90
   7   0  -1   64.68    2.18
   7   0  -1   68.11    2.61
  -7   0   1   64.35    2.30
   7   0  -1   63.33    2.31
  -7   0   1   66.08    2.12
   7   0  -1   64.16    2.13
   7   0   0   75.41    2.42
   7   0   0   81.78    2.88
   7   0   0   78.20    2.11
  -7   0   0   78.57    2.47
   7   0   0   79.24    2.49
  -7   0   0   80.60    2.25
   7   0   0   79.48    2.50
   7   0   1   87.01    2.64
   7   0   1   85.67    2.99
   7   0   1   87.91    2.54
   7   0   1   87.86    2.06
  -7   0  -1   89.27    2.54
  -7   0  -1   85.94    2.22
   7   0   1   89.01    2.77
   7   0   2   90.17    2.73
   7   0   2   89.61    3.04
   7   0   2   83.11    2.35
   7   0   2   86.98    1.73
  -7   0  -2   85.85    2.37
   7   0   2   85.92    2.83
  -7   0  -2   86.58    2.02
   7   0   3   50.79    2.02
  -7   0  -3   53.70    2.11
  -7   0  -3   53.13    2.27
   7   0   3   53.98    2.30
   7   0   3   52.71    1.61
  -7   0  -3   52.31    1.60
  -7   0  -3   51.76    2.19
   7   0   3   53.46    2.21
  -7   0  -4   22.19    1.28
  -7   0  -4   18.38    1.32
   7   0   4   19.77    1.39
   7   0   4   20.83    1.29
   7   0   4   19.61    1.41
  -7   0  -4   17.57    1.30
  -7   0  -5   28.47    1.67
  -7   0  -5   27.90    1.41
  -7   0  -5   25.71    1.52
   7   0   5   29.49    1.60
   7   0   5   25.98    1.68
  -7   0  -6   21.24    1.48
  -7   0  -6   21.78    1.21
   7   0   6   21.92    1.45
  -7   0  -6   22.39    1.48
   7   0   6   23.40    1.63
  -7   0  -7   62.11    2.68
  -7   0  -7   66.45    2.15
   7   0   7   59.67    2.60
   7   0   7   60.86    2.81
  -7   0  -8    3.87    0.75
  -7   0  -8    3.92    0.49
   7   0   8    4.61    0.77
  -7   0  -8    4.19    0.49
   7   0   8    4.84    0.90
  -7   0  -9    7.91    0.99
   7   0   9    8.94    1.11
  -7   0  -9    8.71    0.62
   7   0   9    9.44    1.21
  -7   0 -10   28.57    1.94
   7   0  10   27.40    2.10
  -7   0 -11    1.65    0.64
   7   0  11    1.71    0.73
  -7   0 -12    2.84    0.83
  -7   0 -13    2.39    0.81
  -7   0 -14   26.76    2.19
  -7   0 -15   -0.61    0.56
  -7  -1  15   68.14    3.40
  -7  -1  14   10.29    1.35
  -7  -1  13    7.71    1.24
   7   1 -13    5.53    1.14
   7   1 -13    5.55    1.12
  -7  -1  12   14.79    1.61
   7   1 -12   17.18    1.72
   7   1 -12   12.78    1.51
   7   1 -11  120.82    4.63
  -7  -1  11  118.38    4.61
   7   1 -11  121.35    4.62
  -7  -1  10    6.81    1.14
   7   1 -10    5.60    1.01
   7   1 -10    5.60    0.92
  -7  -1   9   11.21    1.30
   7   1  -9   12.79    1.36
   7   1  -9   12.35    0.70
   7   1  -9   12.03    1.33
   7   1  -8  124.87    4.24
  -7  -1   8  128.18    4.40
   7   1  -8  132.92    4.36
   7   1  -7  140.86    4.39
  -7  -1   7  143.38    4.57
   7   1  -7  143.35    3.02
   7   1  -7  142.86    4.45
  -7  -1   6    1.08    0.55
   7   1  -6    1.17    0.25
   7   1  -6    0.60    0.50
  -7  -1   5    3.46    0.71
   7   1  -5    4.77    0.43
  -7  -1   5    2.72    0.55
   7   1  -5    4.98    0.75
   7   1  -4   90.44    2.96
  -7  -1   4   87.48    3.13
   7   1  -4   97.77    3.29
  -7  -1   4   92.01    3.07
   7   1  -4   90.92    2.26
  -7  -1   3   10.36    0.99
   7   1  -3   10.15    0.99
   7   1  -3    9.72    0.84
  -7  -1   3   10.46    0.92
   7   1  -3   10.69    0.68
   7   1  -2   55.38    2.37
   7   1  -2   56.94    2.00
  -7  -1   2   53.97    2.20
   7   1  -2   56.80    2.26
  -7  -1   2   55.25    2.09
   7   1  -2   56.40    1.80
   7   1  -1  113.53    3.31
   7   1  -1  110.29    3.52
   7   1  -1  121.85    2.99
  -7  -1   1  113.69    3.29
   7   1  -1  117.14    3.34
  -7  -1   1  114.84    3.13
   7   1  -1  115.42    2.99
   7   1   0   56.76    2.18
  -7  -1   0   58.99    2.41
   7   1   0   61.04    2.41
  -7  -1   0   60.17    2.12
   7   1   0   59.95    1.78
   7   1   0   54.48    2.03
  -7  -1   0   59.26    1.95
   7   1   0   58.60    2.04
   7   1   1   61.82    2.29
  -7  -1  -1   58.94    2.38
   7   1   1   61.28    2.40
   7   1   1   59.03    1.59
  -7  -1  -1   61.34    2.04
   7   1   1   58.96    2.01
  -7  -1  -1   59.35    1.85
   7   1   1   61.41    2.19
   7   1   2  121.42    3.52
  -7  -1  -2  122.81    3.63
   7   1   2  121.44    3.64
   7   1   2  126.06    2.31
   7   1   2  117.80    2.99
  -7  -1  -2  122.18    2.82
   7   1   2  123.97    3.51
  -7  -1  -2  118.20    3.45
   7   1   3   47.01    2.07
   7   1   3   51.58    2.19
  -7  -1  -3   52.00    2.13
   7   1   3   50.28    1.57
  -7  -1  -3   49.06    1.40
  -7  -1  -3   46.33    2.07
   7   1   3   51.48    2.17
   7   1   4   32.87    1.75
  -7  -1  -4   33.65    1.76
   7   1   4   33.94    1.78
  -7  -1  -4   36.49    1.73
   7   1   4   33.77    1.07
  -7  -1  -4   34.30    0.97
  -7  -1  -4   35.35    1.84
   7   1   4   36.10    1.87
  -7  -1  -5  116.19    3.59
  -7  -1  -5  113.37    3.32
   7   1   5  111.38    3.59
   7   1   5  111.11    3.69
  -7  -1  -6   53.29    2.33
  -7  -1  -6   49.84    2.00
   7   1   6   47.00    2.27
   7   1   6   49.58    2.43
  -7  -1  -7   28.16    1.72
  -7  -1  -7   29.11    1.45
   7   1   7   29.01    1.82
   7   1   7   28.34    1.88
  -7  -1  -8  135.35    4.27
  -7  -1  -8  144.59    3.62
   7   1   8  132.09    4.42
   7   1   8  139.68    4.71
  -7  -1  -9   17.02    1.40
   7   1   9   18.86    1.62
  -7  -1  -9   19.10    1.05
   7   1   9   17.63    1.63
  -7  -1 -10   21.61    1.63
   7   1  10   23.76    1.87
  -7  -1 -11   24.04    1.81
   7   1  11   20.66    1.82
  -7  -1 -12   59.94    3.04
  -7  -1 -13    0.86    0.52
  -7  -1 -14   24.77    2.03
  -7  -2  15    2.56    0.86
  -7  -2  14    2.24    0.75
  -7  -2  13   -0.30    0.54
   7   2 -13    0.98    0.69
  -7  -2  12    1.51    0.66
   7   2 -12    2.14    0.78
  -7  -2  11   36.81    2.33
   7   2 -11   35.05    2.40
  -7  -2  11   36.60    2.50
  -7  -2  10    0.37    0.45
  -7  -2  10    0.58    0.67
   7   2 -10    0.65    0.57
  -7  -2   9   -0.12    0.47
  -7  -2   9   -0.54    0.65
   7   2  -9    0.38    0.54
  -7  -2   8   -0.44    0.50
  -7  -2   8    0.41    0.47
   7   2  -8   -0.61    0.49
  -7  -2   7    3.12    0.73
  -7  -2   7    2.40    0.69
   7   2  -7    2.79    0.67
  -7  -2   6   16.15    1.41
   7   2  -6   17.47    1.37
  -7  -2   6   16.24    1.41
  -7  -2   5    0.76    0.53
  -7  -2   5    0.31    0.44
   7   2  -5    0.67    0.12
   7   2  -5    0.19    0.38
  -7  -2   4    8.51    1.01
  -7  -2   4    9.12    1.00
  -7  -2   4    8.70    0.94
   7   2  -4    8.47    0.86
   7   2  -4    9.32    0.49
  -7  -2   3   25.57    1.69
  -7  -2   3   24.14    1.53
   7   2  -3   26.89    1.60
   7   2  -3   25.81    1.43
  -7  -2   3   25.61    1.50
   7   2  -3   25.67    0.98
  -7  -2   2   15.86    1.30
   7   2  -2   17.31    1.28
  -7  -2   2   16.88    1.20
   7   2  -2   15.85    1.04
   7   2  -2   16.67    1.19
   7   2  -2   16.65    0.86
  -7  -2   2   17.32    1.18
  -7  -2   1    8.23    0.98
   7   2  -1    8.16    0.86
   7   2  -1    7.13    0.66
   7   2  -1    7.30    0.80
   7   2  -1    6.08    0.58
  -7  -2   1    8.32    0.80
   7   2   0   18.06    1.28
   7   2   0   18.85    1.26
  -7  -2   0   18.52    1.36
   7   2   0   18.21    0.94
   7   2   0   16.18    1.07
   7   2   0   17.21    1.03
  -7  -2   0   17.42    1.07
   7   2   1   74.84    2.73
   7   2   1   74.27    2.64
  -7  -2  -1   72.59    2.77
   7   2   1   72.02    1.92
   7   2   1   70.65    2.30
  -7  -2  -1   71.47    2.38
   7   2   1   75.90    2.44
  -7  -2  -1   73.05    2.25
   7   2   2    7.03    0.83
  -7  -2  -2    6.76    0.86
   7   2   2    5.58    0.68
   7   2   2    7.10    0.41
   7   2   2    7.87    0.66
   7   2   2    7.60    0.80
  -7  -2  -2    6.88    0.75
  -7  -2  -2    6.64    0.61
   7   2   3   21.71    1.47
   7   2   3   22.16    1.37
  -7  -2  -3   23.03    1.45
   7   2   3   21.34    1.00
  -7  -2  -3   23.67    1.41
   7   2   3   23.32    1.42
  -7  -2  -3   21.93    1.01
   7   2   4    1.01    0.46
  -7  -2  -4    1.24    0.49
   7   2   4    0.45    0.33
   7   2   4    0.65    0.19
   7   2   4    1.13    0.56
  -7  -2  -4    0.79    0.24
  -7  -2  -4    1.31    0.43
  -7  -2  -5   38.84    1.88
  -7  -2  -5   38.75    1.86
   7   2   5   39.55    2.09
   7   2   5   37.93    2.04
  -7  -2  -5   36.85    1.22
  -7  -2  -6   39.90    1.93
  -7  -2  -6   38.43    1.85
   7   2   6   37.81    2.09
   7   2   6   40.25    2.18
  -7  -2  -7   23.03    1.49
  -7  -2  -7   22.04    1.35
   7   2   7   22.11    1.68
  -7  -2  -7   23.61    0.82
  -7  -2  -8   18.06    1.35
  -7  -2  -8   18.44    1.21
   7   2   8   18.44    1.58
  -7  -2  -9   15.23    1.28
  -7  -2  -9   16.26    1.08
   7   2   9   16.74    1.55
  -7  -2 -10    8.11    0.99
   7   2  10    7.83    1.17
  -7  -2 -11    9.75    1.09
   7   2  11   13.74    1.53
  -7  -2 -12   26.07    1.88
   7   2  12   23.19    2.07
  -7  -2 -13   27.68    2.00
  -7  -3  15    4.59    1.06
  -7  -3  14   11.99    1.51
  -7  -3  13   15.53    1.65
  -7  -3  12    0.67    0.67
   7   3 -12    0.25    0.63
  -7  -3  11   32.71    2.27
   7   3 -11   36.11    2.46
  -7  -3  10   64.05    3.14
   7   3 -10   65.52    3.25
  -7  -3   9    1.01    0.55
   7   3  -9    1.38    0.67
  -7  -3   8    6.81    1.04
   7   3  -8    6.23    1.00
  -7  -3   7   50.84    2.62
   7   3  -7   48.60    2.47
  -7  -3   6   54.34    2.70
   7   3  -6   57.14    2.57
  -7  -3   5    0.45    0.44
   7   3  -5    0.41    0.45
  -7  -3   4    0.28    0.48
   7   3  -4    0.31    0.36
  -7  -3   3   53.72    2.56
   7   3  -3   55.07    2.22
  -7  -3   3   56.70    2.39
   7   3  -2   12.36    1.08
  -7  -3   2   14.28    1.29
   7   3  -2   14.46    1.04
   7   3  -2   14.08    1.14
  -7  -3   2   13.64    1.09
   7   3  -1   63.25    2.46
  -7  -3   1   56.30    2.59
   7   3  -1   64.15    2.43
   7   3  -1   61.78    2.13
  -7  -3   1   62.50    2.35
   7   3   0   21.30    1.49
   7   3   0   21.99    1.38
  -7  -3   0   23.68    1.61
   7   3   0   23.01    1.14
   7   3   0   20.24    1.26
  -7  -3   0   21.46    1.12
  -7  -3   0   22.55    1.30
   7   3   1    1.04    0.53
   7   3   1    1.63    0.43
  -7  -3  -1    1.40    0.50
   7   3   1    1.40    0.39
  -7  -3  -1    1.99    0.41
  -7  -3  -1    1.22    0.38
   7   3   1    1.99    0.35
   7   3   2   20.41    1.46
   7   3   2   21.75    1.31
  -7  -3  -2   22.30    1.52
   7   3   2   20.71    0.88
   7   3   2   19.27    1.09
  -7  -3  -2   19.54    1.24
  -7  -3  -2   20.69    1.15
   7   3   3    0.86    0.53
  -7  -3  -3    0.64    0.35
   7   3   3    0.83    0.39
   7   3   3    1.33    0.30
  -7  -3  -3    0.53    0.39
  -7  -3  -3    0.87    0.28
   7   3   4    0.55    0.48
   7   3   4    0.46    0.35
  -7  -3  -4    0.08    0.41
   7   3   4    0.66    0.22
  -7  -3  -4    0.36    0.38
   7   3   5    4.02    0.82
   7   3   5    4.19    0.33
  -7  -3  -5    3.95    0.72
  -7  -3  -6   65.56    2.48
  -7  -3  -6   69.74    2.70
   7   3   6   65.85    2.96
  -7  -3  -7    2.44    0.54
  -7  -3  -7    1.53    0.45
   7   3   7    3.41    0.78
  -7  -3  -8    0.25    0.38
  -7  -3  -8   -0.03    0.32
   7   3   8    0.90    0.60
  -7  -3  -9   19.93    1.42
  -7  -3  -9   23.52    1.42
   7   3   9   20.73    1.79
  -7  -3 -10    0.86    0.37
   7   3  10   -0.10    0.57
  -7  -3 -11   -0.08    0.39
   7   3  11    0.19    0.61
   7   3  12   11.62    1.53
  -7  -4  14   41.32    2.72
  -7  -4  13   19.20    1.85
  -7  -4  12   13.61    1.55
   7   4 -12   14.40    1.67
  -7  -4  11   50.62    2.89
   7   4 -11   50.98    2.99
  -7  -4  10   21.36    1.84
   7   4 -10   22.43    1.93
  -7  -4   9   20.66    1.80
   7   4  -9   17.96    1.67
  -7  -4   8   24.87    1.91
   7   4  -8   24.81    1.89
  -7  -4   7    1.06    0.66
   7   4  -7    0.01    0.43
  -7  -4   6   97.03    3.82
   7   4  -6   95.15    3.55
  -7  -4   5   61.72    2.93
   7   4  -5   56.18    2.55
  -7  -4   4   22.28    1.72
   7   4  -4   20.96    1.47
  -7  -4   3   45.29    2.42
   7   4  -3   45.26    2.07
   7   4  -2   37.98    1.91
  -7  -4   2   38.54    2.21
   7   4  -2   38.85    1.81
   7   4  -1  197.53    5.56
   7   4  -1  208.27    5.19
  -7  -4   1  220.84    5.91
   7   4  -1  221.20    5.02
   7   4  -1  204.74    5.27
  -7  -4   1  206.22    5.26
   7   4   0    9.16    1.06
   7   4   0    6.25    0.74
  -7  -4   0    7.05    0.96
   7   4   0    7.24    0.79
  -7  -4   0    7.20    0.82
   7   4   0    7.77    0.72
  -7  -4   0    6.83    0.64
   7   4   1    1.53    0.65
  -7  -4  -1    1.62    0.59
   7   4   1    1.27    0.42
   7   4   1    1.58    0.45
  -7  -4  -1    0.91    0.41
  -7  -4  -1    0.79    0.34
   7   4   1    2.18    0.39
   7   4   2   88.70    3.41
   7   4   2   91.08    2.87
  -7  -4  -2   95.36    3.48
   7   4   2   92.88    2.45
   7   4   2   90.67    2.78
  -7  -4  -2   92.89    2.96
   7   4   3   28.97    1.88
  -7  -4  -3   30.13    1.87
   7   4   3   29.96    1.51
   7   4   3   27.75    1.33
  -7  -4  -3   30.18    1.65
   7   4   4    1.03    0.58
   7   4   4    0.37    0.25
   7   4   4    0.62    0.33
  -7  -4  -4    0.70    0.46
  -7  -4  -5   44.54    2.28
   7   4   5   42.03    2.39
  -7  -4  -6   18.43    1.43
   7   4   6   17.69    1.57
  -7  -4  -7    2.06    0.58
   7   4   7    1.75    0.67
  -7  -4  -8   18.39    1.24
   7   4   8   18.40    1.71
  -7  -4  -8   20.40    1.50
  -7  -4  -9   20.54    1.36
   7   4   9   20.69    1.87
  -7  -4  -9   21.42    1.48
   7   4  10    0.97    0.66
   7   4  11   31.74    2.49
  -7  -5  13   46.90    2.94
  -7  -5  12    6.95    1.18
  -7  -5  11   13.88    1.61
   7   5 -11   13.79    1.59
  -7  -5  10   37.96    2.53
   7   5 -10   40.17    2.64
  -7  -5   9   15.62    1.62
   7   5  -9   14.27    1.57
  -7  -5   8    5.97    1.07
   7   5  -8    6.44    1.04
  -7  -5   7   45.53    2.66
   7   5  -7   41.71    2.41
  -7  -5   6   46.94    2.66
   7   5  -6   46.33    2.45
  -7  -5   5   64.89    3.14
   7   5  -5   65.40    2.86
  -7  -5   4   31.64    2.11
   7   5  -4   31.92    1.87
  -7  -5   3    0.84    0.65
   7   5  -3    1.71    0.52
   7   5  -2   45.25    2.09
  -7  -5   2   44.66    2.48
   7   5  -2   44.26    2.06
   7   5  -1   14.76    1.42
  -7  -5   1   12.59    1.32
   7   5  -1   13.77    1.10
   7   5  -1   14.21    1.10
  -7  -5   1   14.84    0.81
   7   5   0  103.59    3.88
   7   5   0  103.17    3.18
  -7  -5   0  107.79    3.97
   7   5   0  108.70    3.20
   7   5   0  108.21    3.47
  -7  -5   0  106.59    2.87
   7   5   1    3.19    0.74
   7   5   1    1.97    0.41
  -7  -5  -1    1.63    0.58
   7   5   1    1.84    0.46
  -7  -5  -1    2.77    0.50
   7   5   1    2.79    0.48
   7   5   2   14.63    1.41
   7   5   2   15.21    1.04
  -7  -5  -2   14.41    1.38
   7   5   2   13.19    1.03
   7   5   2   14.39    0.94
  -7  -5  -2   14.65    1.09
   7   5   3   31.80    2.09
  -7  -5  -3   33.05    2.06
   7   5   3   36.89    1.61
   7   5   3   34.03    1.59
  -7  -5  -3   31.72    1.72
  -7  -5  -4   49.08    2.51
   7   5   4   49.60    2.66
  -7  -5  -5    3.43    0.70
   7   5   5    3.66    0.85
   7   5   6   26.30    2.01
  -7  -5  -6   26.31    1.82
  -7  -5  -7   57.88    2.74
   7   5   7   61.52    3.18
  -7  -5  -8   13.89    1.29
   7   5   8   11.84    1.44
  -7  -5  -9   67.93    2.89
   7   5   9   60.23    3.36
   7   5  10    4.45    1.05
  -7  -6  12   16.53    1.78
  -7  -6  11   12.18    1.57
  -7  -6  10    3.32    0.93
   7   6 -10    5.51    1.02
  -7  -6   9    1.72    0.67
   7   6  -9    0.52    0.61
  -7  -6   8    5.18    1.01
   7   6  -8    4.79    1.00
  -7  -6   7   -0.02    0.62
   7   6  -7    0.34    0.54
  -7  -6   6    1.06    0.71
   7   6  -6    1.77    0.72
  -7  -6   5    3.93    0.95
   7   6  -5    2.13    0.59
  -7  -6   4    3.28    0.80
   7   6  -4    2.26    0.55
  -7  -6   3    3.42    0.88
   7   6  -3    4.50    0.78
   7   6  -2    4.27    0.64
  -7  -6   2    5.02    0.96
   7   6  -2    4.23    0.69
  -7  -6   1   -0.23    0.50
   7   6  -1    0.69    0.41
   7   6  -1    0.98    0.69
   7   6  -1    0.07    0.32
   7   6   0   73.32    3.33
   7   6   0   76.46    2.58
  -7  -6   0   76.12    3.43
   7   6   0   75.33    2.75
   7   6   1   39.09    2.40
  -7  -6  -1   39.40    2.39
   7   6   1   36.81    1.77
  -7  -6  -1   38.04    1.72
   7   6   2    3.96    0.88
  -7  -6  -2    2.49    0.74
   7   6   2    3.77    0.64
  -7  -6  -2    2.51    0.50
   7   6   3    2.01    0.70
  -7  -6  -3    1.12    0.66
   7   6   4   27.80    2.09
  -7  -6  -4   33.65    2.19
  -7  -6  -5   78.23    3.44
   7   6   5   78.70    3.63
   7   6   6    1.24    0.67
  -7  -6  -6   -0.67    0.58
   7   6   7    5.29    1.11
  -7  -6  -7    3.86    0.87
   7   6   8   86.03    4.08
  -7  -6  -8   93.27    3.72
   7   6   9    5.77    1.17
  -7  -6  -9    5.12    0.92
  -7  -7  10    6.71    1.26
  -7  -7   9   29.11    2.33
   7   7  -9   26.10    2.19
  -7  -7   8   16.55    1.73
   7   7  -8   14.68    1.62
  -7  -7   7    3.22    0.93
   7   7  -7    3.39    0.85
  -7  -7   6    1.51    0.78
   7   7  -6    1.62    0.68
  -7  -7   5    7.25    1.20
   7   7  -5    6.82    1.04
  -7  -7   4    7.58    1.13
   7   7  -4    6.89    0.98
  -7  -7   3    1.64    0.77
   7   7  -3    0.75    0.40
  -7  -7   2    7.72    1.24
   7   7  -2    6.08    0.88
  -7  -7   1    3.67    0.89
   7   7  -1    5.13    1.02
   7   7  -1    2.72    0.65
  -7  -7   0    0.83    0.70
   7   7   0    1.38    0.77
   7   7   0   -0.02    0.35
   7   7   1    1.19    0.68
   7   7   1    0.79    0.38
  -7  -7  -1    1.22    0.58
  -7  -7  -2    4.79    0.95
   7   7   2    5.13    1.06
  -7  -7  -3    1.55    0.70
   7   7   3    1.25    0.71
  -7  -7  -4    3.87    1.07
   7   7   4    3.59    0.91
  -7  -7  -5    0.40    0.55
   7   7   5   -0.01    0.55
  -7  -7  -6   62.39    3.20
   7   7   6   59.31    3.33
  -7  -7  -7    4.19    0.97
   7   7   7    5.83    1.16
  -7  -7  -8    1.52    0.75
   7   8  -8   15.49    1.70
  -7  -8   7   48.32    3.06
   7   8  -7   41.42    2.75
  -7  -8   6    3.37    0.92
   7   8  -6    2.92    0.88
  -7  -8   5    1.67    0.74
   7   8  -5    1.29    0.63
  -7  -8   4   18.26    1.85
   7   8  -4   16.13    1.55
  -7  -8   3   28.38    2.31
   7   8  -3   26.07    2.01
  -7  -8   2    6.56    1.17
   7   8  -2    7.37    1.25
   7   8  -2    6.17    0.97
  -7  -8   1    5.48    1.09
   7   8  -1    5.47    1.06
   7   8  -1    4.89    0.88
   7   8   0    7.39    1.30
   7   8   0    5.10    0.80
  -7  -8   0    6.46    1.18
   7   8   1   12.08    1.54
   7   8   1    8.62    0.98
  -7  -8  -1    8.99    1.34
  -7  -8  -2   -0.04    0.66
   7   8   2   -1.08    0.77
  -7  -8  -3   -0.45    0.70
   7   8   3    0.16    0.60
  -7  -8  -4    0.18    0.58
   7   8   4    1.60    0.76
  -7  -8  -5    0.80    0.65
   7   8   5    1.01    0.74
  -7  -8  -6   -0.26    0.70
  -7  -8  -7    3.55    0.89
  -7  -8  -8    2.78    0.91
   7   9  -7    4.28    1.08
   7   9  -6   43.12    2.78
   7   9  -5   13.51    1.55
   7   9  -4    7.74    1.20
   7   9  -3   20.35    1.82
  -7  -9   3   25.16    2.28
   7   9  -2   48.84    3.10
   7   9  -2   45.61    2.63
  -7  -9   2   46.73    3.07
   7   9  -1   -1.04    0.72
   7   9  -1    0.67    0.46
  -7  -9   1   -0.09    0.64
   7   9   0   34.70    2.61
   7   9   0   32.09    2.08
  -7  -9   0   35.18    2.64
  -7  -9  -1    7.08    1.24
   7   9   1    4.05    0.98
  -7  -9  -2   23.92    2.18
  -7  -9  -3    7.22    1.27
  -7  -9  -4    1.73    0.84
  -7  -9  -5    6.79    1.22
  -7  -9  -6    8.41    1.34
  -7  -9  -7    4.88    1.08
   7  10  -5   15.24    1.71
   7  10  -4   17.08    1.75
   7  10  -3    3.20    0.84
   7  10  -2    4.62    0.98
   7  10  -1   20.95    1.81
   8 -12   0   23.47    2.09
   8 -12   1    0.55    0.66
  -8  12  -2    2.48    0.85
   8 -12   2    2.05    0.80
  -8  12  -3   13.91    1.68
   8 -12   3   13.86    1.56
  -8  12  -4   37.12    2.67
   8 -12   4   29.69    2.26
   8 -12   5    9.94    1.35
   8 -11  -6    6.47    1.16
   8 -11  -4   11.88    1.60
  -8  11   4   13.11    1.60
   8 -11  -3   22.44    2.04
  -8  11   3   17.07    1.75
   8 -11  -2    1.63    0.69
  -8  11   2    2.85    0.80
   8 -11  -1    1.19    0.66
  -8  11   1    3.12    0.88
   8 -11   0   17.77    1.77
  -8  11   0   13.35    1.55
   8 -11   1    4.16    0.92
  -8  11  -1    4.64    1.05
   8 -11   2    4.54    1.05
   8 -11   2    3.01    0.85
  -8  11  -2    1.42    0.59
  -8  11  -2    1.87    0.71
   8 -11   3   40.49    2.55
  -8  11  -3   37.82    2.62
  -8  11  -3   39.58    2.65
   8 -11   3   41.68    2.79
   8 -11   4    7.32    1.08
  -8  11  -4    5.63    1.11
  -8  11  -4    5.46    1.06
   8 -11   5    0.59    0.58
  -8  11  -5    1.38    0.86
  -8  11  -5    1.02    0.66
  -8  11  -6    2.33    0.74
  -8  11  -7   10.91    1.40
  -8  11  -8   -0.36    0.73
   8 -10  -7   17.00    1.78
   8 -10  -6    1.57    0.71
  -8  10   6    2.81    0.93
   8 -10  -6    2.27    0.85
   8 -10  -5   19.92    1.93
  -8  10   5   18.35    1.84
   8 -10  -5   15.64    1.67
   8 -10  -4   44.38    2.81
  -8  10   4   39.43    2.66
   8 -10  -3   26.44    2.14
  -8  10   3   29.88    2.29
   8 -10  -2   23.09    1.99
  -8  10   2   28.28    2.17
   8 -10  -1    9.31    1.30
  -8  10   1    8.94    1.24
   8 -10   0    5.68    1.05
  -8  10   0    5.02    0.94
   8 -10   1   41.00    2.55
  -8  10  -1   38.32    2.47
  -8  10  -1   39.83    2.56
   8 -10   2   21.97    1.84
  -8  10  -2   24.72    2.03
  -8  10  -2   24.08    2.05
   8 -10   2   25.12    2.09
   8 -10   3    0.36    0.55
  -8  10  -3   -0.20    0.55
  -8  10  -3    1.00    0.62
   8 -10   3    1.04    0.62
   8 -10   4   11.33    1.29
  -8  10  -4   12.07    1.46
  -8  10  -4   12.35    1.42
   8 -10   4   12.26    1.51
   8 -10   5   22.76    1.79
  -8  10  -5   25.56    2.15
  -8  10  -5   26.17    2.03
   8 -10   5   23.40    2.08
   8 -10   6    3.24    0.71
  -8  10  -6    3.27    1.21
  -8  10  -6    2.59    0.80
   8 -10   6    3.12    1.00
  -8  10  -7   26.43    2.30
  -8  10  -7   25.40    1.99
  -8  10  -8   45.72    2.67
   8  -9  -9   -1.86    0.71
  -8   9   8   13.24    1.57
   8  -9  -8   14.30    1.64
  -8   9   7   49.79    2.99
   8  -9  -7   42.56    2.75
   8  -9  -6   65.11    3.43
  -8   9   6   73.50    3.62
   8  -9  -6   65.87    3.35
   8  -9  -5   47.06    2.84
  -8   9   5   45.48    2.76
   8  -9  -5   41.67    2.54
   8  -9  -4   67.32    3.39
  -8   9   4   62.91    3.27
   8  -9  -4   68.00    3.20
   8  -9  -3   83.37    3.75
  -8   9   3   83.85    3.74
   8  -9  -2   65.17    3.24
  -8   9   2   65.02    3.22
   8  -9  -1   55.61    2.94
  -8   9   1   58.11    3.01
   8  -9   0   99.07    3.97
  -8   9   0  101.95    4.02
   8  -9   1   73.23    3.31
  -8   9  -1   74.37    3.43
  -8   9  -1   71.81    3.30
   8  -9   2   46.76    2.55
  -8   9  -2   48.95    2.78
  -8   9  -2   44.01    2.54
   8  -9   2   47.74    2.79
   8  -9   3   75.97    3.29
  -8   9  -3   78.34    3.63
  -8   9  -3   77.59    3.41
   8  -9   3   82.36    3.72
   8  -9   4   32.55    2.05
  -8   9  -4   34.65    2.41
  -8   9  -4   32.33    2.14
   8  -9   4   33.41    2.38
   8  -9   5   26.12    1.81
  -8   9  -5   27.50    2.19
  -8   9  -5   24.78    1.89
   8  -9   5   28.92    2.24
  -8   9  -6   78.75    3.80
  -8   9  -6   70.88    3.22
   8  -9   6   76.87    3.75
  -8   9  -7   16.56    1.78
  -8   9  -7   15.96    1.50
   8  -9   7   20.50    1.95
  -8   9  -8   -0.46    0.82
  -8   9  -8    1.37    0.72
   8  -9   8   -0.50    0.58
   8  -8 -10    6.79    1.26
  -8   8   9    2.79    0.95
   8  -8  -9    1.51    0.72
  -8   8   8    2.42    0.82
   8  -8  -8    2.78    0.90
  -8   8   7   33.42    2.40
   8  -8  -7   31.94    2.26
  -8   8   6    2.03    0.77
   8  -8  -6    1.55    0.64
  -8   8   5  139.39    4.95
   8  -8  -5  136.43    4.71
  -8   8   4    4.86    0.98
   8  -8  -4    5.75    0.92
   8  -8  -3    0.51    0.58
  -8   8   3    0.04    0.52
   8  -8  -3    0.74    0.54
   8  -8  -2   15.13    1.51
  -8   8   2   18.19    1.64
   8  -8  -1   83.74    3.55
  -8   8   1   92.08    3.68
   8  -8   0    1.05    0.53
  -8   8   0    0.79    0.48
   8  -8   1   44.44    2.43
  -8   8  -1   43.41    2.54
  -8   8  -1   46.07    2.46
   8  -8   2   69.54    3.06
  -8   8  -2   74.29    3.38
  -8   8  -2   69.76    3.06
   8  -8   2   71.69    3.33
  -8   8  -3   17.88    1.67
  -8   8  -3   17.33    1.50
   8  -8   3   21.10    1.80
  -8   8  -4   21.52    1.86
  -8   8  -4   22.68    1.68
   8  -8   4   23.34    1.91
  -8   8  -5   44.46    2.74
  -8   8  -5   51.02    2.52
   8  -8   5   50.27    2.86
  -8   8  -6   27.06    2.17
  -8   8  -6   34.23    2.04
   8  -8   6   29.93    2.25
  -8   8  -7   33.50    2.45
  -8   8  -7   35.69    2.07
   8  -8   7   33.94    2.41
  -8   8  -8   38.70    2.68
  -8   8  -8   35.27    2.05
   8  -8   8   39.74    2.62
  -8   8  -9    9.68    1.39
   8  -8   9   10.48    1.47
   8  -7 -11   20.23    1.99
  -8   7  10   22.05    2.02
   8  -7 -10   23.43    2.06
  -8   7   9   41.95    2.72
   8  -7  -9   43.19    2.72
  -8   7   8   62.11    3.26
   8  -7  -8   63.41    3.20
  -8   7   7    8.97    1.26
   8  -7  -7    6.98    1.11
  -8   7   6   19.23    1.72
   8  -7  -6   19.23    1.64
  -8   7   5   23.43    1.87
   8  -7  -5   21.38    1.66
  -8   7   4    9.59    1.21
   8  -7  -4    7.71    1.02
  -8   7   3    4.98    0.90
   8  -7  -3    5.30    0.82
  -8   7   2  173.64    5.29
   8  -7  -2  177.49    4.91
  -8   7   1   74.22    3.17
   8  -7  -1   81.38    2.93
  -8   7   0    8.16    1.01
   8  -7   1    9.60    1.19
  -8   7  -1   10.20    1.22
  -8   7  -1    7.67    0.97
  -8   7  -2  165.81    5.30
  -8   7  -2  165.72    4.89
   8  -7   2  172.40    5.34
  -8   7  -3   21.50    1.76
  -8   7  -3   18.71    1.45
   8  -7   3   22.06    1.80
  -8   7  -4    0.10    0.53
  -8   7  -4    0.64    0.48
   8  -7   4   -0.58    0.42
  -8   7  -5   11.91    1.40
  -8   7  -5   13.62    1.23
   8  -7   5   13.28    1.46
  -8   7  -6   35.26    2.42
  -8   7  -6   41.42    2.12
   8  -7   6   40.21    2.52
  -8   7  -7    0.57    0.37
   8  -7   7   -0.13    0.63
  -8   7  -8    1.53    0.76
  -8   7  -8    1.20    0.48
   8  -7   8    0.29    0.58
  -8   7  -9    0.78    0.56
   8  -7   9    0.59    0.52
  -8   7 -10    0.58    0.62
   8  -7  10    0.15    0.65
  -8   6  11   79.74    3.91
   8  -6 -11   73.50    3.75
  -8   6  10   71.23    3.58
   8  -6 -10   69.91    3.51
  -8   6   9   28.63    2.19
   8  -6  -9   25.66    2.03
  -8   6   8  109.06    4.35
   8  -6  -8  107.50    4.18
  -8   6   7  160.05    5.30
   8  -6  -7  154.03    5.05
  -8   6   6   66.38    3.14
   8  -6  -6   62.66    2.91
  -8   6   5    1.40    0.68
   8  -6  -5    0.39    0.40
  -8   6   4   48.13    2.53
   8  -6  -4   47.01    2.32
  -8   6   3  292.41    7.31
   8  -6  -3  294.43    6.91
  -8   6   2    1.24    0.60
   8  -6  -2    1.83    0.51
  -8   6   1  124.89    4.13
   8  -6  -1  128.97    3.73
   8  -6   0  107.97    3.55
  -8   6   0  114.69    3.78
   8  -6   0  109.59    3.26
  -8   6  -1   30.20    1.99
  -8   6  -1   28.05    1.74
   8  -6   1   30.69    1.69
   8  -6   1   27.32    1.86
   8  -6   1   26.04    1.37
  -8   6  -2  141.43    4.74
  -8   6  -2  145.54    4.31
   8  -6   2  145.84    4.11
   8  -6   2  149.31    3.65
   8  -6   2  142.21    4.66
  -8   6  -3   16.18    1.52
  -8   6  -3   14.86    1.21
   8  -6   3   14.76    1.12
   8  -6   3   15.79    1.46
   8  -6   3   16.23    0.93
  -8   6  -4   84.24    3.06
  -8   6  -4   76.99    3.43
  -8   6  -4   78.52    2.90
   8  -6   4   78.51    2.73
   8  -6   4   81.93    2.20
   8  -6   4   81.71    3.44
  -8   6  -5   15.25    1.22
  -8   6  -5   16.62    1.55
  -8   6  -5   16.52    1.23
   8  -6   5   15.41    1.18
   8  -6   5   16.64    1.55
   8  -6   5   15.68    0.75
  -8   6  -6   22.27    1.43
  -8   6  -6   21.83    1.85
  -8   6  -6   23.30    1.45
   8  -6   6   24.65    1.94
  -8   6  -7   47.40    2.82
  -8   6  -7   52.79    2.18
   8  -6   7   50.05    2.81
  -8   6  -8   -0.29    0.56
  -8   6  -8    0.36    0.40
   8  -6   8    0.14    0.53
  -8   6  -9    7.05    1.17
   8  -6   9    8.83    1.33
  -8   6 -10   29.92    2.39
   8  -6  10   29.91    2.34
  -8   5  12    0.23    0.63
   8  -5 -12    1.39    0.74
  -8   5  11   -0.10    0.60
   8  -5 -11    1.19    0.75
  -8   5  10    5.50    1.00
   8  -5 -10    5.54    1.09
  -8   5   9    2.55    0.83
   8  -5  -9    1.32    0.53
  -8   5   8    4.15    0.93
   8  -5  -8    4.34    0.86
  -8   5   7    3.69    0.90
   8  -5  -7    3.20    0.77
   8  -5  -6   10.20    0.65
  -8   5   6    7.19    1.05
   8  -5  -6    8.53    1.07
   8  -5  -5    9.85    0.50
  -8   5   5    9.01    1.09
   8  -5  -5   10.17    1.09
  -8   5   4    2.19    0.71
   8  -5  -4    1.62    0.52
  -8   5   3   64.61    2.81
   8  -5  -3   61.91    2.49
  -8   5   2   44.75    2.25
   8  -5  -2   45.86    2.02
  -8   5   1    0.32    0.46
   8  -5  -1    0.28    0.30
  -8   5   0   66.02    2.65
   8  -5   0   63.13    2.43
   8  -5   0   62.03    2.19
   8  -5   0   60.85    2.70
  -8   5  -1   88.33    3.50
   8  -5   1   89.03    2.91
  -8   5  -1   93.82    3.17
   8  -5   1   88.33    3.36
   8  -5   1   91.41    2.60
  -8   5  -2   47.64    2.51
   8  -5   2   46.28    1.95
  -8   5  -2   47.26    2.13
   8  -5   2   50.58    1.67
   8  -5   2   48.39    2.43
  -8   5  -3  218.91    5.55
  -8   5  -3  216.32    6.13
   8  -5   3  211.62    5.00
  -8   5  -3  218.72    5.34
   8  -5   3  225.38    4.38
   8  -5   3  218.50    5.98
  -8   5  -4    2.50    0.58
  -8   5  -4    2.51    0.74
  -8   5  -4    2.44    0.55
   8  -5   4    2.96    0.72
   8  -5   4    1.99    0.24
   8  -5   4    2.18    0.44
  -8   5  -5   61.26    2.42
  -8   5  -5   58.90    1.91
  -8   5  -5   58.75    2.94
  -8   5  -5   60.98    2.30
   8  -5   5   63.51    2.14
   8  -5   5   68.60    3.07
  -8   5  -6   23.74    1.40
  -8   5  -6   22.16    1.22
  -8   5  -6   24.49    1.89
  -8   5  -6   22.87    1.31
   8  -5   6   23.25    1.79
  -8   5  -7    2.30    0.71
  -8   5  -7    3.42    0.56
   8  -5   7    2.58    0.73
  -8   5  -8   10.69    1.39
  -8   5  -8   11.70    0.89
   8  -5   8    9.69    1.30
  -8   5  -9    4.82    0.98
   8  -5   9    4.32    0.93
  -8   5 -10    0.80    0.66
   8  -5  10    1.33    0.71
  -8   5 -11    1.84    0.69
   8  -5  11    1.19    0.70
  -8   4  12   -0.77    0.65
   8  -4 -12   -0.25    0.59
  -8   4  11   -0.37    0.56
   8  -4 -11    0.20    0.56
  -8   4  10    0.06    0.58
   8  -4 -10    0.74    0.57
  -8   4   9    0.59    0.56
   8  -4  -9   -0.12    0.54
  -8   4   8   22.51    1.81
   8  -4  -8   25.37    1.85
   8  -4  -7    1.57    0.38
  -8   4   7    1.44    0.61
   8  -4  -7    1.42    0.54
   8  -4  -6    2.93    0.40
  -8   4   6    2.01    0.70
   8  -4  -6    2.90    0.65
   8  -4  -5   11.36    0.67
  -8   4   5   11.42    1.22
   8  -4  -5   10.40    1.06
   8  -4  -4    1.13    0.21
  -8   4   4    0.31    0.44
   8  -4  -4    1.10    0.38
   8  -4  -3    1.54    0.16
   8  -4  -3    1.37    0.15
  -8   4   3    2.40    0.61
   8  -4  -3    1.41    0.47
  -8   4   2    1.22    0.43
   8  -4  -2    0.58    0.32
  -8   4   1   13.31    1.17
   8  -4  -1   12.27    0.92
   8  -4  -1   13.55    1.19
  -8   4   0    1.98    0.48
   8  -4   0    2.24    0.40
   8  -4   0    1.68    0.54
   8  -4   1    0.81    0.32
  -8   4  -1    1.05    0.45
   8  -4   1    0.53    0.45
   8  -4   1    0.42    0.26
  -8   4  -2    4.95    0.73
  -8   4  -2    5.25    0.91
  -8   4  -2    4.55    0.64
   8  -4   2    5.17    0.45
   8  -4   2    6.15    0.63
   8  -4   2    4.21    0.76
  -8   4  -3  229.23    5.60
  -8   4  -3  217.59    6.14
   8  -4   3  224.60    4.89
  -8   4  -3  234.71    5.34
   8  -4   3  217.70    5.96
   8  -4   3  233.80    4.13
  -8   4  -4   56.69    2.29
  -8   4  -4   56.52    2.77
   8  -4   4   56.63    1.85
  -8   4  -4   58.33    2.12
   8  -4   4   55.12    2.65
  -8   4  -5   29.47    1.57
  -8   4  -5   27.08    1.31
  -8   4  -5   27.84    1.95
   8  -4   5   29.56    1.21
  -8   4  -5   27.66    1.37
   8  -4   5   29.40    1.95
  -8   4  -6  212.59    4.98
  -8   4  -6  207.99    4.89
  -8   4  -6  191.64    5.95
  -8   4  -6  215.83    4.69
   8  -4   6  214.95    4.34
   8  -4   6  200.01    5.92
  -8   4  -7    9.90    0.93
  -8   4  -7    9.82    1.26
  -8   4  -7    9.35    0.71
   8  -4   7    7.73    1.13
  -8   4  -8   22.17    1.87
   8  -4   8   22.64    1.90
  -8   4  -9   50.90    2.94
   8  -4   9   51.09    2.91
  -8   4 -10   73.13    3.64
   8  -4  10   71.41    3.59
  -8   4 -11    2.56    0.88
   8  -4  11    4.66    1.04
  -8   4 -12    3.40    0.99
  -8   3  12   13.82    1.61
   8  -3 -12   13.66    1.61
  -8   3  11   24.16    2.05
   8  -3 -11   23.31    1.95
  -8   3  10    6.19    1.12
   8  -3 -10    6.39    1.08
  -8   3   9   17.78    1.63
   8  -3  -9   21.09    1.75
  -8   3   8   13.63    1.40
   8  -3  -8   10.50    1.21
  -8   3   7   19.95    1.69
   8  -3  -7   20.48    1.57
  -8   3   6   31.63    2.01
   8  -3  -6   27.76    1.77
  -8   3   5   78.95    3.17
   8  -3  -5   79.90    2.98
  -8   3   4   23.93    1.64
   8  -3  -4   22.24    1.42
  -8   3   3   51.32    2.35
   8  -3  -3   54.07    2.18
   8  -3  -2   71.96    1.78
   8  -3  -2   69.01    2.73
  -8   3   2   72.17    2.75
   8  -3  -2   67.04    2.59
   8  -3  -2   69.89    2.40
   8  -3  -1   36.65    1.12
   8  -3  -1   35.31    1.85
  -8   3   1   35.67    1.81
   8  -3  -1   37.45    1.88
   8  -3  -1   38.10    1.58
   8  -3   0   97.59    2.18
   8  -3   0   94.76    3.09
  -8   3   0   93.28    3.05
   8  -3   0   92.59    3.21
   8  -3   0   96.46    2.60
  -8   3  -1   56.06    2.39
   8  -3   1   54.27    1.54
  -8   3  -1   54.41    2.15
   8  -3   1   56.38    1.91
   8  -3   1   53.29    2.38
   8  -3   1   55.89    1.68
   8  -3   2   42.11    1.41
  -8   3  -2   44.22    2.03
  -8   3  -2   40.68    2.19
   8  -3   2   40.73    1.50
  -8   3  -2   40.94    1.76
   8  -3   2   37.61    2.02
   8  -3   2   40.16    1.19
   8  -3   3   35.34    1.38
  -8   3  -3   38.03    1.84
  -8   3  -3   35.43    2.08
   8  -3   3   36.53    1.30
  -8   3  -3   34.78    1.55
   8  -3   3   36.74    2.04
  -8   3  -4  145.10    3.96
  -8   3  -4  136.86    4.49
  -8   3  -4  141.09    3.50
   8  -3   4  139.51    2.98
   8  -3   4  133.04    4.33
  -8   3  -5    0.84    0.38
  -8   3  -5    0.35    0.30
  -8   3  -5    0.64    0.48
  -8   3  -5    0.21    0.23
   8  -3   5    0.93    0.56
   8  -3   5    0.49    0.16
  -8   3  -6    4.46    0.66
  -8   3  -6    6.21    0.66
  -8   3  -6    7.47    1.05
  -8   3  -6    5.08    0.49
   8  -3   6    6.54    1.02
  -8   3  -7  160.93    3.92
  -8   3  -7  160.22    4.38
  -8   3  -7  162.95    5.22
  -8   3  -7  158.47    3.29
   8  -3   7  157.57    5.16
  -8   3  -8   14.21    1.48
  -8   3  -8   14.29    0.85
   8  -3   8   13.87    1.47
  -8   3  -9    4.16    0.90
   8  -3   9    3.85    0.93
  -8   3 -10   37.69    2.51
   8  -3  10   38.33    2.58
  -8   3 -11   17.98    1.84
   8  -3  11   23.47    2.11
  -8   3 -12    6.88    1.19
  -8   2  13   64.46    3.56
   8  -2 -13   67.18    3.59
  -8   2  12   37.08    2.61
   8  -2 -12   38.42    2.63
  -8   2  11   45.50    2.84
   8  -2 -11   46.05    2.77
  -8   2  10   29.55    2.21
   8  -2 -10   29.59    2.14
  -8   2   9  438.64   10.26
   8  -2  -9  433.03   10.05
  -8   2   8  118.20    4.31
   8  -2  -8  114.15    4.09
  -8   2   7  119.90    4.22
   8  -2  -7  115.05    3.99
  -8   2   6   56.93    2.70
   8  -2  -6   57.84    2.56
  -8   2   5   29.48    1.87
   8  -2  -5   31.87    1.78
  -8   2   4    3.80    0.73
   8  -2  -4    4.88    0.69
   8  -2  -3    2.92    0.52
  -8   2   3    2.92    0.61
   8  -2  -3    3.33    0.59
   8  -2  -2   46.34    1.58
   8  -2  -2   46.02    2.13
  -8   2   2   46.56    2.12
   8  -2  -2   45.59    1.84
   8  -2  -2   46.81    2.01
   8  -2  -1    1.46    0.32
  -8   2   1    1.97    0.54
   8  -2  -1    1.79    0.42
   8  -2  -1    1.37    0.48
   8  -2  -1    1.76    0.38
   8  -2   0    1.12    0.30
  -8   2   0    0.40    0.32
   8  -2   0    0.68    0.38
   8  -2   0    0.31    0.25
   8  -2   0    1.33    0.50
   8  -2   1    0.56    0.28
  -8   2  -1    0.85    0.37
  -8   2  -1    0.60    0.36
   8  -2   1    0.68    0.34
   8  -2   1    0.70    0.39
  -8   2  -2   16.68    1.21
   8  -2   2   15.41    0.92
  -8   2  -2   13.90    1.29
   8  -2   2   13.72    0.73
  -8   2  -2   14.61    0.98
   8  -2   2   13.27    1.15
  -8   2  -3   30.79    1.63
   8  -2   3   28.59    1.34
  -8   2  -3   29.03    1.83
   8  -2   3   28.42    0.92
  -8   2  -3   28.49    1.31
   8  -2   3   26.86    1.69
   8  -2   4    3.43    0.51
  -8   2  -4    3.72    0.60
  -8   2  -4    4.56    0.87
  -8   2  -4    4.20    0.48
   8  -2   4    4.13    0.74
  -8   2  -5    8.76    0.83
   8  -2   5    7.66    0.80
  -8   2  -5    7.97    0.83
  -8   2  -5    9.13    1.07
  -8   2  -5    8.08    0.57
   8  -2   5    8.67    1.06
   8  -2   6    7.07    0.81
  -8   2  -6    6.14    0.68
  -8   2  -6    6.03    0.76
  -8   2  -6    4.71    0.81
  -8   2  -6    6.05    0.69
  -8   2  -6    6.10    0.41
   8  -2   6    5.17    0.88
  -8   2  -7    3.58    0.79
  -8   2  -7    3.80    0.52
  -8   2  -7    4.58    0.59
  -8   2  -7    5.60    0.81
   8  -2   7    4.33    0.85
  -8   2  -8   54.78    2.83
  -8   2  -8   54.69    1.83
   8  -2   8   50.86    2.80
  -8   2  -9   15.93    1.56
   8  -2   9   15.74    1.64
  -8   2 -10    7.09    1.14
   8  -2  10   10.56    1.40
  -8   2 -11   -0.06    0.59
   8  -2  11    1.20    0.72
  -8   2 -12   22.04    2.01
  -8   2 -13    0.92    0.55
  -8   1  13   15.39    1.73
   8  -1 -13   11.76    1.56
  -8   1  12   61.93    3.39
   8  -1 -12   64.69    3.43
  -8   1  11  100.42    4.28
   8  -1 -11  105.57    4.32
  -8   1  10    1.34    0.71
   8  -1 -10   -0.53    0.66
  -8   1   9   63.78    3.15
   8  -1  -9   62.87    3.06
  -8   1   8  174.21    5.44
   8  -1  -8  174.00    5.26
  -8   1   7   19.26    1.61
   8  -1  -7   20.13    1.57
  -8   1   6   97.45    3.67
   8  -1  -6  105.04    3.58
  -8   1   5   42.84    2.23
   8  -1  -5   45.95    2.17
  -8   1   4   49.59    2.34
   8  -1  -4   50.04    1.95
  -8   1   4   50.59    2.21
   8  -1  -4   54.51    2.25
  -8   1   3  174.61    4.80
  -8   1   3  168.21    4.46
   8  -1  -3  180.68    4.51
   8  -1  -3  179.09    4.32
   8  -1  -2    6.67    0.68
  -8   1   2    7.26    0.86
   8  -1  -2    8.20    0.87
   8  -1  -2    8.35    0.77
   8  -1  -2    8.03    0.80
  -8   1   2    7.49    0.77
   8  -1  -1  298.40    6.15
   8  -1  -1  301.41    6.71
  -8   1   1  306.21    6.68
  -8   1   1  305.31    6.23
   8  -1  -1  299.83    6.54
   8  -1   0  165.54    3.92
   8  -1   0  157.74    4.16
  -8   1   0  165.45    4.22
   8  -1   0  165.95    4.33
   8  -1   1   71.34    2.30
   8  -1   1   67.78    2.34
  -8   1  -1   68.83    2.34
   8  -1   1   71.32    2.64
   8  -1   2  168.60    4.08
   8  -1   2  165.71    3.22
   8  -1   2  158.52    3.92
  -8   1  -2  164.59    3.95
   8  -1   2  170.73    3.23
   8  -1   2  161.97    4.51
   8  -1   3   92.21    2.83
  -8   1  -3   86.94    3.30
  -8   1  -3   92.87    2.52
   8  -1   3   89.72    3.19
   8  -1   4   97.61    3.05
  -8   1  -4   92.40    3.46
  -8   1  -4  100.87    2.46
   8  -1   4   99.41    3.50
  -8   1  -5  190.28    4.77
   8  -1   5  197.13    4.95
  -8   1  -5  197.07    4.83
  -8   1  -5  191.33    5.44
  -8   1  -5  198.05    3.75
   8  -1   5  198.38    5.51
  -8   1  -6  124.54    4.21
  -8   1  -6  128.64    3.53
  -8   1  -6  125.60    3.85
  -8   1  -6  125.90    3.49
   8  -1   6  123.67    3.81
   8  -1   6  129.81    4.35
  -8   1  -7   62.84    2.92
  -8   1  -7   68.22    2.29
  -8   1  -7   67.17    2.27
   8  -1   7   67.95    2.75
   8  -1   7   67.13    3.11
  -8   1  -8  102.65    3.92
  -8   1  -8  106.29    2.86
   8  -1   8  103.26    3.66
   8  -1   8   99.73    4.02
  -8   1  -9   29.32    2.06
   8  -1   9   31.47    2.21
  -8   1 -10    0.22    0.54
   8  -1  10    1.31    0.64
  -8   1 -11   61.42    3.22
   8  -1  11   64.22    3.48
  -8   1 -12   60.26    3.27
  -8   1 -13    0.20    0.84
   8   0 -13    3.13    0.96
   8   0 -12   31.34    2.38
  -8   0  12   34.83    2.50
   8   0 -12   29.84    2.32
  -8   0  11   23.87    2.04
   8   0 -11   27.13    2.12
   8   0 -11   24.88    2.03
  -8   0  10   39.12    2.53
   8   0 -10   44.06    2.60
  -8   0   9    0.11    0.52
   8   0  -9    0.17    0.58
  -8   0   8  114.53    4.21
   8   0  -8  105.72    3.95
  -8   0   7   34.86    2.16
   8   0  -7   35.27    2.08
  -8   0   6   88.30    3.45
   8   0  -6   91.17    2.52
   8   0  -6   85.62    3.26
  -8   0   5    2.29    0.67
   8   0  -5    2.28    0.38
   8   0  -5    1.66    0.47
  -8   0   4   18.53    1.40
  -8   0   4   19.28    1.34
   8   0  -4   17.86    1.03
  -8   0   3  208.00    5.39
  -8   0   3  211.43    5.16
   8   0  -3  210.39    4.70
  -8   0   2   25.19    1.52
   8   0  -2   22.17    1.25
   8   0  -2   22.23    1.44
  -8   0   2   21.94    1.29
   8   0  -2   22.47    1.22
   8   0  -1    0.67    0.37
  -8   0   1    0.66    0.48
   8   0  -1    1.44    0.47
   8   0  -1    0.48    0.39
  -8   0   1    0.96    0.40
   8   0  -1    0.61    0.30
   8   0   0  166.95    4.23
   8   0   0  161.48    4.23
  -8   0   0  164.30    4.24
   8   0   0  171.49    3.74
  -8   0   0  171.26    3.92
   8   0   0  169.04    4.29
   8   0   1  148.35    3.89
   8   0   1  141.24    3.70
  -8   0  -1  143.13    3.71
   8   0   1  147.96    3.10
  -8   0  -1  143.71    3.31
   8   0   1  145.60    4.01
   8   0   2   27.42    1.48
   8   0   2   27.60    1.29
  -8   0  -2   28.18    1.31
   8   0   2   27.05    0.75
   8   0   2   27.13    1.57
  -8   0  -2   25.55    0.98
   8   0   3   11.16    0.98
  -8   0  -3   10.61    1.03
   8   0   3   10.13    0.71
  -8   0  -3   10.37    0.73
   8   0   3   10.18    1.02
  -8   0  -4  105.66    3.37
  -8   0  -4  106.81    3.67
   8   0   4  108.56    3.41
   8   0   4  113.01    3.73
  -8   0  -5  120.84    4.00
  -8   0  -5  124.60    3.63
   8   0   5  125.24    3.82
   8   0   5  121.37    4.07
  -8   0  -6  112.54    3.87
  -8   0  -6  112.22    3.31
   8   0   6  105.68    3.61
   8   0   6  105.76    3.88
  -8   0  -7  124.48    4.19
  -8   0  -7  129.89    3.52
   8   0   7  116.55    3.98
   8   0   7  120.96    4.34
  -8   0  -8   81.25    3.38
  -8   0  -8   92.22    2.73
   8   0   8   85.70    3.40
   8   0   8   84.11    3.66
  -8   0  -9   32.83    2.10
   8   0   9   32.79    2.10
   8   0   9   32.38    2.29
  -8   0 -10   71.18    3.28
   8   0  10   66.12    3.18
   8   0  10   73.13    3.59
  -8   0 -11  110.31    4.37
   8   0  11  124.04    4.93
  -8   0 -12   69.94    3.45
  -8   0 -13   57.81    3.20
  -8   0 -14   50.80    3.11
  -8  -1  14   15.29    1.68
  -8  -1  13   13.21    1.54
  -8  -1  12    3.70    1.05
   8   1 -12    4.28    1.01
  -8  -1  11   18.36    1.83
   8   1 -11   15.59    1.67
  -8  -1  10    4.44    1.02
   8   1 -10    4.90    0.99
  -8  -1   9    2.44    0.80
   8   1  -9    2.34    0.74
   8   1  -8   29.29    1.98
  -8  -1   8   28.41    2.04
   8   1  -8   30.16    1.05
   8   1  -7   38.48    2.19
  -8  -1   7   34.44    2.19
   8   1  -7   40.53    1.27
   8   1  -6   13.24    1.23
  -8  -1   6   13.11    1.29
   8   1  -6   15.01    0.75
  -8  -1   5    0.19    0.55
   8   1  -5    0.01    0.21
   8   1  -5   -0.28    0.37
  -8  -1   4   17.80    1.40
   8   1  -4   20.44    1.35
   8   1  -4   19.98    0.97
   8   1  -3   18.18    1.21
  -8  -1   3   17.03    1.33
  -8  -1   3   18.29    1.27
   8   1  -3   18.32    0.98
   8   1  -2  189.79    4.48
  -8  -1   2  184.33    4.88
   8   1  -2  184.69    4.90
  -8  -1   2  176.57    4.58
   8   1  -2  190.72    4.27
   8   1  -1   20.71    1.36
  -8  -1   1   22.03    1.41
   8   1  -1   23.15    1.41
   8   1  -1   23.04    1.18
  -8  -1   1   21.68    1.25
   8   1  -1   21.21    1.20
   8   1   0   -0.16    0.39
  -8  -1   0    0.62    0.48
  -8  -1   0    0.49    0.36
   8   1   0    0.45    0.35
  -8  -1   0    0.25    0.24
   8   1   0    0.16    0.22
   8   1   0    0.27    0.28
   8   1   1   72.13    2.71
  -8  -1  -1   81.79    3.04
   8   1   1   81.47    2.01
  -8  -1  -1   82.19    2.58
   8   1   1   78.20    2.52
   8   1   1   82.87    2.76
  -8  -1  -1   77.07    2.29
   8   1   2   48.23    2.16
  -8  -1  -2   55.39    2.39
   8   1   2   49.78    1.83
   8   1   2   50.81    1.12
   8   1   2   51.33    2.25
  -8  -1  -2   52.24    1.65
   8   1   3    8.17    0.91
  -8  -1  -3   10.29    1.03
  -8  -1  -3    8.92    0.94
   8   1   3    8.56    0.65
  -8  -1  -3    8.83    0.55
   8   1   3    9.08    1.00
   8   1   4   10.56    1.06
  -8  -1  -4    9.22    0.95
   8   1   4    9.50    0.59
  -8  -1  -4   10.75    0.47
   8   1   4   11.07    1.11
  -8  -1  -5   71.32    2.87
  -8  -1  -5   75.70    2.76
   8   1   5   67.83    2.80
   8   1   5   70.63    2.97
  -8  -1  -6   25.90    1.70
  -8  -1  -6   26.06    1.53
   8   1   6   27.54    1.79
   8   1   6   26.65    1.86
  -8  -1  -7    1.70    0.46
  -8  -1  -7    3.60    0.79
   8   1   7    0.98    0.55
   8   1   7    1.22    0.67
  -8  -1  -8    9.95    0.90
  -8  -1  -8    9.72    1.09
   8   1   8    8.54    1.14
   8   1   8   12.17    1.37
  -8  -1  -9    7.65    1.05
   8   1   9    7.10    1.09
   8   1   9    6.99    1.13
  -8  -1 -10    2.83    0.75
   8   1  10    2.45    0.82
  -8  -1 -11   10.71    1.29
   8   1  11    8.80    1.24
  -8  -1 -12   10.88    1.31
  -8  -1 -13    4.29    0.99
  -8  -2  14   17.38    1.77
  -8  -2  13   15.69    1.73
  -8  -2  12   15.08    1.64
   8   2 -12   17.15    1.80
  -8  -2  11   22.46    1.92
   8   2 -11   28.69    2.23
  -8  -2  10   12.00    1.44
  -8  -2  10    9.64    1.36
   8   2 -10    8.99    1.29
  -8  -2   9   22.48    1.88
   8   2  -9   22.08    1.81
  -8  -2   9   22.84    1.93
  -8  -2   8   54.50    2.86
   8   2  -8   47.85    2.59
  -8  -2   8   51.95    2.85
  -8  -2   7   39.27    2.37
   8   2  -7   38.62    2.22
  -8  -2   7   41.89    2.45
  -8  -2   6   64.08    3.00
   8   2  -6   59.94    2.69
  -8  -2   6   59.79    2.85
  -8  -2   5   86.05    3.51
   8   2  -5   86.34    3.16
  -8  -2   5   82.29    3.33
   8   2  -5   87.49    1.83
  -8  -2   4    8.72    1.12
  -8  -2   4    5.37    0.88
   8   2  -4    7.88    0.87
   8   2  -4    7.41    0.49
  -8  -2   3   20.88    1.62
  -8  -2   3   22.20    1.55
   8   2  -3   24.85    1.44
  -8  -2   3   22.82    1.46
   8   2  -3   22.50    1.00
  -8  -2   2   87.79    3.39
   8   2  -2   87.96    2.78
   8   2  -2   85.41    3.07
  -8  -2   2   88.80    2.98
   8   2  -2   88.49    2.44
   8   2  -1   43.66    2.12
  -8  -2   1   38.68    2.15
   8   2  -1   38.96    1.62
   8   2  -1   39.40    1.90
  -8  -2   1   39.00    1.81
   8   2  -1   40.97    1.63
   8   2   0    0.39    0.38
   8   2   0   -0.01    0.37
  -8  -2   0    0.93    0.51
   8   2   0    0.89    0.38
  -8  -2   0    1.05    0.39
   8   2   0    0.24    0.31
   8   2   0    0.56    0.24
   8   2   1   61.08    2.55
   8   2   1   57.38    2.47
  -8  -2  -1   60.30    2.66
   8   2   1   63.87    1.78
   8   2   1   61.08    2.22
   8   2   1   62.33    2.32
  -8  -2  -1   59.77    2.09
   8   2   2   17.89    1.37
   8   2   2   17.30    1.32
  -8  -2  -2   17.75    1.40
   8   2   2   19.53    0.68
   8   2   2   17.41    1.06
  -8  -2  -2   20.09    1.32
   8   2   2   17.51    1.27
  -8  -2  -2   18.41    1.03
   8   2   3   15.15    1.29
   8   2   3   14.70    1.21
  -8  -2  -3   14.10    1.24
   8   2   3   13.82    0.86
   8   2   3   15.16    1.24
  -8  -2  -3   13.22    1.14
  -8  -2  -3   13.82    0.83
   8   2   4   66.14    2.84
   8   2   4   67.62    2.72
  -8  -2  -4   70.82    2.82
   8   2   4   69.22    1.89
   8   2   4   69.45    2.84
  -8  -2  -4   70.84    1.92
  -8  -2  -5    3.63    0.69
   8   2   5    3.30    0.68
   8   2   5    4.31    0.78
  -8  -2  -5    4.07    0.37
  -8  -2  -6    2.96    0.68
  -8  -2  -6    2.64    0.56
   8   2   6    0.93    0.55
   8   2   6    4.05    0.83
   8   2   7   10.48    1.21
  -8  -2  -7    9.41    0.95
  -8  -2  -7   10.46    1.10
   8   2   8   41.58    2.46
  -8  -2  -8   42.60    2.23
  -8  -2  -8   42.95    2.00
   8   2   9    6.50    1.10
  -8  -2  -9    5.62    0.86
   8   2  10    6.40    1.13
  -8  -2 -10    6.92    1.00
   8   2  11    2.05    0.84
  -8  -2 -11    0.98    0.54
   8   2  12    4.09    0.94
  -8  -3  13   25.94    2.19
  -8  -3  12   47.15    2.91
   8   3 -12   53.40    3.20
  -8  -3  11    6.08    1.11
   8   3 -11    6.15    1.12
  -8  -3  10   24.42    2.01
   8   3 -10   27.29    2.12
  -8  -3   9   13.32    1.51
   8   3  -9   16.83    1.64
  -8  -3   8   51.60    2.86
   8   3  -8   49.13    2.66
  -8  -3   7   78.43    3.50
   8   3  -7   72.68    3.19
  -8  -3   6   55.05    2.88
   8   3  -6   53.63    2.58
  -8  -3   5   66.34    3.12
   8   3  -5   66.69    2.78
  -8  -3   4   47.46    2.59
   8   3  -4   48.50    2.23
  -8  -3   3    4.45    0.90
   8   3  -3    3.16    0.58
  -8  -3   2   58.04    2.78
   8   3  -2   56.19    2.19
  -8  -3   2   53.47    2.34
   8   3  -1  154.62    4.71
  -8  -3   1  164.89    5.04
   8   3  -1  162.67    4.51
   8   3  -1  168.47    4.10
  -8  -3   1  159.68    4.38
   8   3   0   29.37    1.83
   8   3   0   26.51    1.63
  -8  -3   0   29.17    1.89
   8   3   0   27.84    1.30
   8   3   0   26.46    1.52
  -8  -3   0   26.21    1.47
   8   3   1    2.01    0.62
  -8  -3  -1    1.90    0.50
  -8  -3  -1    2.43    0.72
   8   3   1    1.95    0.49
   8   3   1    3.20    0.57
  -8  -3  -1    1.26    0.36
   8   3   1    2.43    0.38
   8   3   2   87.33    3.36
   8   3   2   88.85    3.08
  -8  -3  -2   89.76    3.40
   8   3   2   87.42    2.09
   8   3   2   90.15    2.73
  -8  -3  -2   82.65    2.64
  -8  -3  -2   87.02    2.95
   8   3   3   43.33    2.33
   8   3   3   48.96    2.19
  -8  -3  -3   47.95    2.39
   8   3   3   47.21    1.75
  -8  -3  -3   45.56    2.15
  -8  -3  -3   47.89    1.80
  -8  -3  -4   55.03    2.56
   8   3   4   58.11    2.41
   8   3   4   49.75    2.55
  -8  -3  -4   53.75    1.86
   8   3   5    1.77    0.68
  -8  -3  -5    2.58    0.66
   8   3   6   75.93    3.35
  -8  -3  -6   80.25    3.11
   8   3   7   75.87    3.44
  -8  -3  -7   84.20    3.15
   8   3   8    8.63    1.20
  -8  -3  -8    9.62    1.02
  -8  -3  -8    8.37    0.97
   8   3   9   16.29    1.69
  -8  -3  -9   17.23    1.38
   8   3  10   59.99    3.29
   8   3  11    3.18    0.87
  -8  -4  12   64.61    3.51
  -8  -4  11   39.79    2.69
   8   4 -11   37.55    2.65
  -8  -4  10    0.42    0.64
   8   4 -10    0.11    0.55
  -8  -4   9   13.79    1.57
   8   4  -9   13.38    1.50
  -8  -4   8   55.03    3.02
   8   4  -8   48.64    2.74
  -8  -4   7   55.79    2.99
   8   4  -7   49.31    2.66
  -8  -4   6   15.99    1.61
   8   4  -6   13.90    1.34
  -8  -4   5   51.65    2.82
   8   4  -5   54.78    2.56
  -8  -4   4   32.14    2.19
   8   4  -4   30.79    1.81
  -8  -4   3    6.99    1.07
   8   4  -3    8.65    0.93
   8   4  -2   12.05    1.03
  -8  -4   2   13.51    1.39
   8   4  -1   36.23    2.15
   8   4  -1   32.27    1.83
  -8  -4   1   33.48    2.15
   8   4  -1   34.61    1.66
   8   4   0   55.27    2.69
   8   4   0   55.21    2.37
  -8  -4   0   55.39    2.77
   8   4   0   55.65    2.04
   8   4   0   54.31    2.32
  -8  -4   0   49.94    2.24
   8   4   1   20.66    1.62
   8   4   1   19.19    1.35
  -8  -4  -1   19.55    1.65
   8   4   1   19.88    1.08
   8   4   1   21.44    1.34
  -8  -4  -1   20.08    1.34
  -8  -4  -1   20.03    1.24
   8   4   2    0.77    0.55
  -8  -4  -2    2.30    0.72
   8   4   2    1.15    0.42
   8   4   2    1.56    0.30
   8   4   2    1.00    0.38
  -8  -4  -2    1.33    0.44
  -8  -4  -2    1.33    0.44
   8   4   3   11.20    1.02
  -8  -4  -3   11.46    1.26
   8   4   3    9.43    1.17
  -8  -4  -3   10.13    0.90
  -8  -4  -4   10.66    1.20
   8   4   4   10.46    1.23
  -8  -4  -5   61.42    2.85
   8   4   5   59.92    2.99
  -8  -4  -6   12.43    1.29
   8   4   6   13.06    1.44
  -8  -4  -7   10.81    1.22
   8   4   7   10.31    1.34
  -8  -4  -8  165.27    4.91
   8   4   8  154.98    5.50
   8   4   9   25.00    2.11
   8   4  10   25.05    2.20
  -8  -5  11    4.09    1.01
  -8  -5  10    9.56    1.36
   8   5 -10    8.33    1.31
  -8  -5   9   24.55    2.12
   8   5  -9   24.59    2.05
  -8  -5   8    7.74    1.26
   8   5  -8   10.04    1.27
  -8  -5   7   91.21    4.04
   8   5  -7   85.20    3.65
  -8  -5   6    8.87    1.28
   8   5  -6    7.23    1.01
  -8  -5   5    3.58    0.91
   8   5  -5    2.44    0.70
  -8  -5   4    1.27    0.60
   8   5  -4    2.53    0.65
  -8  -5   3    0.56    0.65
   8   5  -3    0.10    0.36
  -8  -5   2    4.04    0.85
   8   5  -2    4.44    0.72
  -8  -5   1    5.69    1.02
   8   5  -1    5.45    1.03
   8   5  -1    3.70    0.62
  -8  -5   0    1.79    0.67
   8   5   0    1.34    0.43
   8   5   0    0.63    0.61
   8   5   0    1.77    0.49
  -8  -5  -1    0.39    0.55
   8   5   1    0.25    0.30
  -8  -5  -2    3.68    0.91
   8   5   2    2.89    0.82
  -8  -5  -3    0.76    0.51
   8   5   3   -0.79    0.67
  -8  -5  -4   -0.34    0.55
   8   5   4    0.02    0.52
  -8  -5  -5    2.17    0.65
   8   5   5    4.48    1.01
  -8  -5  -6   10.81    1.28
   8   5   6   12.64    1.49
  -8  -5  -7    2.12    0.79
   8   5   7    1.28    0.58
  -8  -5  -8    1.73    0.61
   8   5   8   -0.20    0.70
   8   5   9   48.97    3.08
  -8  -6   9    0.56    0.56
   8   6  -9    1.27    0.78
  -8  -6   8   26.17    2.22
   8   6  -8   20.29    1.89
  -8  -6   7   40.03    2.73
   8   6  -7   37.19    2.40
  -8  -6   6    1.32    0.81
   8   6  -6    0.05    0.50
  -8  -6   5   36.39    2.53
   8   6  -5   30.67    2.07
  -8  -6   4   21.37    1.93
   8   6  -4   20.38    1.61
  -8  -6   3    2.39    0.82
   8   6  -3    2.53    0.63
   8   6  -2   23.87    1.96
  -8  -6   2   26.70    2.12
   8   6  -2   24.49    1.62
  -8  -6   1    1.01    0.75
   8   6  -1    0.12    0.61
   8   6  -1    0.28    0.38
   8   6   0   25.73    2.04
   8   6   0   26.42    1.57
  -8  -6   0   28.00    2.16
   8   6   1    0.87    0.36
  -8  -6  -1    0.17    0.53
  -8  -6  -2    0.40    0.66
   8   6   2    0.01    0.62
  -8  -6  -3    4.68    1.02
   8   6   3    4.84    0.94
  -8  -6  -4    4.86    0.96
   8   6   4    3.67    0.97
  -8  -6  -5    0.07    0.51
   8   6   5    0.80    0.61
  -8  -6  -6    0.22    0.53
   8   6   6    1.05    0.68
  -8  -6  -7    4.51    0.94
   8   6   7    5.85    1.13
  -8  -6  -8    0.35    0.62
   8   7  -8    9.80    1.40
  -8  -7   7   26.33    2.32
   8   7  -7   26.09    2.12
  -8  -7   6   23.22    2.16
   8   7  -6   18.93    1.79
  -8  -7   5   33.85    2.53
   8   7  -5   30.02    2.15
  -8  -7   4    1.83    0.85
   8   7  -4   -0.09    0.49
   8   7  -3   16.35    1.47
  -8  -7   3   17.43    1.82
   8   7  -2   50.65    3.01
  -8  -7   2   53.34    3.13
   8   7  -2   52.38    2.58
  -8  -7   1    1.21    0.68
   8   7  -1    1.30    0.72
   8   7  -1    1.43    0.52
  -8  -7   0    5.01    1.03
   8   7   0    4.83    1.03
   8   7   0    4.68    0.75
  -8  -7  -1   63.08    3.37
   8   7   1   64.04    3.40
  -8  -7  -2    0.24    0.59
   8   7   2    0.43    0.60
  -8  -7  -3   -0.08    0.57
   8   7   3    0.14    0.56
  -8  -7  -4    3.34    0.97
   8   7   4    4.68    1.02
  -8  -7  -5    5.96    1.13
   8   7   5    6.44    1.23
  -8  -7  -6   -0.58    0.64
  -8  -7  -7    0.85    0.63
  -8  -7  -8    1.05    0.70
   8   8  -7   -0.25    0.57
   8   8  -6   10.67    1.39
   8   8  -5   52.12    2.93
   8   8  -4   43.26    2.60
  -8  -8   3    4.46    1.08
   8   8  -3    4.38    1.01
   8   8  -3    5.04    0.89
  -8  -8   2    7.34    1.29
   8   8  -2    5.99    1.13
   8   8  -2    7.23    1.07
   8   8  -1  282.00    8.29
   8   8  -1  275.96    7.13
  -8  -8   1  288.76    8.45
  -8  -8   0   40.97    2.85
   8   8   0   36.79    2.68
  -8  -8  -1   12.34    1.63
   8   8   1   12.65    1.65
  -8  -8  -2   43.14    2.89
   8   8   2   39.44    2.77
  -8  -8  -3   10.13    1.47
  -8  -8  -4    0.10    0.66
  -8  -8  -5    0.60    0.67
  -8  -8  -6   30.30    2.41
  -8  -8  -7    6.21    1.14
   8   9  -6   12.61    1.60
   8   9  -5   13.38    1.55
   8   9  -4   17.61    1.77
   8   9  -3   40.58    2.55
   9 -12   3   20.36    1.94
   9 -12   4   29.57    2.29
   9 -11  -5    0.11    0.53
   9 -11  -4   26.22    2.14
   9 -11  -1    2.04    0.79
  -9  11   1    5.25    1.16
   9 -11   0   59.16    3.30
  -9  11   0   57.86    3.30
   9 -11   1   24.07    2.07
  -9  11  -1   21.53    1.97
   9 -11   2   32.28    2.36
  -9  11  -2   32.87    2.40
  -9  11  -2   39.51    2.72
   9 -11   3   14.80    1.59
  -9  11  -3   11.44    1.46
  -9  11  -3   13.80    1.65
   9 -11   4   36.91    2.46
  -9  11  -4   34.86    2.56
  -9  11  -5   42.26    2.74
  -9  11  -6   31.25    2.35
   9 -10  -7    9.83    1.46
   9 -10  -6   27.81    2.28
   9 -10  -5   14.79    1.64
  -9  10   4    7.50    1.25
   9 -10  -4    3.58    0.88
   9 -10  -3    2.02    0.89
  -9  10   3    0.52    0.59
   9 -10  -3    0.69    0.63
   9 -10  -2   72.69    3.65
  -9  10   2   71.58    3.62
   9 -10  -1   20.33    1.88
  -9  10   1   19.99    1.89
   9 -10   0    3.29    0.89
  -9  10   0    5.40    1.07
   9 -10   1   23.96    1.97
  -9  10  -1   19.30    1.83
   9 -10   1   23.03    2.12
   9 -10   2   86.88    3.85
  -9  10  -2   86.27    4.10
  -9  10  -2   83.05    3.81
   9 -10   2   97.23    4.33
  -9  10  -3    6.87    1.20
  -9  10  -3    5.09    0.97
   9 -10   3    6.38    1.20
  -9  10  -4   39.62    2.76
  -9  10  -4   37.99    2.49
  -9  10  -5   28.31    2.38
  -9  10  -5   26.98    2.09
  -9  10  -6   24.80    2.01
  -9  10  -7   32.37    2.27
   9  -9  -8    3.86    0.92
   9  -9  -7    2.84    0.85
  -9   9   6   19.41    1.89
   9  -9  -6   20.45    1.85
  -9   9   5    0.62    0.61
   9  -9  -5   -0.26    0.67
  -9   9   4    7.98    1.23
   9  -9  -4    8.03    1.15
  -9   9   3   26.67    2.13
   9  -9  -3   23.62    1.83
  -9   9   2   39.47    2.57
   9  -9  -2   38.39    2.26
  -9   9   1    9.65    1.26
   9  -9  -1    9.36    1.10
  -9   9   0   36.72    2.44
   9  -9   1   14.83    1.62
  -9   9  -1   13.90    1.50
  -9   9  -2    1.02    0.63
  -9   9  -2    0.56    0.53
   9  -9   2    0.09    0.63
  -9   9  -3   24.79    2.11
  -9   9  -3   20.47    1.75
   9  -9   3   21.02    1.98
  -9   9  -4    1.89    0.75
  -9   9  -4    0.60    0.54
   9  -9   4    0.45    0.54
  -9   9  -5    0.07    0.56
  -9   9  -5   -0.20    0.69
   9  -9   5    0.56    0.55
  -9   9  -6    0.93    0.69
  -9   9  -6   -0.25    0.49
   9  -9   6    1.85    0.79
  -9   9  -7   45.08    2.53
   9  -8  -9   44.49    2.90
  -9   8   8   49.76    3.06
   9  -8  -8   45.04    2.84
  -9   8   7   32.48    2.41
   9  -8  -7   32.19    2.32
  -9   8   6   12.53    1.51
   9  -8  -6    9.52    1.26
  -9   8   5   21.86    1.91
   9  -8  -5   19.39    1.71
  -9   8   4   35.44    2.39
   9  -8  -4   29.21    2.02
  -9   8   3   22.59    1.89
   9  -8  -3   22.00    1.69
  -9   8   2   35.64    2.33
   9  -8  -2   39.52    2.19
  -9   8   1   73.88    3.37
   9  -8  -1   71.12    2.94
  -9   8   0    0.61    0.53
   9  -8   0    1.38    0.45
   9  -8   1   11.90    1.43
  -9   8  -1    9.54    1.19
   9  -8   1    9.61    0.97
  -9   8  -2  168.06    5.74
  -9   8  -2  166.56    5.28
   9  -8   2  170.86    5.73
   9  -8   2  182.80    4.65
  -9   8  -3   39.66    2.60
  -9   8  -3   34.52    2.14
   9  -8   3   34.35    2.39
  -9   8  -4    1.26    0.69
  -9   8  -4    2.24    0.65
   9  -8   4    2.49    0.85
  -9   8  -5    3.25    0.87
  -9   8  -5    3.41    0.70
   9  -8   5    3.49    1.02
  -9   8  -6  120.03    4.92
  -9   8  -6  123.28    4.18
   9  -8   6  120.70    4.85
  -9   8  -7    7.15    1.31
  -9   8  -7    5.32    0.89
   9  -8   7    7.75    1.27
   9  -7 -10   18.58    1.91
  -9   7   9   28.01    2.30
   9  -7  -9   26.71    2.23
  -9   7   8   29.52    2.32
   9  -7  -8   33.43    2.37
  -9   7   7   52.06    2.99
   9  -7  -7   42.31    2.57
  -9   7   6   50.30    2.92
   9  -7  -6   54.27    2.83
  -9   7   5   24.15    1.96
   9  -7  -5   23.20    1.77
  -9   7   4   54.23    2.89
   9  -7  -4   54.27    2.65
  -9   7   3   98.76    3.95
   9  -7  -3  102.59    3.67
  -9   7   2   78.84    3.43
   9  -7  -2   80.86    3.09
  -9   7   1   14.59    1.41
   9  -7  -1   14.71    1.23
  -9   7   0  111.00    4.02
   9  -7   0  117.38    4.34
   9  -7   0  109.16    3.48
  -9   7  -1   37.50    2.19
   9  -7   1   41.88    2.48
   9  -7   1   41.95    1.89
  -9   7  -2    9.16    1.32
  -9   7  -2    9.51    1.09
   9  -7   2    6.97    0.75
   9  -7   2    6.63    1.11
  -9   7  -3   90.11    3.98
  -9   7  -3   87.33    3.40
   9  -7   3   98.39    2.78
   9  -7   3   94.45    3.94
  -9   7  -4  111.00    4.51
  -9   7  -4  113.58    3.87
   9  -7   4  115.82    4.49
  -9   7  -5    9.27    1.33
  -9   7  -5    7.34    0.92
   9  -7   5   11.27    1.44
  -9   7  -6    5.10    1.21
  -9   7  -6    2.80    0.62
   9  -7   6    2.85    0.87
  -9   7  -7  136.25    5.30
  -9   7  -7  141.10    4.24
   9  -7   7  136.68    5.21
  -9   7  -8    3.64    0.90
   9  -7   8    2.98    0.84
  -9   6  10   19.33    1.92
   9  -6 -10   20.88    1.93
  -9   6   9    6.05    1.09
   9  -6  -9    8.98    1.30
  -9   6   8    0.42    0.57
   9  -6  -8    0.51    0.52
  -9   6   7   14.22    1.58
   9  -6  -7   13.68    1.48
  -9   6   6   12.68    1.47
   9  -6  -6   13.34    1.37
  -9   6   5    0.87    0.50
   9  -6  -5    0.39    0.44
  -9   6   4    2.62    0.72
   9  -6  -4    2.38    0.60
  -9   6   3   16.31    1.53
   9  -6  -3   16.48    1.33
  -9   6   2   17.15    1.50
   9  -6  -2   14.09    1.17
  -9   6   1   18.37    1.49
   9  -6  -1   17.06    1.23
   9  -6   0    5.99    1.00
  -9   6   0    4.66    0.82
   9  -6   0    4.16    0.60
  -9   6  -1   11.14    1.13
   9  -6   1   11.51    0.89
   9  -6   1    9.12    0.96
   9  -6   1   11.37    1.30
  -9   6  -2  114.60    4.38
   9  -6   2  112.40    3.55
  -9   6  -2  110.94    3.76
   9  -6   2  112.14    3.00
   9  -6   2  122.20    4.35
  -9   6  -3   45.39    2.67
   9  -6   3   48.91    2.12
  -9   6  -3   46.59    2.26
   9  -6   3   49.02    1.63
   9  -6   3   49.94    2.70
  -9   6  -4    5.69    1.04
  -9   6  -4    6.28    0.83
   9  -6   4    8.34    1.19
  -9   6  -5   63.16    3.27
  -9   6  -5   68.90    2.67
   9  -6   5   62.68    3.21
  -9   6  -6  177.02    6.03
  -9   6  -6  195.01    4.96
   9  -6   6  185.81    6.03
  -9   6  -7    0.31    0.65
   9  -6   7    0.78    0.73
  -9   6  -8   25.37    2.17
   9  -6   8   28.01    2.25
  -9   6  -9  111.13    4.78
   9  -6   9  106.40    4.61
   9  -5 -11   55.27    3.23
  -9   5  10    0.80    0.67
   9  -5 -10    0.76    0.59
  -9   5   9   14.80    1.63
   9  -5  -9   16.30    1.66
  -9   5   8   13.09    1.47
   9  -5  -8   10.94    1.32
  -9   5   7   11.71    1.36
   9  -5  -7   10.45    1.25
  -9   5   6    3.41    0.82
   9  -5  -6    2.49    0.64
  -9   5   5   19.56    1.67
   9  -5  -5   16.84    1.41
  -9   5   4    9.23    1.17
   9  -5  -4    9.68    1.02
  -9   5   3   14.28    1.36
   9  -5  -3   12.08    1.10
  -9   5   2    5.25    0.87
   9  -5  -2    4.13    0.66
   9  -5  -1   -0.24    0.44
  -9   5   1    0.07    0.43
   9  -5  -1   -0.11    0.30
  -9   5   0    5.59    0.82
   9  -5   0    6.42    0.78
   9  -5   0    5.46    0.88
   9  -5   0    5.77    0.66
  -9   5  -1    8.07    0.94
   9  -5   1    8.23    0.70
   9  -5   1    6.94    1.00
   9  -5   1    8.08    0.84
  -9   5  -2    9.07    1.23
  -9   5  -2    6.80    0.88
   9  -5   2    7.48    0.60
   9  -5   2    8.07    0.81
   9  -5   2    7.44    1.03
  -9   5  -3   10.90    1.31
  -9   5  -3   11.09    1.03
   9  -5   3   10.97    1.27
   9  -5   3    8.91    0.82
   9  -5   3   10.69    0.58
  -9   5  -4   15.49    1.55
  -9   5  -4   15.54    1.17
   9  -5   4   15.15    1.47
  -9   5  -5    0.65    0.64
  -9   5  -5    1.58    0.46
   9  -5   5    0.99    0.63
  -9   5  -6   19.39    1.80
  -9   5  -6   21.22    1.29
   9  -5   6   21.70    1.87
  -9   5  -7   65.88    3.40
   9  -5   7   67.22    3.37
  -9   5  -8   -0.09    0.63
   9  -5   8   -0.11    0.57
  -9   5  -9    3.58    0.92
   9  -5   9    4.80    0.97
  -9   5 -10   83.74    4.15
  -9   4  11   -0.12    0.56
   9  -4 -11    0.41    0.57
  -9   4  10  274.18    7.98
   9  -4 -10  278.33    7.83
  -9   4   9   84.09    3.84
   9  -4  -9   72.72    3.48
  -9   4   8    4.32    1.00
   9  -4  -8    4.15    0.87
  -9   4   7  230.96    6.72
   9  -4  -7  235.75    6.47
  -9   4   6  191.18    5.77
   9  -4  -6  179.85    5.32
  -9   4   5   21.48    1.69
   9  -4  -5   21.93    1.58
   9  -4  -4   26.37    0.90
  -9   4   4   26.14    1.82
   9  -4  -4   25.81    1.63
   9  -4  -3   96.47    1.82
   9  -4  -3   95.15    1.82
  -9   4   3   97.55    3.60
   9  -4  -3   96.47    3.22
  -9   4   2   81.06    3.16
   9  -4  -2   80.96    2.77
   9  -4  -2   78.66    3.10
  -9   4   1   17.40    1.37
   9  -4  -1   19.85    1.52
   9  -4  -1   18.76    1.16
  -9   4   0   30.15    1.77
   9  -4   0   31.18    1.91
   9  -4   0   32.03    1.44
  -9   4  -1    7.61    0.88
   9  -4   1    6.92    0.71
   9  -4   1    6.30    0.94
   9  -4   1    6.61    0.58
  -9   4  -2   20.76    1.71
   9  -4   2   18.84    1.11
  -9   4  -2   19.87    1.35
   9  -4   2   20.72    1.59
   9  -4   2   19.49    0.85
  -9   4  -3   13.43    1.43
   9  -4   3   13.50    0.88
  -9   4  -3   12.54    1.03
   9  -4   3   13.27    1.30
  -9   4  -4    0.86    0.57
  -9   4  -4    0.44    0.33
   9  -4   4   -0.69    0.61
  -9   4  -5    0.01    0.35
  -9   4  -5    0.39    0.63
  -9   4  -5    0.11    0.29
   9  -4   5   -0.19    0.51
  -9   4  -6    2.20    0.77
  -9   4  -6    1.20    0.42
   9  -4   6    1.09    0.60
  -9   4  -7   -0.31    0.63
   9  -4   7    0.76    0.62
  -9   4  -8    8.21    1.23
   9  -4   8    5.97    1.05
  -9   4  -9   -0.02    0.56
   9  -4   9    1.36    0.67
  -9   4 -10    1.97    0.82
   9  -4  10    2.98    0.92
   9  -3 -12   44.34    2.89
  -9   3  11   19.66    1.94
   9  -3 -11   16.96    1.76
  -9   3  10   19.26    1.85
   9  -3 -10   17.46    1.72
  -9   3   9   15.85    1.66
   9  -3  -9   14.25    1.53
  -9   3   8  248.52    7.06
   9  -3  -8  238.98    6.71
  -9   3   7    1.69    0.69
   9  -3  -7    2.63    0.71
  -9   3   6   78.84    3.41
   9  -3  -6   79.31    3.20
  -9   3   5  166.10    5.17
   9  -3  -5  173.90    4.92
  -9   3   4   71.60    3.07
   9  -3  -4   74.11    2.83
   9  -3  -3   18.23    0.88
  -9   3   3   15.77    1.36
   9  -3  -3   15.86    1.26
   9  -3  -3   16.83    1.23
   9  -3  -2  208.25    4.10
  -9   3   2  204.63    5.49
   9  -3  -2  204.19    4.96
   9  -3  -2  201.94    5.36
   9  -3  -1  346.23    6.11
  -9   3   1  327.87    7.53
   9  -3  -1  319.00    7.54
   9  -3  -1  329.72    6.85
   9  -3   0   95.41    2.29
   9  -3   0   95.92    3.24
  -9   3   0   90.32    3.14
   9  -3   0   91.88    3.34
   9  -3   0   99.01    2.69
   9  -3   1   73.24    1.96
  -9   3  -1   71.13    2.62
   9  -3   1   69.55    2.24
   9  -3   1   63.65    2.78
   9  -3   1   69.37    1.99
   9  -3   2   20.86    1.00
   9  -3   2   19.40    1.01
  -9   3  -2   17.61    1.21
   9  -3   2   18.06    1.48
   9  -3   3  304.55    5.99
  -9   3  -3  286.05    7.51
   9  -3   3  293.88    5.60
  -9   3  -3  297.47    6.37
   9  -3   3  293.67    7.32
  -9   3  -4   27.75    1.65
  -9   3  -4   29.63    2.06
  -9   3  -4   27.06    1.35
   9  -3   4   26.46    1.86
  -9   3  -5   78.25    2.86
  -9   3  -5   78.20    3.47
  -9   3  -5   85.70    2.44
   9  -3   5   81.74    3.46
  -9   3  -6   78.02    3.52
  -9   3  -6   79.61    2.17
   9  -3   6   75.70    3.41
  -9   3  -7   28.90    1.48
  -9   3  -7   28.41    2.10
   9  -3   7   26.85    2.10
  -9   3  -8   17.75    1.72
   9  -3   8   19.74    1.84
  -9   3  -9   13.71    1.57
   9  -3   9   17.59    1.80
  -9   3 -10   15.07    1.67
   9  -3  10   12.18    1.54
  -9   3 -11   22.31    2.06
   9  -2 -12    4.98    1.04
  -9   2  11   23.89    2.13
   9  -2 -11   24.26    2.07
  -9   2  10   17.63    1.80
   9  -2 -10   14.27    1.57
  -9   2   9    1.07    0.62
   9  -2  -9   -0.28    0.59
  -9   2   8    1.14    0.66
   9  -2  -8    2.81    0.76
  -9   2   7  183.40    5.69
   9  -2  -7  180.81    5.40
  -9   2   6   15.75    1.50
   9  -2  -6   15.16    1.34
  -9   2   5   42.93    2.36
   9  -2  -5   40.27    2.11
  -9   2   4   39.25    2.19
   9  -2  -4   41.89    1.95
   9  -2  -4   37.88    1.95
   9  -2  -3  167.49    3.91
  -9   2   3  164.32    4.82
   9  -2  -3  164.04    4.41
   9  -2  -3  163.64    4.45
   9  -2  -2   14.95    0.91
  -9   2   2   12.99    1.18
   9  -2  -2   15.42    1.19
   9  -2  -2   15.03    1.08
   9  -2  -1    1.07    0.29
  -9   2   1    1.29    0.47
   9  -2  -1    1.34    0.46
   9  -2  -1    0.83    0.29
   9  -2  -1    0.72    0.42
   9  -2   0  129.62    3.21
   9  -2   0  129.96    3.84
  -9   2   0  126.23    3.77
   9  -2   0  126.49    3.94
   9  -2   1   17.56    1.02
   9  -2   1   15.66    1.14
  -9   2  -1   17.97    1.23
   9  -2   1   16.53    1.32
   9  -2   2    6.01    0.64
   9  -2   2    5.54    0.46
  -9   2  -2    4.96    0.63
   9  -2   2    4.90    0.76
   9  -2   3    4.34    0.59
  -9   2  -3    3.53    0.82
  -9   2  -3    4.06    0.55
   9  -2   3    4.15    0.30
   9  -2   3    2.89    0.71
  -9   2  -4  198.38    5.26
   9  -2   4  211.34    4.99
  -9   2  -4  202.06    5.94
  -9   2  -4  215.37    4.59
   9  -2   4  203.88    5.79
  -9   2  -5    4.93    0.71
   9  -2   5    5.40    0.68
  -9   2  -5    5.66    1.04
  -9   2  -5    5.59    0.52
   9  -2   5    3.90    0.81
  -9   2  -6   26.82    1.51
  -9   2  -6   23.71    1.85
   9  -2   6   26.41    1.59
   9  -2   6   22.38    1.81
  -9   2  -7  103.66    4.16
  -9   2  -7  114.49    3.31
   9  -2   7  116.98    4.42
  -9   2  -8    2.19    0.73
   9  -2   8    3.36    0.96
  -9   2  -9   29.35    2.37
   9  -2   9   30.77    2.30
  -9   2 -10   63.44    3.36
   9  -2  10   65.14    3.51
  -9   2 -11   55.91    3.32
  -9   2 -12   27.89    2.31
   9  -1 -12    7.82    1.32
  -9   1  11    4.87    1.04
   9  -1 -11    4.48    1.05
  -9   1  10   12.27    1.53
   9  -1 -10    8.98    1.28
  -9   1   9    0.37    0.54
   9  -1  -9    0.68    0.61
  -9   1   8   64.68    3.22
   9  -1  -8   68.69    3.17
  -9   1   7    0.93    0.50
   9  -1  -7    0.68    0.50
   9  -1  -6    2.92    0.53
  -9   1   6    2.88    0.71
   9  -1  -6    3.16    0.72
  -9   1   5    0.76    0.53
   9  -1  -5    0.11    0.31
   9  -1  -5   -0.55    0.52
  -9   1   4   44.46    2.34
   9  -1  -4   44.70    1.92
   9  -1  -4   46.88    2.18
  -9   1   3    1.11    0.56
   9  -1  -3    0.80    0.33
   9  -1  -3    1.11    0.41
  -9   1   3    1.07    0.44
   9  -1  -2  109.41    3.14
  -9   1   2  108.58    3.61
   9  -1  -2  109.70    3.35
   9  -1  -1   30.95    1.50
   9  -1  -1   31.09    1.73
  -9   1   1   30.45    1.71
   9  -1  -1   31.34    1.67
   9  -1   0   13.77    0.98
   9  -1   0   11.21    1.00
  -9   1   0   14.24    1.11
   9  -1   0   13.17    1.13
   9  -1   1   80.44    2.61
   9  -1   1   80.95    2.13
   9  -1   1   77.00    2.67
  -9   1  -1   78.60    2.68
   9  -1   1   79.93    2.96
   9  -1   2   11.48    0.95
   9  -1   2   13.65    0.60
   9  -1   2   12.52    0.95
  -9   1  -2   13.75    0.98
   9  -1   2   13.17    0.58
   9  -1   2   13.25    1.23
   9  -1   3   74.13    2.59
  -9   1  -3   73.76    2.28
   9  -1   3   67.23    2.87
   9  -1   4   18.48    1.27
  -9   1  -4   16.31    1.27
  -9   1  -4   18.06    1.54
  -9   1  -4   18.62    0.96
   9  -1   4   16.63    1.46
  -9   1  -5   38.08    1.92
  -9   1  -5   34.39    2.15
  -9   1  -5   40.24    1.96
   9  -1   5   36.39    1.88
   9  -1   5   37.43    2.24
  -9   1  -6    9.41    0.93
  -9   1  -6   10.10    1.26
   9  -1   6   10.53    1.09
  -9   1  -6   10.19    0.97
   9  -1   6   10.66    1.26
  -9   1  -7   11.91    1.00
  -9   1  -7   10.49    1.27
   9  -1   7   10.16    1.13
   9  -1   7   12.98    1.40
  -9   1  -8   13.66    1.50
   9  -1   8   14.20    1.34
   9  -1   8   16.97    1.74
  -9   1  -9    1.80    1.12
   9  -1   9    0.53    0.60
  -9   1 -10    0.45    0.56
   9  -1  10    1.28    0.65
  -9   1 -11   10.85    1.43
  -9   1 -12   12.66    1.55
   9   0 -12    4.39    1.02
  -9   0  11   10.66    1.46
   9   0 -11   11.82    1.46
   9   0 -11   12.17    1.53
  -9   0  10   -0.57    0.65
   9   0 -10   -0.40    0.68
   9   0 -10    1.19    0.69
  -9   0   9   27.18    2.13
   9   0  -9   27.16    2.04
   9   0  -9   27.32    2.07
  -9   0   8   33.69    2.30
   9   0  -8   36.05    2.24
   9   0  -8   34.54    2.21
  -9   0   7    5.63    0.98
   9   0  -7    7.15    0.66
   9   0  -7    5.68    0.94
   9   0  -7    7.38    1.03
  -9   0   6   16.10    1.50
   9   0  -6   16.78    1.41
   9   0  -6   17.68    1.02
  -9   0   5   29.14    1.95
   9   0  -5   30.45    1.82
   9   0  -5   31.22    1.43
   9   0  -4   20.36    1.40
  -9   0   4   18.14    1.48
   9   0  -4   21.51    1.20
  -9   0   3    1.14    0.48
   9   0  -3    0.72    0.29
  -9   0   3    1.49    0.43
   9   0  -3    0.70    0.38
   9   0  -2   71.33    2.59
   9   0  -2   70.67    2.46
  -9   0   2   73.45    2.85
  -9   0   2   70.72    2.58
   9   0  -2   76.31    2.55
   9   0  -1    2.76    0.56
  -9   0   1    5.12    0.78
   9   0  -1    2.91    0.54
   9   0  -1    2.73    0.51
  -9   0   1    2.74    0.53
   9   0  -1    4.39    0.55
   9   0   0    0.37    0.33
  -9   0   0    1.05    0.40
   9   0   0    1.08    0.42
   9   0   0    0.77    0.38
  -9   0   0    1.01    0.33
   9   0   0    1.14    0.32
   9   0   1   70.44    2.60
   9   0   1   66.74    2.45
   9   0   1   74.16    1.91
  -9   0  -1   74.03    2.55
   9   0   1   70.71    2.72
  -9   0  -1   73.06    2.15
   9   0   2    4.94    0.69
  -9   0  -2    5.53    0.81
  -9   0  -2    5.00    0.60
   9   0   2    5.15    0.63
   9   0   2    4.67    0.78
   9   0   3   90.04    3.08
  -9   0  -3   87.82    3.23
   9   0   3   85.78    2.51
   9   0   3   85.18    3.25
  -9   0  -4    0.15    0.38
   9   0   4    0.38    0.33
   9   0   4   -0.20    0.43
  -9   0  -5   12.62    1.29
  -9   0  -5   12.18    1.11
   9   0   5   11.68    1.12
   9   0   5   11.21    1.24
  -9   0  -6  118.42    4.21
  -9   0  -6  124.64    3.78
   9   0   6  118.30    3.97
   9   0   6  117.44    4.30
  -9   0  -7  101.27    3.94
  -9   0  -7  104.88    3.32
   9   0   7  106.34    3.84
   9   0   7  102.83    4.11
  -9   0  -8    0.54    0.52
   9   0   8    1.06    0.61
   9   0   8   -0.41    0.64
  -9   0  -9    1.51    0.68
   9   0   9    3.52    0.83
   9   0   9    2.28    0.79
  -9   0 -10  185.54    5.97
   9   0  10  190.87    6.01
   9   0  10  198.61    6.54
  -9   0 -11   13.91    1.59
  -9   0 -12    0.10    0.66
  -9  -1  12    7.64    1.30
  -9  -1  11    9.36    1.36
   9   1 -11    5.21    1.04
  -9  -1  10    5.74    1.13
   9   1 -10    6.20    1.06
  -9  -1   9    0.17    0.53
   9   1  -9    0.35    0.51
  -9  -1   8   68.28    3.35
   9   1  -8   60.71    3.00
  -9  -1   7    9.73    1.27
   9   1  -7    9.16    1.16
  -9  -1   6   12.27    1.38
   9   1  -6   15.78    1.38
   9   1  -6   13.46    0.75
  -9  -1   5   17.20    1.51
   9   1  -5   17.07    1.38
   9   1  -5   19.01    0.96
  -9  -1   4   13.00    1.27
   9   1  -4   15.78    1.24
   9   1  -4   14.94    0.90
  -9  -1   3    6.31    0.87
   9   1  -3    7.78    0.71
   9   1  -3    7.58    0.82
   9   1  -2   27.72    1.67
  -9  -1   2   30.01    1.98
  -9  -1   2   27.41    1.71
   9   1  -2   29.93    1.52
   9   1  -2   28.67    1.42
  -9  -1   2   26.24    1.54
   9   1  -1   52.93    2.35
  -9  -1   1   51.95    2.62
  -9  -1   1   55.19    2.37
   9   1  -1   54.79    1.98
   9   1  -1   55.33    2.38
   9   1  -1   56.29    2.15
  -9  -1   1   54.38    2.15
   9   1   0   10.35    1.02
  -9  -1   0    9.70    1.12
   9   1   0   11.48    0.77
  -9  -1   0   10.06    0.98
   9   1   0   11.99    1.05
   9   1   0   10.93    0.99
  -9  -1   0    9.62    0.84
   9   1   1    9.02    0.98
  -9  -1  -1    8.73    1.04
   9   1   1    8.05    0.83
   9   1   1    8.57    0.55
  -9  -1  -1    8.02    0.70
   9   1   1    8.19    0.91
   9   1   2   35.51    1.93
  -9  -1  -2   35.46    2.05
   9   1   2   36.79    1.62
  -9  -1  -2   37.39    1.41
   9   1   2   38.51    1.98
  -9  -1  -3   18.77    1.47
   9   1   3   18.85    1.43
   9   1   3   17.52    1.40
  -9  -1  -4    1.32    0.54
   9   1   4    1.05    0.48
   9   1   4    1.24    0.58
  -9  -1  -5    1.89    0.54
   9   1   5    2.72    0.62
   9   1   5    2.00    0.61
  -9  -1  -6   24.87    1.78
  -9  -1  -6   30.00    1.76
   9   1   6   27.57    1.89
   9   1   6   25.88    1.91
  -9  -1  -7    9.75    1.15
  -9  -1  -7    8.97    0.98
   9   1   7    9.20    1.15
   9   1   7   11.86    1.37
  -9  -1  -8    9.24    1.20
   9   1   8    9.63    1.21
   9   1   8    6.22    1.07
  -9  -1  -9    3.26    0.96
   9   1   9    0.83    0.65
   9   1   9    1.62    0.74
  -9  -1 -10    2.31    0.68
   9   1  10    2.17    0.83
  -9  -1 -11    5.02    0.98
   9   1  11    6.52    1.10
  -9  -2  11    0.86    0.68
   9   2 -11   -0.21    0.57
  -9  -2  10    1.28    0.58
   9   2 -10    4.06    0.92
  -9  -2   9   72.48    3.58
   9   2  -9   71.59    3.43
  -9  -2   9   74.89    3.68
  -9  -2   8   57.79    3.12
   9   2  -8   54.71    2.86
  -9  -2   8   50.82    2.96
  -9  -2   7   24.37    1.98
   9   2  -7   25.21    1.83
  -9  -2   7   22.95    1.89
  -9  -2   6   82.60    3.65
   9   2  -6   81.51    3.27
  -9  -2   6   77.82    3.46
  -9  -2   5  109.91    4.25
  -9  -2   5  107.35    4.05
   9   2  -5  116.20    3.85
  -9  -2   4   41.02    2.46
   9   2  -4   39.41    2.02
   9   2  -4   41.04    1.36
  -9  -2   3   30.63    2.07
   9   2  -3   31.48    1.69
   9   2  -3   31.07    1.30
   9   2  -2  152.85    4.68
  -9  -2   2  159.02    5.12
   9   2  -2  160.80    4.22
  -9  -2   2  158.53    4.46
   9   2  -2  170.99    3.93
   9   2  -1   67.65    2.87
  -9  -2   1   73.70    3.24
   9   2  -1   77.83    2.46
  -9  -2   1   72.30    2.65
   9   2  -1   76.48    2.49
   9   2   0   66.52    2.83
  -9  -2   0   68.99    3.07
   9   2   0   72.14    2.16
   9   2   0   65.94    2.57
  -9  -2   0   67.83    2.44
   9   2   0   66.34    2.44
   9   2   1   66.21    2.83
  -9  -2  -1   64.23    2.96
   9   2   1   72.69    1.91
   9   2   1   65.61    2.45
  -9  -2  -1   64.31    2.27
   9   2   1   71.58    2.65
   9   2   2   63.41    2.79
  -9  -2  -2   66.10    2.93
   9   2   2   63.67    2.26
   9   2   2   63.22    2.59
  -9  -2  -3   37.91    2.17
   9   2   3   40.29    2.19
   9   2   3   37.58    2.05
  -9  -2  -4   14.78    1.36
   9   2   4   16.80    1.47
   9   2   4   16.57    1.41
  -9  -2  -5   35.66    2.04
   9   2   5   32.72    2.07
   9   2   5   34.21    2.10
  -9  -2  -6   26.64    1.76
   9   2   6   24.94    1.85
  -9  -2  -7   86.27    3.20
   9   2   7   78.28    3.50
  -9  -2  -8   40.18    2.29
   9   2   8   39.08    2.48
  -9  -2  -9    0.36    0.51
   9   2   9   -0.03    0.52
  -9  -2 -10   44.16    2.51
   9   2  10   43.99    2.83
   9   2  11   39.43    2.75
   9   3 -11   19.67    1.96
  -9  -3  10   -0.16    0.60
   9   3 -10    1.24    0.61
  -9  -3   9   15.66    1.70
   9   3  -9   16.67    1.68
  -9  -3   8   23.37    1.99
   9   3  -8   18.90    1.71
  -9  -3   7   60.88    3.21
   9   3  -7   52.49    2.75
  -9  -3   6    2.48    0.77
   9   3  -6    2.31    0.68
  -9  -3   5   10.36    1.31
   9   3  -5   10.83    1.15
   9   3  -4   77.12    3.00
  -9  -3   4   84.33    3.68
   9   3  -3   13.28    1.14
  -9  -3   3   13.60    1.47
   9   3  -2   41.45    2.31
   9   3  -2   44.58    1.99
  -9  -3   2   44.54    2.56
   9   3  -1   86.05    3.46
  -9  -3   1   95.16    3.82
   9   3  -1   96.29    2.91
   9   3   0   53.18    2.63
  -9  -3   0   53.39    2.76
   9   3   0   53.76    1.90
   9   3   0   50.49    2.28
  -9  -3   0   49.61    2.16
   9   3   1   47.79    2.50
  -9  -3  -1   49.02    2.62
   9   3   1   49.48    1.63
   9   3   1   43.51    2.02
  -9  -3  -1   45.65    1.99
  -9  -3  -2   83.38    3.47
   9   3   2   79.58    3.33
  -9  -3  -3   36.69    2.22
   9   3   3   36.81    2.24
  -9  -3  -4   21.04    1.64
   9   3   4   19.42    1.65
  -9  -3  -5   83.01    3.40
   9   3   5   80.29    3.50
  -9  -3  -6   45.25    2.41
   9   3   6   43.52    2.60
  -9  -3  -7   17.14    1.46
   9   3   7   18.82    1.73
   9   3   8   97.30    4.18
   9   3   9   47.06    2.91
   9   3  10    5.44    1.13
   9   4 -10    2.40    0.86
  -9  -4   9    4.07    0.92
   9   4  -9    3.54    0.92
  -9  -4   8    8.79    1.35
   9   4  -8    7.54    1.14
  -9  -4   7   26.06    2.14
   9   4  -7   26.73    2.00
  -9  -4   6    1.38    0.68
   9   4  -6    2.21    0.64
  -9  -4   5    5.70    1.02
   9   4  -5    7.26    0.97
  -9  -4   4   23.79    1.99
   9   4  -4   23.59    1.65
  -9  -4   3    1.19    0.69
   9   4  -3   -0.12    0.34
  -9  -4   2    2.30    0.76
   9   4  -2    4.06    0.89
   9   4  -2    3.21    0.60
   9   4  -1    9.49    1.20
   9   4  -1   11.30    0.96
  -9  -4   1    9.37    1.25
   9   4   0   10.94    1.26
   9   4   0   10.45    0.87
  -9  -4   0    9.55    1.23
  -9  -4  -1    1.80    0.73
   9   4   1    3.36    0.79
  -9  -4  -2    4.04    0.85
   9   4   2    3.17    0.80
  -9  -4  -3    0.67    0.67
   9   4   3   -0.52    0.68
  -9  -4  -4   13.41    1.46
   9   4   4   11.27    1.37
  -9  -4  -5    0.60    0.56
   9   4   5    0.75    0.60
  -9  -4  -6    7.79    1.11
   9   4   6    8.91    1.27
  -9  -4  -7    0.76    0.47
   9   4   7    1.98    0.82
   9   4   8    4.22    0.96
   9   4   9    9.57    1.44
   9   5  -9    2.23    0.94
  -9  -5   8    1.22    0.76
   9   5  -8    1.33    0.78
  -9  -5   7   31.02    2.42
   9   5  -7   32.67    2.25
  -9  -5   6   59.66    3.35
   9   5  -6   59.17    2.97
  -9  -5   5    5.78    1.15
   9   5  -5    5.75    0.93
  -9  -5   4    0.17    0.63
   9   5  -4    0.60    0.47
   9   5  -3   48.58    2.40
  -9  -5   3   53.55    3.05
   9   5  -2   45.38    2.69
  -9  -5   2   52.08    2.99
   9   5  -2   48.13    2.26
  -9  -5   1    1.30    0.66
   9   5  -1   -0.95    0.71
   9   5  -1    0.90    0.44
  -9  -5   0   67.15    3.38
   9   5   0   61.21    3.15
  -9  -5  -1   43.87    2.69
   9   5   1   44.61    2.68
  -9  -5  -2    6.86    1.11
   9   5   2    6.22    1.03
  -9  -5  -3   23.31    1.94
   9   5   3   20.24    1.85
  -9  -5  -4   24.21    1.96
   9   5   4   25.00    2.08
  -9  -5  -5   47.33    2.73
   9   5   5   43.42    2.80
  -9  -5  -6    0.83    0.75
   9   5   6    0.75    0.62
  -9  -5  -7   10.11    1.31
   9   5   7    7.78    1.25
   9   6  -8   12.90    1.52
   9   6  -7    0.83    0.60
   9   6  -6   50.32    2.85
  -9  -6   5   42.14    2.84
   9   6  -5   36.67    2.32
  -9  -6   4   37.13    2.66
   9   6  -4   35.04    2.17
  -9  -6   3    8.45    1.39
   9   6  -3    8.32    1.26
   9   6  -3    7.74    1.02
   9   6  -2   11.89    1.49
   9   6  -2   14.03    1.27
  -9  -6   2   15.16    1.74
  -9  -6   1  159.13    5.69
   9   6  -1  146.62    5.40
  -9  -6   0    7.98    1.29
   9   6   0    7.71    1.18
  -9  -6  -1    3.07    0.93
   9   6   1    3.60    0.97
  -9  -6  -2   40.83    2.69
   9   6   2   41.64    2.72
  -9  -6  -3   26.71    2.19
   9   6   3   28.82    2.30
  -9  -6  -4    2.70    0.91
   9   6   4    4.12    0.96
  -9  -6  -5   19.84    1.86
   9   6   5   21.53    2.01
  -9  -6  -6   12.75    1.46
  -9  -6  -7    0.97    0.68
   9   7  -7   14.18    1.63
   9   7  -6   23.40    1.99
   9   7  -5   38.04    2.44
   9   7  -4   42.38    2.50
   9   7  -3    6.00    1.18
   9   7  -3    6.33    0.99
  -9  -7   2   42.62    2.93
   9   7  -2   39.17    2.74
  -9  -7   1   32.89    2.58
   9   7  -1   28.18    2.31
  -9  -7   0  119.26    4.99
   9   7   0  119.71    4.96
  -9  -7  -1   23.07    2.11
   9   7   1   18.61    1.90
  -9  -7  -2   26.96    2.26
   9   7   2   22.81    2.12
  -9  -7  -3   32.95    2.49
  -9  -7  -4   40.21    2.76
  -9  -7  -5    4.81    1.11
  -9  -7  -6   11.81    1.48
  -9  -7  -7   30.91    2.41
   9   8  -6    0.37    0.63
   9   8  -5   -0.85    0.71
  10 -11  -4   27.90    2.24
  10 -11  -3   78.13    3.72
  10 -11  -2    4.62    0.96
 -10  11  -3   34.45    2.53
 -10  11  -4    0.67    0.65
  10 -10  -6    4.30    1.01
  10 -10  -5   32.34    2.38
  10 -10  -4    9.39    1.29
  10 -10  -3    1.65    0.76
 -10  10   2   28.40    2.29
  10 -10  -2   26.25    2.01
 -10  10   1   51.30    3.11
  10 -10  -1   55.98    2.82
 -10  10   0    1.50    0.78
 -10  10  -1    3.29    0.91
 -10  10  -2   16.92    1.76
 -10  10  -3   73.66    3.62
 -10  10  -4    3.20    0.91
 -10  10  -5   -0.14    0.57
  10  -9  -7   16.75    1.76
  10  -9  -6   37.46    2.54
  10  -9  -5   21.08    1.87
 -10   9   4   29.37    2.32
  10  -9  -4   26.57    2.05
 -10   9   3   50.06    3.00
  10  -9  -3   46.37    2.62
 -10   9   2   12.03    1.50
  10  -9  -2   13.68    1.42
 -10   9   1   17.17    1.71
  10  -9  -1   17.16    1.50
 -10   9   0   41.36    2.63
  10  -9   0   43.16    2.82
 -10   9  -1   13.84    1.55
  10  -9   1   18.32    1.90
 -10   9  -2    0.24    0.51
  10  -9   2    0.84    0.67
 -10   9  -3   71.75    3.76
 -10   9  -3   63.33    3.19
  10  -9   3   68.10    3.62
 -10   9  -4   38.43    2.40
 -10   9  -5    8.45    1.23
  10  -8  -8   33.82    2.47
  10  -8  -7   15.76    1.64
 -10   8   6    7.12    1.21
  10  -8  -6    5.20    0.99
 -10   8   5   10.98    1.42
  10  -8  -5    9.15    1.21
 -10   8   4   27.27    2.19
  10  -8  -4   23.75    1.84
 -10   8   3   22.20    1.92
  10  -8  -3   19.39    1.60
 -10   8   2   27.03    2.06
  10  -8  -2   24.34    1.72
 -10   8   1   20.15    1.78
  10  -8  -1   21.59    1.58
  10  -8   0   12.57    1.49
 -10   8   0   13.38    1.61
  10  -8   0   14.75    1.24
 -10   8  -1   31.37    2.16
  10  -8   1   32.96    2.41
 -10   8  -2   37.74    2.35
  10  -8   2   41.06    2.67
 -10   8  -3   11.42    1.51
 -10   8  -3    9.49    1.22
  10  -8   3   10.45    1.36
 -10   8  -4   23.68    2.15
 -10   8  -4   20.70    1.67
  10  -8   4   22.05    2.06
 -10   8  -5   48.93    3.13
 -10   8  -5   54.08    2.69
  10  -8   5   53.06    3.16
  10  -7  -9   10.67    1.45
  10  -7  -8    7.62    1.18
 -10   7   7    3.19    0.87
  10  -7  -7    1.36    0.71
 -10   7   6    6.42    1.21
  10  -7  -6    5.39    0.99
 -10   7   5    0.09    0.60
  10  -7  -5    0.68    0.56
 -10   7   4    0.23    0.56
  10  -7  -4   -0.44    0.47
 -10   7   3    0.33    0.60
  10  -7  -3   -0.38    0.41
 -10   7   2    2.64    0.78
  10  -7  -2    3.02    0.64
  10  -7  -1    2.42    0.81
 -10   7   1    2.46    0.76
  10  -7  -1    1.22    0.45
 -10   7   0    7.63    1.07
  10  -7   0    9.98    1.31
  10  -7   0    8.28    0.87
 -10   7  -1    1.34    0.65
  10  -7   1    1.51    0.73
 -10   7  -2    0.01    0.47
  10  -7   2    1.00    0.68
 -10   7  -3   11.57    1.45
 -10   7  -3   10.48    1.17
  10  -7   3   12.26    1.49
 -10   7  -4    3.84    1.00
 -10   7  -4    2.11    0.59
  10  -7   4    4.75    1.04
 -10   7  -5    3.52    1.03
 -10   7  -5    1.83    0.54
  10  -7   5    1.45    0.73
 -10   7  -6   42.06    2.86
  10  -7   6   43.98    2.87
  10  -6 -10   42.53    2.86
  10  -6  -9   11.98    1.52
 -10   6   8    3.34    0.93
  10  -6  -8    1.37    0.65
 -10   6   7   98.29    4.26
  10  -6  -7   91.42    3.90
 -10   6   6   35.50    2.45
  10  -6  -6   31.49    2.13
 -10   6   5   36.10    2.42
  10  -6  -5   28.72    1.94
 -10   6   4   42.27    2.57
  10  -6  -4   42.60    2.28
 -10   6   3   49.19    2.71
  10  -6  -3   49.41    2.38
 -10   6   2   34.25    2.18
  10  -6  -2   33.57    1.86
  10  -6  -2   35.50    2.28
  10  -6  -1    1.92    0.59
 -10   6   1    1.62    0.60
  10  -6  -1    1.78    0.50
 -10   6   0   19.54    1.59
  10  -6   0   20.39    1.26
  10  -6   0   17.75    1.62
 -10   6  -1    2.06    0.65
  10  -6   1    2.65    0.81
  10  -6   1    3.55    0.52
 -10   6  -2    0.34    0.44
  10  -6   2    1.04    0.73
 -10   6  -3    4.00    0.91
 -10   6  -3    4.79    0.84
  10  -6   3    5.91    1.02
 -10   6  -4    5.53    1.10
 -10   6  -4    5.36    0.82
  10  -6   4    5.55    1.04
 -10   6  -5    0.63    0.64
 -10   6  -5    0.82    0.43
  10  -6   5   -0.34    0.57
 -10   6  -6    0.44    0.62
  10  -6   6    1.28    0.74
 -10   6  -7    1.71    0.76
  10  -6   7    0.09    0.59
  10  -5 -10    7.18    1.21
 -10   5   9   22.47    2.09
  10  -5  -9   25.93    2.11
 -10   5   8   61.28    3.34
  10  -5  -8   55.43    3.01
 -10   5   7   11.73    1.47
  10  -5  -7   11.20    1.34
 -10   5   6   33.75    2.36
  10  -5  -6   35.17    2.18
 -10   5   5   67.75    3.29
  10  -5  -5   68.79    3.03
 -10   5   4   65.37    3.16
  10  -5  -4   66.83    2.85
  10  -5  -3    2.89    0.71
 -10   5   3    3.51    0.78
  10  -5  -3    2.87    0.63
 -10   5   2  248.33    6.65
  10  -5  -2  243.11    5.91
  10  -5  -2  241.09    6.60
 -10   5   1  220.25    6.12
  10  -5  -1  233.41    5.45
  10  -5  -1  221.28    6.28
 -10   5   0   15.09    1.36
  10  -5   0   15.20    1.45
  10  -5   0   17.62    1.12
 -10   5  -1    2.00    0.61
  10  -5   1    3.30    0.52
  10  -5   1    2.55    0.85
 -10   5  -2  197.08    5.30
  10  -5   2  189.68    5.85
 -10   5  -3   78.03    3.69
 -10   5  -3   75.90    2.90
  10  -5   3   79.64    3.54
 -10   5  -4   16.93    1.74
 -10   5  -4   13.41    1.12
  10  -5   4   12.52    1.45
 -10   5  -5   24.15    2.06
 -10   5  -5   24.13    1.44
  10  -5   5   22.27    1.92
 -10   5  -6   41.07    2.71
  10  -5   6   46.89    2.85
 -10   5  -7    3.24    0.94
  10  -5   7    5.22    1.10
 -10   5  -8    5.29    1.02
  10  -5   8    6.86    1.22
  10  -4 -10   21.11    1.94
 -10   4   9    6.31    1.17
  10  -4  -9    7.04    1.18
 -10   4   8   28.38    2.22
  10  -4  -8   27.28    2.09
 -10   4   7   61.17    3.22
  10  -4  -7   59.89    2.99
 -10   4   6   51.20    2.86
  10  -4  -6   50.30    2.60
 -10   4   5    0.47    0.52
  10  -4  -5    0.69    0.48
 -10   4   4   23.36    1.81
  10  -4  -4   24.80    1.73
  10  -4  -4   22.47    1.60
 -10   4   3  266.11    7.00
  10  -4  -3  252.46    6.66
  10  -4  -3  271.33    6.40
 -10   4   2    0.61    0.45
  10  -4  -2    0.58    0.34
  10  -4  -2    0.50    0.40
 -10   4   1  103.27    3.72
  10  -4  -1  106.09    3.83
  10  -4  -1  104.71    3.14
 -10   4   0  160.55    4.75
  10  -4   0  159.59    5.01
  10  -4   0  165.09    3.98
 -10   4  -1    2.43    0.65
  10  -4   1    2.85    0.80
  10  -4   1    2.45    0.44
 -10   4  -2  159.54    4.52
  10  -4   2  164.76    5.18
 -10   4  -3   40.47    1.94
  10  -4   3   41.15    2.46
 -10   4  -4  111.09    4.48
 -10   4  -4  124.78    3.56
  10  -4   4  118.76    4.46
 -10   4  -5   48.01    2.88
  10  -4   5   48.03    2.76
 -10   4  -6   46.94    2.90
  10  -4   6   58.91    3.12
 -10   4  -7   93.45    4.22
  10  -4   7   96.69    4.24
 -10   4  -8   26.72    2.24
  10  -4   8   26.53    2.21
 -10   4  -9   30.37    2.43
  10  -3 -11    0.75    0.63
 -10   3  10    1.67    0.84
  10  -3 -10    2.57    0.85
 -10   3   9   -0.01    0.59
  10  -3  -9    0.69    0.61
 -10   3   8    0.79    0.69
  10  -3  -8    1.31    0.58
 -10   3   7    1.48    0.66
  10  -3  -7    3.86    0.85
 -10   3   6   12.21    1.43
  10  -3  -6   14.37    1.38
  10  -3  -5   -0.08    0.38
 -10   3   5    0.92    0.59
  10  -3  -5   -0.17    0.42
  10  -3  -4    0.23    0.41
 -10   3   4    0.10    0.52
  10  -3  -4    0.34    0.43
  10  -3  -4    0.66    0.41
  10  -3  -3   54.61    1.69
 -10   3   3   51.06    2.59
  10  -3  -3   49.34    2.24
  10  -3  -3   48.37    2.36
  10  -3  -2   38.52    1.33
 -10   3   2   35.77    2.10
  10  -3  -2   36.48    2.04
  10  -3  -2   36.32    1.79
  10  -3  -1    5.25    0.48
 -10   3   1    4.88    0.80
  10  -3  -1    4.53    0.61
  10  -3  -1    3.70    0.73
  10  -3   0   12.76    0.74
 -10   3   0   13.75    1.19
  10  -3   0   12.07    1.23
  10  -3   1   89.19    2.33
 -10   3  -1   85.06    3.06
  10  -3   1   79.18    3.31
  10  -3   2   41.35    1.55
 -10   3  -2   40.10    1.92
  10  -3   2   39.24    2.28
  10  -3   3   75.98    2.34
 -10   3  -3   76.34    2.64
  10  -3   3   72.14    3.23
 -10   3  -4    2.09    0.76
 -10   3  -4    2.22    0.46
  10  -3   4    2.00    0.69
 -10   3  -5   25.93    2.10
  10  -3   5   24.33    1.93
 -10   3  -6   16.07    1.67
  10  -3   6   14.28    1.58
 -10   3  -7    1.13    0.72
  10  -3   7    1.10    0.65
 -10   3  -8   14.12    1.62
  10  -3   8   13.68    1.60
 -10   3  -9   12.22    1.57
  10  -3   9   11.44    1.54
 -10   3 -10    8.47    1.29
  10  -2 -11   20.73    2.03
 -10   2  10   19.46    1.96
  10  -2 -10   18.34    1.81
 -10   2   9   11.57    1.51
  10  -2  -9   10.66    1.39
 -10   2   8   66.51    3.42
  10  -2  -8   70.73    3.32
 -10   2   7   18.87    1.76
  10  -2  -7   17.57    1.28
  10  -2  -7   16.55    1.52
 -10   2   6   21.71    1.85
  10  -2  -6   23.44    1.50
  10  -2  -6   23.95    1.75
 -10   2   5   44.19    2.54
  10  -2  -5   49.14    2.43
  10  -2  -5   48.01    2.19
  10  -2  -4   26.38    1.37
 -10   2   4   23.73    1.78
  10  -2  -4   21.76    1.54
  10  -2  -4   22.85    1.51
  10  -2  -3   23.78    1.26
 -10   2   3   24.30    1.74
  10  -2  -3   26.31    1.61
  10  -2  -3   23.21    1.50
  10  -2  -2   28.40    1.35
 -10   2   2   29.13    1.84
  10  -2  -2   27.17    1.69
  10  -2  -1   12.26    0.87
 -10   2   1   10.86    1.10
  10  -2  -1   13.07    1.21
  10  -2   0   51.32    1.88
 -10   2   0   55.15    2.40
  10  -2   0   51.91    2.45
  10  -2   1   29.77    1.42
  10  -2   1   32.81    1.75
 -10   2  -1   32.99    1.75
  10  -2   1   32.73    1.95
  10  -2   2   13.57    0.97
 -10   2  -2   14.45    1.10
  10  -2   2   14.85    1.39
  10  -2   3   68.38    2.41
 -10   2  -3   69.76    2.41
  10  -2   3   65.97    3.03
  10  -2   4  122.73    3.59
 -10   2  -4  123.44    3.22
  10  -2   4  114.29    4.25
 -10   2  -5   17.07    1.33
 -10   2  -5   15.37    1.61
  10  -2   5   17.01    1.25
  10  -2   5   16.79    1.62
 -10   2  -6   41.03    2.04
 -10   2  -6   42.42    2.61
  10  -2   6   41.73    2.08
  10  -2   6   40.36    2.56
 -10   2  -7    5.46    1.05
  10  -2   7    5.67    1.11
 -10   2  -8   37.79    2.58
  10  -2   8   35.55    2.55
 -10   2  -9    1.98    0.77
  10  -2   9    1.36    0.67
 -10   2 -10   23.63    2.09
  10  -1 -11   45.65    2.93
 -10   1  10   52.40    3.16
  10  -1 -10   55.63    3.15
 -10   1   9    1.28    0.64
  10  -1  -9    1.49    0.75
 -10   1   8    4.65    1.05
  10  -1  -8    4.51    0.90
 -10   1   7  110.26    4.37
  10  -1  -7  108.21    4.09
 -10   1   6   15.24    1.56
  10  -1  -6   16.21    1.14
  10  -1  -6   16.92    1.47
 -10   1   5    5.18    0.90
  10  -1  -5    5.87    0.89
  10  -1  -5    5.46    0.71
 -10   1   4   32.11    2.07
  10  -1  -4   34.95    1.76
  10  -1  -3   22.28    1.36
 -10   1   3   23.48    1.72
  10  -1  -3   24.95    1.50
  10  -1  -2   35.77    1.71
 -10   1   2   30.43    1.87
  10  -1  -2   32.81    1.78
  10  -1  -1   81.19    2.72
  10  -1  -1   85.10    2.65
 -10   1   1   78.58    3.04
  10  -1  -1   76.72    2.93
  10  -1   0   50.44    2.06
 -10   1   0   47.50    2.20
  10  -1   0   48.53    1.75
  10  -1   0   45.92    2.24
  10  -1   1   52.88    2.16
  10  -1   1   56.13    2.33
  10  -1   1   57.46    1.70
 -10   1  -1   57.79    2.34
  10  -1   1   50.87    2.47
  10  -1   2   32.74    1.69
 -10   1  -2   33.77    1.65
  10  -1   2   32.05    1.97
  10  -1   3   41.46    1.95
 -10   1  -3   36.94    2.12
 -10   1  -3   39.60    1.68
  10  -1   3   36.44    2.18
 -10   1  -4    5.01    0.81
  10  -1   4    5.62    0.79
  10  -1   4    5.04    0.89
 -10   1  -5   99.41    3.52
  10  -1   5  102.05    3.48
  10  -1   5   96.49    3.91
 -10   1  -6   53.44    2.90
 -10   1  -6   55.46    2.44
  10  -1   6   53.32    2.51
  10  -1   6   54.17    2.95
 -10   1  -7   16.81    1.70
  10  -1   7   17.48    1.48
  10  -1   7   20.80    1.87
 -10   1  -8   34.45    2.39
  10  -1   8   35.52    2.19
  10  -1   8   38.12    2.59
 -10   1  -9    5.33    1.05
  10  -1   9    5.35    1.12
 -10   1 -10    0.16    0.74
 -10   1 -11    1.10    0.67
  10   0 -11   21.68    2.02
 -10   0  10   -0.42    0.65
  10   0 -10    0.59    0.57
  10   0  -9  244.27    7.13
 -10   0   9  248.08    7.48
  10   0  -8   57.07    2.97
 -10   0   8   59.01    3.19
  10   0  -7   44.55    2.50
 -10   0   7   44.17    2.69
  10   0  -6   41.39    2.30
 -10   0   6   41.38    2.52
  10   0  -5   38.63    2.12
 -10   0   5   32.95    2.19
  10   0  -5   41.63    1.73
 -10   0   4    1.83    0.59
  10   0  -4    1.79    0.45
  10   0  -4    1.40    0.48
  10   0  -3   10.51    1.03
 -10   0   3   12.10    1.26
  10   0  -3   11.61    1.05
  10   0  -3   10.90    0.94
  10   0  -2   83.31    2.99
  10   0  -2   83.94    2.80
 -10   0   2   81.40    3.19
 -10   0   2   83.98    2.94
  10   0  -2   83.55    2.86
  10   0  -1   33.71    1.80
  10   0  -1   37.06    1.61
 -10   0   1   31.66    1.86
  10   0  -1   35.49    1.84
  10   0   0   30.93    1.73
 -10   0   0   29.15    1.71
  10   0   0   32.06    1.34
  10   0   0   29.49    1.73
  10   0   1   47.97    2.22
 -10   0  -1   51.63    2.64
 -10   0  -1   50.92    2.18
  10   0   1   51.20    2.38
  10   0   2   22.06    1.50
 -10   0  -2   25.84    1.80
 -10   0  -2   25.04    1.40
  10   0   2   22.08    1.62
 -10   0  -3    5.10    0.85
  10   0   3    5.16    0.81
  10   0   3    5.02    0.81
 -10   0  -4   28.53    1.87
  10   0   4   27.85    1.76
  10   0   4   27.01    1.93
 -10   0  -5   31.23    1.89
  10   0   5   29.47    1.85
  10   0   5   31.06    2.11
 -10   0  -6   24.11    1.62
  10   0   6   22.50    1.70
  10   0   6   22.72    1.90
 -10   0  -7   65.08    3.23
  10   0   7   64.89    3.01
  10   0   7   67.66    3.37
 -10   0  -8   -0.57    0.65
  10   0   8    0.47    0.51
  10   0   8    1.01    0.68
 -10   0  -9    0.54    0.55
  10   0   9    0.47    0.56
  10   0   9   -1.07    0.70
 -10   0 -10   46.52    2.87
 -10   0 -11   22.40    2.04
  10   1 -10   20.85    1.93
 -10  -1   9    1.84    0.75
  10   1  -9   -0.44    0.65
 -10  -1   8   13.92    1.55
  10   1  -8   13.35    1.47
 -10  -1   7    0.83    0.67
  10   1  -7    1.30    0.64
 -10  -1   6   10.02    1.28
  10   1  -6   11.26    1.24
 -10  -1   5    2.64    0.79
  10   1  -5    3.09    0.69
 -10  -1   4    3.51    0.92
 -10  -1   4    4.49    0.89
  10   1  -4    3.74    0.68
  10   1  -3   38.25    2.09
 -10  -1   3   38.30    2.45
 -10  -1   3   37.82    2.19
  10   1  -3   40.24    1.97
  10   1  -3   40.62    1.72
  10   1  -2   -0.23    0.50
 -10  -1   2    0.95    0.63
 -10  -1   2    0.78    0.42
  10   1  -2    0.49    0.36
  10   1  -2    0.47    0.30
  10   1  -1  104.86    3.65
 -10  -1   1  113.74    4.25
  10   1  -1  108.88    3.10
 -10  -1   1  110.05    3.72
  10   1  -1  111.69    3.41
 -10  -1   0   60.52    2.96
  10   1   0   55.61    2.54
  10   1   0   61.76    2.50
 -10  -1  -1   19.53    1.64
  10   1   1   19.79    1.51
  10   1   1   20.81    1.47
 -10  -1  -2   58.40    2.82
  10   1   2   55.93    2.58
  10   1   2   58.33    2.63
 -10  -1  -3   19.85    1.62
  10   1   3   23.51    1.66
  10   1   3   24.26    1.72
 -10  -1  -4   20.86    1.63
  10   1   4   21.05    1.63
  10   1   4   19.34    1.59
 -10  -1  -5   72.57    3.09
  10   1   5   70.37    3.12
  10   1   5   75.72    3.35
 -10  -1  -6   31.34    1.92
  10   1   6   32.61    2.15
  10   1   6   35.40    2.36
  10   1   7   10.19    1.27
  10   1   7   11.72    1.46
 -10  -1  -8   32.44    2.25
  10   1   8   35.59    2.36
  10   1   8   38.15    2.58
 -10  -1  -9   14.51    1.57
  10   1   9   10.57    1.40
 -10  -1 -10    3.06    0.83
  10   1  10    2.10    0.89
  10   2 -10   -0.57    0.52
 -10  -2   9   52.99    3.17
  10   2  -9   42.87    2.73
 -10  -2   8    0.32    0.54
  10   2  -8   -0.43    0.63
 -10  -2   7    6.17    1.10
  10   2  -7    6.47    1.03
 -10  -2   6    3.53    0.94
  10   2  -6    4.05    0.89
  10   2  -5   15.59    1.39
 -10  -2   5   14.11    1.57
  10   2  -4   14.50    1.24
 -10  -2   4   11.68    1.41
  10   2  -3   21.88    1.68
 -10  -2   3   26.56    2.06
  10   2  -3   22.37    1.47
 -10  -2   2   -0.53    0.51
  10   2  -2    0.49    0.49
  10   2  -2    0.41    0.36
  10   2  -2    0.35    0.35
  10   2  -1   16.66    1.43
 -10  -2   1   18.29    1.69
  10   2  -1   18.72    1.15
  10   2  -1   19.88    1.25
 -10  -2   0    9.14    1.20
  10   2   0   11.23    1.20
  10   2   0   10.80    0.99
 -10  -2  -1   12.71    1.37
  10   2   1   14.54    1.36
  10   2   1   14.46    1.21
 -10  -2  -2   -0.64    0.50
  10   2   2    0.43    0.47
  10   2   2    0.11    0.46
 -10  -2  -3    2.36    0.67
  10   2   3    2.98    0.72
  10   2   3    2.98    0.75
 -10  -2  -4    9.49    1.17
  10   2   4    8.88    1.14
  10   2   4    9.80    1.17
 -10  -2  -5   13.12    1.35
  10   2   5   11.33    1.32
  10   2   5   12.33    1.41
  10   2   6    4.73    0.94
 -10  -2  -6    5.56    1.00
  10   2   7   11.40    1.36
  10   2   8   16.30    1.68
  10   2   9    1.32    0.64
  10   3 -10   21.00    1.97
  10   3  -9    1.69    0.66
  10   3  -8   41.41    2.60
 -10  -3   7   79.10    3.90
  10   3  -7   72.16    3.38
 -10  -3   6    2.56    0.92
  10   3  -6    2.93    0.72
 -10  -3   5    3.74    0.88
  10   3  -5    4.59    0.85
  10   3  -4   20.86    1.55
 -10  -3   4   25.03    2.07
  10   3  -3   68.20    3.18
  10   3  -3   71.29    2.80
 -10  -3   3   69.99    3.51
  10   3  -2   16.77    1.58
  10   3  -2   15.55    1.17
 -10  -3   2   16.46    1.66
 -10  -3   1   32.82    2.32
  10   3  -1   32.14    2.10
 -10  -3   0   44.52    2.66
  10   3   0   41.01    2.41
 -10  -3  -1    3.80    0.97
  10   3   1    3.06    0.74
 -10  -3  -2    0.37    0.50
  10   3   2    0.97    0.57
 -10  -3  -3   49.08    2.74
  10   3   3   51.46    2.77
 -10  -3  -4   17.87    1.65
  10   3   4   13.72    1.48
 -10  -3  -5    0.12    0.80
  10   3   5   -0.01    0.52
 -10  -3  -6    5.00    0.89
  10   3   6    1.64    0.69
  10   3   7   18.56    1.81
  10   3   8    2.45    0.78
  10   4  -9   18.52    1.84
  10   4  -8   36.97    2.50
  10   4  -7   30.70    2.20
 -10  -4   6   38.43    2.72
  10   4  -6   36.69    2.32
 -10  -4   5   57.61    3.30
  10   4  -5   51.67    2.68
 -10  -4   4   10.93    1.47
  10   4  -4    9.97    1.10
  10   4  -3   11.80    1.40
  10   4  -3   13.43    1.19
 -10  -4   3   14.43    1.62
 -10  -4   2   52.30    3.06
  10   4  -2   50.42    2.84
 -10  -4   1   53.94    3.08
  10   4  -1   53.97    2.93
 -10  -4   0    9.35    1.33
  10   4   0    8.34    1.17
 -10  -4  -1   52.62    2.98
  10   4   1   51.13    2.85
 -10  -4  -2   49.04    2.84
  10   4   2   44.89    2.70
 -10  -4  -3    1.26    0.72
  10   4   3    0.73    0.59
 -10  -4  -4   54.92    3.00
  10   4   4   52.37    2.96
 -10  -4  -5   18.17    1.72
  10   4   5   16.38    1.69
 -10  -4  -6   13.82    1.51
  10   4   6   12.04    1.53
  10   4   7    1.17    0.66
  10   5  -8    4.46    1.01
  10   5  -7   13.34    1.52
  10   5  -6    6.13    1.10
  10   5  -5   20.48    1.70
  10   5  -4   22.03    1.69
 -10  -5   4   23.57    2.16
 -10  -5   3    0.61    0.70
  10   5  -3   -0.05    0.59
 -10  -5   2   19.13    1.92
  10   5  -2   13.27    1.57
 -10  -5   1   90.58    4.20
  10   5  -1   96.18    4.17
 -10  -5   0   33.08    2.45
  10   5   0   36.16    2.51
 -10  -5  -1    8.11    1.31
  10   5   1    6.28    1.17
 -10  -5  -2   62.00    3.38
  10   5   2   57.89    3.21
 -10  -5  -3   52.63    3.07
  10   5   3   56.06    3.18
 -10  -5  -4   64.05    3.40
  10   5   4   62.37    3.41
 -10  -5  -5    2.18    0.81
  10   5   5    3.23    0.89
 -10  -5  -6   55.71    3.06
  10   6  -7    2.80    0.82
  10   6  -6   23.57    1.97
  10   6  -4    0.92    0.69
  10   6  -3    2.38    0.80
  10   6  -2    1.41    0.76
  10   6  -1    2.07    0.77
 -10  -6   0   13.21    1.64
  10   6   0   13.72    1.62
 -10  -6  -1   10.08    1.41
  10   6   1   10.98    1.45
 -10  -6  -2    1.14    0.67
  10   6   2    1.02    0.61
 -10  -6  -3   10.46    1.49
 -10  -6  -4    5.64    1.10
 -10  -6  -5   53.69    3.20
 -10  -6  -6    0.85    0.73
  11 -10  -4   83.84    3.85
 -11  10  -1    9.46    1.42
 -11  10  -2    3.04    0.89
 -11  10  -3    1.94    0.84
  11  -9  -6    3.89    0.88
  11  -9  -5   11.18    1.38
  11  -9  -4    1.85    0.76
 -11   9   2   -0.56    0.52
 -11   9   1    0.83    0.75
 -11   9   0   14.94    1.62
 -11   9  -1    2.59    0.87
 -11   9  -2   13.65    1.53
 -11   9  -3    2.43    0.71
  11  -8  -7   13.44    1.53
  11  -8  -6    9.58    1.30
  11  -8  -5   14.32    1.56
 -11   8   4    9.25    1.34
  11  -8  -4    9.43    1.20
 -11   8   3   18.88    1.85
  11  -8  -3   22.98    1.76
  11  -8  -2   15.34    1.68
 -11   8   2   12.10    1.46
 -11   8   1    2.27    0.80
  11  -8  -1    2.01    0.69
 -11   8   0    2.72    0.83
  11  -8   0    4.70    0.99
 -11   8  -1    5.36    1.02
  11  -8   1    4.86    1.01
 -11   8  -2   11.80    1.34
  11  -8   2   12.54    1.55
 -11   8  -3    5.41    1.01
  11  -7  -8    1.27    0.64
  11  -7  -7    3.75    0.87
  11  -7  -6   30.14    2.17
 -11   7   5   12.20    1.51
  11  -7  -5   11.76    1.36
 -11   7   4    3.04    0.87
  11  -7  -4    1.65    0.66
 -11   7   3   20.17    1.86
  11  -7  -3   22.02    1.63
  11  -7  -3   22.37    1.95
 -11   7   2   73.75    3.55
  11  -7  -2   76.65    3.68
 -11   7   1    2.56    0.82
  11  -7  -1    5.10    1.01
 -11   7   0   10.13    1.33
  11  -7   0    8.83    1.26
 -11   7  -1   31.10    2.15
  11  -7   1   33.66    2.46
 -11   7  -2   20.08    1.68
  11  -7   2   21.32    1.97
 -11   7  -3    0.63    0.45
  11  -7   3    1.65    0.81
  11  -7   4    4.84    1.13
  11  -6  -9    4.18    0.97
  11  -6  -8    3.97    0.90
  11  -6  -7    9.14    1.22
 -11   6   6    9.14    1.34
  11  -6  -6   12.98    1.44
 -11   6   5   13.57    1.59
  11  -6  -5   14.15    1.42
 -11   6   4   23.18    1.96
  11  -6  -4   20.78    1.63
 -11   6   3   27.86    2.14
  11  -6  -3   25.15    1.72
  11  -6  -3   23.51    1.93
 -11   6   2   40.79    2.59
  11  -6  -2   45.92    2.21
  11  -6  -2   40.50    2.54
 -11   6   1  134.82    4.73
  11  -6  -1  133.02    4.93
 -11   6   0   23.80    1.84
  11  -6   0   26.16    2.07
 -11   6  -1    1.18    0.63
  11  -6   1    0.97    0.76
 -11   6  -2  211.96    5.93
  11  -6   2  211.19    6.62
 -11   6  -3  118.06    4.03
  11  -6   3  120.04    4.78
 -11   6  -4   15.04    1.75
  11  -6   4   13.79    1.59
  11  -6   5   20.77    2.01
  11  -5  -9    0.17    0.61
  11  -5  -8   -0.02    0.52
 -11   5   7    3.96    0.96
  11  -5  -7    4.23    0.92
 -11   5   6   19.25    1.86
  11  -5  -6   15.18    1.52
 -11   5   5    4.04    0.92
  11  -5  -5    2.47    0.66
  11  -5  -4   11.32    1.31
 -11   5   4   11.80    1.56
  11  -5  -4   11.89    1.22
 -11   5   3   35.81    2.36
  11  -5  -3   37.65    2.33
  11  -5  -3   34.34    1.95
 -11   5   2   27.07    2.01
  11  -5  -2   26.80    1.98
  11  -5  -2   26.14    1.61
 -11   5   1   -0.01    0.56
  11  -5  -1    0.76    0.54
 -11   5   0   78.26    3.29
  11  -5   0   77.93    3.51
 -11   5  -1   47.23    2.45
  11  -5   1   49.28    2.88
 -11   5  -2    1.13    0.53
  11  -5   2    1.01    0.60
 -11   5  -3   47.37    2.30
  11  -5   3   42.92    2.72
 -11   5  -4   99.26    4.43
  11  -5   4   99.65    4.28
 -11   5  -5   23.96    2.19
  11  -5   5   21.04    1.97
 -11   5  -6    5.50    1.10
  11  -5   6    3.66    0.95
  11  -4  -9    0.44    0.55
 -11   4   8   33.66    2.51
  11  -4  -8   34.36    2.40
 -11   4   7    3.42    0.89
  11  -4  -7    4.51    0.98
  11  -4  -6   -0.50    0.53
  11  -4  -6   -0.31    0.47
  11  -4  -5    0.67    0.59
 -11   4   5   -0.62    0.74
  11  -4  -5    0.62    0.51
 -11   4   4    0.87    0.66
  11  -4  -4    1.89    0.61
  11  -4  -4    1.93    0.58
 -11   4   3    0.06    0.54
  11  -4  -3    0.40    0.34
  11  -4  -3   -0.36    0.51
 -11   4   2    1.51    0.65
  11  -4  -2   -0.08    0.44
  11  -4  -2    0.73    0.39
 -11   4   1    0.59    0.41
  11  -4  -1    0.67    0.56
 -11   4   0    0.14    0.42
  11  -4   0    1.10    0.66
 -11   4  -1    2.71    0.66
  11  -4   1    2.32    0.77
 -11   4  -2   15.69    1.29
  11  -4   2   14.68    1.53
 -11   4  -3    0.59    0.42
  11  -4   3    0.26    0.56
  11  -4   4   23.67    2.00
 -11   4  -5    3.51    1.00
  11  -4   5    1.36    0.68
 -11   4  -6   37.24    2.66
  11  -4   6   36.22    2.57
 -11   4  -7   19.67    2.02
  11  -4   7   23.74    2.14
  11  -3  -9    0.33    0.51
 -11   3   8   47.15    2.96
  11  -3  -8   48.01    2.80
 -11   3   7   56.98    3.22
  11  -3  -7   59.80    2.69
  11  -3  -7   57.46    3.00
 -11   3   6   42.85    2.69
  11  -3  -6   38.55    2.13
  11  -3  -6   39.89    2.36
 -11   3   5    2.58    1.12
  11  -3  -5    4.49    0.81
  11  -3  -5    3.15    0.72
 -11   3   4    3.27    0.80
  11  -3  -4    2.99    0.70
  11  -3  -4    4.47    0.77
 -11   3   3   56.25    2.86
  11  -3  -3   59.50    2.73
  11  -3  -3   52.07    2.38
 -11   3   2   22.43    1.73
  11  -3  -2   21.00    1.63
  11  -3  -2   22.86    1.42
 -11   3   1   58.49    2.76
  11  -3  -1   61.09    2.84
 -11   3   0   27.56    1.79
  11  -3   0   27.36    1.92
 -11   3  -1   10.00    1.03
  11  -3   1   11.12    1.29
 -11   3  -2   17.92    1.33
  11  -3   2   16.99    1.58
  11  -3   3   35.21    2.34
  11  -3   4   23.97    2.07
  11  -3   5   61.53    3.24
 -11   3  -6   17.30    1.84
  11  -3   6   15.58    1.70
 -11   3  -7   -0.37    0.55
  11  -3   7    0.12    0.55
  11  -2 -10   69.58    3.65
  11  -2  -9   33.15    2.39
 -11   2   8    2.82    0.88
  11  -2  -8    1.35    0.65
 -11   2   7   49.58    2.98
  11  -2  -7   51.70    2.80
 -11   2   6   63.72    3.30
  11  -2  -6   65.51    3.07
 -11   2   5    6.07    1.05
  11  -2  -5    6.64    0.99
  11  -2  -5    7.63    0.90
 -11   2   4    0.69    0.56
  11  -2  -4    0.95    0.48
 -11   2   3   33.23    2.16
  11  -2  -3   35.69    2.00
 -11   2   2   66.57    3.02
  11  -2  -2   65.62    2.83
 -11   2   1   25.36    1.76
  11  -2  -1   27.19    1.81
 -11   2   0   48.51    2.37
  11  -2   0   45.66    2.42
 -11   2  -1   31.01    1.78
  11  -2   1   31.82    2.05
 -11   2  -2    1.41    0.49
  11  -2   2    2.92    0.71
  11  -2   3   58.69    2.98
 -11   2  -4   38.56    2.24
  11  -2   4   40.40    2.49
 -11   2  -5   46.50    2.38
  11  -2   5   43.30    2.68
 -11   2  -6   29.61    2.28
  11  -2   6   29.75    2.27
 -11   2  -7   31.00    2.45
  11  -2   7   34.11    2.50
 -11   2  -8   11.03    1.59
  11  -1 -10    1.89    0.76
  11  -1  -9   10.68    1.38
 -11   1   8   50.18    3.07
  11  -1  -8   45.35    2.71
 -11   1   7   14.62    1.62
  11  -1  -7   19.08    1.70
 -11   1   6    1.03    0.70
  11  -1  -6    1.20    0.59
 -11   1   5    9.27    1.26
  11  -1  -5   10.78    1.20
 -11   1   4    3.82    0.87
  11  -1  -4    1.72    0.49
  11  -1  -4    1.93    0.59
  11  -1  -3    8.74    0.90
 -11   1   3   10.30    1.21
  11  -1  -3    9.80    1.01
  11  -1  -3    8.16    0.92
  11  -1  -2   12.82    1.06
 -11   1   2   12.54    1.31
  11  -1  -2   13.02    1.07
  11  -1  -2   13.10    1.18
  11  -1  -1   67.60    2.53
 -11   1   1   62.79    2.82
  11  -1  -1   68.92    2.84
  11  -1   0   11.15    0.99
 -11   1   0    8.79    0.99
  11  -1   0   12.31    1.21
  11  -1   1   14.16    1.12
 -11   1  -1   13.05    1.17
  11  -1   1   16.34    1.46
  11  -1   2    1.32    0.44
 -11   1  -2   -0.01    0.50
 -11   1  -2   -0.01    0.33
  11  -1   2    1.47    0.61
 -11   1  -3  112.41    4.12
  11  -1   3  106.46    3.53
  11  -1   3  110.32    4.16
 -11   1  -4   13.01    1.35
  11  -1   4   13.73    1.20
  11  -1   4   13.04    1.46
 -11   1  -5   25.32    1.81
  11  -1   5   27.21    2.12
  11  -1   6   38.66    2.57
 -11   1  -7   16.31    1.71
  11  -1   7   16.43    1.79
 -11   1  -8   11.61    1.44
 -11   1  -9   13.10    1.63
  11   0 -10   -0.35    0.63
  11   0  -9   13.93    1.55
 -11   0   8   14.40    1.65
  11   0  -8   10.80    1.33
 -11   0   7   29.44    2.30
  11   0  -7   29.81    2.09
 -11   0   6    0.65    0.63
  11   0  -6    0.17    0.42
 -11   0   5   71.76    3.42
  11   0  -5   67.84    2.99
  11   0  -4    0.47    0.39
 -11   0   4    0.56    0.58
  11   0  -4    1.07    0.53
  11   0  -3   45.69    2.24
  11   0  -3   47.93    2.21
 -11   0   3   43.54    2.48
  11   0  -2    7.90    0.95
 -11   0   2    9.30    1.17
  11   0  -2   11.58    1.08
  11   0  -1   15.08    1.25
 -11   0   1   14.43    1.54
 -11   0   1   17.70    1.47
  11   0  -1   18.03    1.35
  11   0   0   15.16    1.27
 -11   0   0   15.03    1.57
 -11   0   0   16.28    1.32
  11   0   0   16.74    1.39
  11   0   1    4.96    0.78
 -11   0  -1    8.23    1.11
 -11   0  -1    6.02    0.84
  11   0   1    5.70    0.87
 -11   0  -2    1.79    0.67
  11   0   2    1.20    0.53
  11   0   2    1.43    0.63
 -11   0  -3    8.29    1.13
  11   0   3    9.07    1.03
  11   0   3   10.31    1.24
 -11   0  -4   79.08    3.42
  11   0   4   82.08    3.26
  11   0   4   81.31    3.55
 -11   0  -5    0.33    0.48
  11   0   5    0.04    0.45
  11   0   5   -0.50    0.55
  11   0   6   -0.19    0.62
  11   0   6    0.96    0.62
  11   0   7   42.23    2.46
  11   0   7   38.81    2.65
  11   0   8    0.01    0.58
 -11   0  -9    2.36    0.82
  11   1  -9    3.76    0.96
  11   1  -8   64.42    3.29
 -11  -1   8   67.15    3.65
 -11  -1   7   10.57    1.42
  11   1  -7    8.62    1.19
 -11  -1   6    5.50    1.18
 -11  -1   6    5.84    1.13
  11   1  -6    6.90    1.05
 -11  -1   5    3.01    0.74
 -11  -1   5    3.17    0.86
  11   1  -5    2.11    0.60
  11   1  -4   57.54    2.74
 -11  -1   4   57.53    2.99
  11   1  -4   59.63    2.64
 -11  -1   4   55.20    3.16
  11   1  -3   12.87    1.26
 -11  -1   3   13.41    1.42
 -11  -1   3   15.04    1.64
 -11  -1   2   29.87    2.23
  11   1  -2   30.99    1.94
 -11  -1   1   29.91    2.21
  11   1  -1   27.15    1.82
  11   1  -1   29.03    1.68
 -11  -1   0   52.49    2.91
  11   1   0   50.48    2.51
  11   1   0   51.66    2.37
 -11  -1  -1    3.23    0.83
  11   1   1    4.88    0.85
  11   1   1    4.60    0.80
 -11  -1  -2    8.43    1.25
  11   1   2    8.08    1.04
  11   1   2   10.92    1.18
 -11  -1  -3   51.56    2.80
  11   1   3   49.76    2.58
  11   1   3   49.31    2.60
  11   1   4   -0.48    0.60
  11   1   4   -0.29    0.57
 -11  -1  -5    0.44    0.50
  11   1   5   -0.02    0.57
  11   1   5    0.74    0.69
  11   1   6    0.15    0.55
  11   1   6   -0.10    0.60
  11   1   7   22.49    1.91
  11   1   7   20.09    1.92
  11   1   8   -0.66    0.71
  11   1   9    5.00    1.06
  11   2  -9   31.22    2.33
  11   2  -8   43.40    2.71
  11   2  -7   13.87    1.50
  11   2  -6   32.06    2.12
  11   2  -5   40.11    2.29
 -11  -2   5   46.33    2.94
 -11  -2   4   35.15    2.52
  11   2  -4   30.29    2.08
 -11  -2   3    7.69    1.25
  11   2  -3    8.34    1.09
 -11  -2   2   73.59    3.62
  11   2  -2   69.10    3.18
 -11  -2   1    7.82    1.24
  11   2  -1    5.57    0.95
 -11  -2   0   17.88    1.75
  11   2   0   17.27    1.55
 -11  -2  -1   99.91    4.19
  11   2   1   97.96    3.85
  11   2   1  101.23    3.54
 -11  -2  -2   21.74    1.90
  11   2   2   21.87    1.76
  11   2   2   22.78    1.67
 -11  -2  -3    5.60    1.00
  11   2   3    4.98    1.03
  11   2   3    4.25    0.79
 -11  -2  -4   14.53    1.54
  11   2   4   15.49    1.54
 -11  -2  -5   91.90    3.81
  11   2   5   87.74    3.82
  11   2   6    3.16    0.79
  11   2   7    0.43    0.60
  11   2   8   20.54    1.99
  11   3  -9    0.37    0.70
  11   3  -8   36.31    2.48
  11   3  -7    7.63    1.17
  11   3  -6    9.68    1.21
 -11  -3   4    6.43    1.26
  11   3  -4    7.23    1.19
 -11  -3   3    0.38    0.61
  11   3  -3    0.23    0.56
 -11  -3   2   10.24    1.41
  11   3  -2    6.54    1.08
 -11  -3   1   26.07    2.17
  11   3  -1   30.60    2.15
 -11  -3   0   11.37    1.48
  11   3   0   11.48    1.34
 -11  -3  -1    7.38    1.22
  11   3   1    7.32    1.11
 -11  -3  -2   26.31    2.12
  11   3   2   23.85    1.93
 -11  -3  -3   27.53    2.17
  11   3   3   26.20    2.04
 -11  -3  -4    4.15    1.00
  11   3   4    5.22    1.04
 -11  -3  -5   14.45    1.54
  11   3   5   12.46    1.53
  11   3   6   56.38    3.17
  11   3   7   45.20    2.87
  11   4  -8   -1.15    0.79
  11   4  -7    1.54    0.65
  11   4  -4    0.49    0.56
  11   4  -3    7.33    1.22
  11   4  -2    5.50    1.09
  11   4  -1    1.46    0.68
 -11  -4   1    2.40    0.83
  11   4   0    2.38    0.83
 -11  -4   0    2.55    0.79
  11   4   1    2.92    0.81
 -11  -4  -1    3.70    0.88
  11   4   2    6.00    1.13
 -11  -4  -2    3.55    0.99
  11   4   3    3.27    0.76
 -11  -4  -3    4.46    1.11
  11   4   4    1.74    0.68
 -11  -4  -4    1.38    0.73
  11   4   5   12.85    1.57
 -11  -4  -5   13.45    1.57
  11   5  -4   -0.51    0.62
  11   5  -3   23.87    2.10
  11   5  -2   14.21    1.63
  11   5  -1    0.57    0.62
  11   5   0    3.78    1.01
  11   5   1    3.94    0.94
  11   5   2   -0.12    0.59
 -11  -5  -3    1.31    0.88
 -11  -5  -4    2.38    0.97
 -12   9  -1   12.83    1.56
 -12   8   2   11.64    1.49
 -12   8   1   67.16    3.51
 -12   8   0    0.62    0.73
 -12   8  -1    1.33    0.64
 -12   8  -2   11.42    1.40
  12  -7  -7    0.41    0.67
  12  -7  -6    3.23    0.85
  12  -7  -4    2.14    0.76
 -12   7   3    1.09    0.65
  12  -7  -3    2.26    0.87
 -12   7   2    2.86    0.86
  12  -7  -2    0.93    0.53
 -12   7   1   -0.20    0.50
  12  -7  -1    0.85    0.58
 -12   7   0   11.08    1.38
  12  -7   0    9.37    1.33
 -12   7  -1    1.58    0.69
 -12   7  -2    4.67    0.90
  12  -6  -8    0.44    0.72
  12  -6  -7    0.61    0.62
  12  -6  -6    1.84    0.74
  12  -6  -5    0.88    0.60
 -12   6   4   -0.61    0.70
  12  -6  -4    1.39    0.82
 -12   6   3    1.52    0.72
  12  -6  -3    0.96    0.62
 -12   6   2    1.78    0.74
  12  -6  -2    1.54    0.59
 -12   6   1    3.47    0.93
  12  -6  -1    4.79    0.98
 -12   6   0    5.13    0.97
  12  -6   0    5.17    1.09
 -12   6  -1    4.29    0.94
  12  -6   1    4.41    1.02
  12  -6   2    7.53    1.23
  12  -5  -8   44.13    2.79
  12  -5  -7    9.01    1.26
  12  -5  -6    0.32    0.63
  12  -5  -6    1.04    0.59
 -12   5   5   11.70    1.44
  12  -5  -5   12.65    1.35
  12  -5  -5   11.89    1.43
 -12   5   4    3.15    0.81
  12  -5  -4    3.64    0.90
 -12   5   3    2.03    0.76
  12  -5  -3    1.88    0.73
 -12   5   2    9.73    1.31
  12  -5  -2    9.81    1.28
 -12   5   1    4.74    0.96
  12  -5  -1    5.33    1.06
 -12   5   0    5.95    0.98
  12  -5   0    9.78    1.34
 -12   5  -1    3.18    0.81
  12  -5   1    4.26    1.01
  12  -5   2    0.84    0.59
  12  -5   3    6.77    1.21
  12  -5   4    0.81    0.57
  12  -4  -8    2.76    0.83
  12  -4  -7   65.95    3.32
 -12   4   6   64.01    3.49
  12  -4  -6   63.22    3.13
 -12   4   5    4.87    1.13
  12  -4  -5    3.47    0.76
  12  -4  -5    2.75    0.73
 -12   4   4   35.47    2.46
  12  -4  -4   31.35    2.12
 -12   4   3   40.07    2.56
  12  -4  -3   41.35    2.47
 -12   4   2   63.36    3.16
  12  -4  -2   63.93    3.15
 -12   4   1    1.52    0.62
  12  -4  -1    2.27    0.67
 -12   4   0   17.95    1.55
  12  -4   0   20.02    1.80
 -12   4  -1   14.49    1.37
  12  -4   1   14.13    1.53
  12  -4   2    4.51    1.07
  12  -4   3   13.01    1.55
  12  -4   4   21.39    1.96
  12  -3  -8   11.49    1.46
  12  -3  -7    1.21    0.66
 -12   3   6   -1.51    0.76
  12  -3  -6   -0.76    0.60
 -12   3   5    9.62    1.33
  12  -3  -5    8.31    1.08
 -12   3   4   13.08    1.52
  12  -3  -4   12.51    1.30
 -12   3   3   16.84    1.64
  12  -3  -3   21.46    1.71
 -12   3   2   25.66    1.96
  12  -3  -2   26.83    1.95
 -12   3   1   52.91    2.73
  12  -3  -1   55.06    2.83
 -12   3   0    1.51    0.67
  12  -3   0    0.66    0.58
 -12   3  -1   10.55    1.13
  12  -3   1   10.22    1.32
  12  -3   2   46.67    2.75
  12  -3   3   25.65    2.06
  12  -3   4    9.28    1.32
  12  -3   5   18.33    1.87
 -12   2   6    7.51    1.26
 -12   2   5    3.95    0.98
 -12   2   4    1.37    0.70
 -12   2   3   61.46    3.14
  12  -2  -3   70.87    2.99
 -12   2   2   17.15    1.61
  12  -2  -2   22.03    1.65
 -12   2   1    2.39    0.73
  12  -2  -1    1.29    0.59
 -12   2   0   29.60    1.93
  12  -2   0   31.55    2.08
  12  -2   1   17.99    1.66
  12  -2   2   38.13    2.43
 -12   2  -3    0.24    0.53
  12  -2   3    0.79    0.72
 -12   2  -4   20.32    1.68
  12  -2   4   17.47    1.75
  12  -2   5    8.64    1.34
  12  -2   6    6.32    1.22
  12  -1  -9    0.39    0.70
  12  -1  -8    9.98    1.36
  12  -1  -7    2.46    0.79
 -12   1   6   -0.65    0.74
  12  -1  -6    0.54    0.48
 -12   1   5    3.10    0.85
 -12   1   4    3.22    0.76
 -12   1   3    8.00    1.17
 -12   1   2   10.47    1.23
 -12   1   1   16.99    1.52
  12  -1  -1   16.00    1.39
 -12   1   0    0.41    0.40
  12  -1   0    2.44    0.69
 -12   1  -1   57.44    3.09
  12  -1   1   51.66    2.73
 -12   1  -2    8.36    1.22
  12  -1   2    6.87    1.10
 -12   1  -3   35.66    2.35
  12  -1   3   31.34    2.24
 -12   1  -4    3.66    0.90
  12  -1   4    2.58    0.84
  12  -1   5   12.32    1.51
  12  -1   6   10.65    1.49
  12   0  -9    0.63    0.78
  12   0  -8   37.61    2.53
  12   0  -7   23.73    1.93
 -12   0   6   11.19    1.48
 -12   0   5   32.59    2.38
 -12   0   4   21.82    1.90
 -12   0   3   23.43    2.09
 -12   0   3   21.59    1.83
 -12   0   2   30.33    2.36
 -12   0   2   34.53    2.23
 -12   0   1   18.89    1.85
 -12   0   1   17.38    1.53
 -12   0   0   50.72    2.99
 -12   0  -1   33.90    2.41
  12   0   1   32.56    2.06
 -12   0  -2   20.92    1.89
  12   0   2   19.81    1.69
 -12   0  -3   30.81    2.21
  12   0   3   31.36    2.20
 -12   0  -4   70.74    3.35
  12   0   4   65.01    3.31
  12   0   5   50.46    2.96
  12   0   6    0.90    0.56
  12   1  -8    2.90    0.79
 -12  -1   6   19.27    1.91
 -12  -1   2   22.27    2.05
 -12  -1   1   43.24    2.82
 -12  -1   0   30.07    2.31
 -12  -1  -1   41.13    2.70
 -12  -1  -2   11.48    1.46
 -12  -1  -3   21.46    1.88
  12   1   3   18.06    1.63
 -12  -1  -4    8.93    1.29
  12   1   4   10.45    1.35
  12   1   5   67.11    3.43
  12   1   6   77.90    3.82
  12   2  -3    1.18    0.61
  12   2  -2   22.91    1.86
  12   2  -1   11.26    1.32
  12   2   0    2.41    0.78
 -12  -2   0    1.65    0.70
  12   2   1    6.37    1.02
 -12  -2  -1    6.98    1.23
  12   2   2    4.19    0.92
 -12  -2  -2    4.71    1.06
  12   2   3    0.79    0.56
 -12  -2  -3    2.69    0.82
  12   2   4    4.13    0.99
 -12  -2  -4    3.07    0.86
  12   3  -5    7.19    1.23
  12   3  -4   12.10    1.49
  12   3  -3    0.85    0.56
  12   3  -2   22.16    1.93
  12   3  -1    1.47    0.68
  12   3   0    0.10    0.57
  12   3   1    8.98    1.31
  12   3   2    0.70    0.66
 -12  -3  -2   -0.86    0.80
  12   3   3    0.26    0.55
 -12  -3  -3    0.87    0.70
  12   3   4   -0.05    0.67
 -12  -3  -4    0.17    0.61
  12   4  -4   26.15    2.24
  12   4  -3   -0.17    0.63
  12   4  -2    7.11    1.20
  12   4  -1   46.61    2.91
  12   4   0   11.76    1.54
  12   4   1    6.55    1.18
 -13   7   1   12.72    1.59
  13  -6  -4   43.35    2.81
  13  -6  -3   87.99    4.10
 -13   6   2   12.81    1.54
  13  -6  -2   11.78    1.55
 -13   6   1   12.65    1.53
  13  -5  -4    0.45    0.55
 -13   5   3   12.10    1.47
  13  -5  -3    7.07    1.18
 -13   5   2   59.97    3.21
  13  -5  -2   59.68    3.23
 -13   5   1   16.89    1.65
  13  -5  -1   16.45    1.74
  13  -5   0    1.14    0.67
  13  -5   1   22.68    2.07
 -13   4   4    7.42    1.20
 -13   4   3    2.79    0.80
  13  -4  -3    1.76    0.63
 -13   4   2   -0.26    0.57
  13  -4  -2    1.16    0.73
 -13   4   1   44.34    2.63
  13  -4  -1   40.49    2.60
  13  -4   0    4.16    0.99
  13  -4   1   19.69    1.90
  13  -4   2   31.08    2.40
 -13   3   4    0.13    0.61
 -13   3   3    5.50    1.00
 -13   3   2    0.69    0.66
  13  -3  -1    7.68    1.18
  13  -3   0   18.01    1.74
  13  -3   1   26.09    2.10
  13  -3   2    2.60    0.75
  13  -3   3    3.96    1.00
 -13   2   5   12.48    1.63
 -13   2   4   29.05    2.24
 -13   2   3   29.60    2.25
 -13   2   2   30.52    2.19
  13  -2   0   20.16    1.78
  13  -2   1   23.38    1.94
 -13   2  -2    0.17    0.54
  13  -2   2    1.88    0.78
 -13   2  -3    1.61    0.68
  13  -2   3    0.20    0.59
  13  -2   4   21.64    2.04
 -13   1   5   12.58    1.54
 -13   1   4   15.47    1.67
 -13   1   3   65.97    3.36
 -13   1  -1   30.13    2.35
 -13   1  -2   30.65    2.33
  13  -1   2   28.88    2.18
 -13   1  -3   57.61    3.19
  13  -1   3   54.75    3.11
  13  -1   4   25.41    2.15
 -13   0   4    0.06    0.60
 -13   0   3   14.24    1.63
 -13   0  -2    0.14    0.55
 -13   0  -3   11.59    1.46
   0   0   0    0.00    0.00


TITL pvl511_auto in P-1
REM P-1 (#2 in standard setting)
CELL 0.71073  10.032293  10.789740  13.484325  90.7873  92.7726 101.0066
ZERR    3.00   0.000280   0.000422   0.000444   0.0029   0.0025   0.0029
LATT  1
SFAC C H N O S Zn
UNIT 60.00 60.00 12.00 12.00 3.00 3.00
REM  CrysAlisPro recorded range (K): Min=140.0; max=140.0; aver:140.0
TEMP -133
TREF
HKLF 4
END
_computing_structure_solution     'SHELXT 2018/2 (Sheldrick, 2018)'
;
_shelx_hkl_checksum   53549

