 
data_pvl928_auto_a
 
_audit_creation_method            'SHELXL-2018/3'
_shelx_SHELXL_version_number      '2018/3'
_chemical_name_systematic         ?
_chemical_name_common             ?
_chemical_melting_point           ?
_chemical_formula_moiety          ?
_chemical_formula_sum
 'C H Cd N O S' 
_chemical_formula_weight          187.49

loop_
 _atom_type_symbol
 _atom_type_description
 _atom_type_scat_dispersion_real
 _atom_type_scat_dispersion_imag
 _atom_type_scat_source
 'C'  'C'   0.0033   0.0016
 'International Tables Vol C Tables 4.2.6.8 and 6.1.1.4'
 'H'  'H'   0.0000   0.0000
 'International Tables Vol C Tables 4.2.6.8 and 6.1.1.4'
 'N'  'N'   0.0061   0.0033
 'International Tables Vol C Tables 4.2.6.8 and 6.1.1.4'
 'O'  'O'   0.0106   0.0060
 'International Tables Vol C Tables 4.2.6.8 and 6.1.1.4'
 'S'  'S'   0.1246   0.1234
 'International Tables Vol C Tables 4.2.6.8 and 6.1.1.4'
 'Cd'  'Cd'  -0.8075   1.2024
 'International Tables Vol C Tables 4.2.6.8 and 6.1.1.4'
 
_space_group_crystal_system       triclinic
_space_group_IT_number            2
_space_group_name_H-M_alt         'P -1'
_space_group_name_Hall            '-P 1'
 
_shelx_space_group_comment
;
The symmetry employed for this shelxl refinement is uniquely defined
by the following loop, which should always be used as a source of
symmetry information in preference to the above space-group names.
They are only intended as comments.
;
 
loop_
 _space_group_symop_operation_xyz
 'x, y, z'
 '-x, -y, -z'
 
_cell_length_a                    9.4068(2)
_cell_length_b                    13.1730(3)
_cell_length_c                    14.1394(3)
_cell_angle_alpha                 70.599(2)
_cell_angle_beta                  85.549(2)
_cell_angle_gamma                 71.539(2)
_cell_volume                      1566.82(6)
_cell_formula_units_Z             18
_cell_measurement_temperature     130(2)
_cell_measurement_reflns_used     ?
_cell_measurement_theta_min       ?
_cell_measurement_theta_max       ?
 
_exptl_crystal_description        ?
_exptl_crystal_colour             ?
_exptl_crystal_density_meas       ?
_exptl_crystal_density_method     ?
_exptl_crystal_density_diffrn     3.577          
_exptl_crystal_F_000              1548
_exptl_transmission_factor_min    ?
_exptl_transmission_factor_max    ?
_exptl_crystal_size_max           ?
_exptl_crystal_size_mid           ?
_exptl_crystal_size_min           ?
_exptl_absorpt_coefficient_mu     6.636
_shelx_estimated_absorpt_T_min    ?
_shelx_estimated_absorpt_T_max    ?
_exptl_absorpt_correction_type    ?
_exptl_absorpt_correction_T_min   ?
_exptl_absorpt_correction_T_max   ?
_exptl_absorpt_process_details    ?
_exptl_absorpt_special_details    ?
_diffrn_ambient_temperature       130(2)
_diffrn_radiation_wavelength      0.71073
_diffrn_radiation_type            MoK\a
_diffrn_source                    ?
_diffrn_measurement_device_type   ?
_diffrn_measurement_method        ?
_diffrn_detector_area_resol_mean  ?
_diffrn_reflns_number             24399
_diffrn_reflns_av_unetI/netI      0.0272
_diffrn_reflns_av_R_equivalents   0.0251
_diffrn_reflns_limit_h_min        -12
_diffrn_reflns_limit_h_max        12
_diffrn_reflns_limit_k_min        -17
_diffrn_reflns_limit_k_max        17
_diffrn_reflns_limit_l_min        -18
_diffrn_reflns_limit_l_max        19
_diffrn_reflns_theta_min          1.895
_diffrn_reflns_theta_max          28.954
_diffrn_reflns_theta_full         25.242
_diffrn_measured_fraction_theta_max   0.873
_diffrn_measured_fraction_theta_full  1.000
_diffrn_reflns_Laue_measured_fraction_max    0.873
_diffrn_reflns_Laue_measured_fraction_full   1.000
_diffrn_reflns_point_group_measured_fraction_max   0.873
_diffrn_reflns_point_group_measured_fraction_full  1.000
_reflns_number_total              7241
_reflns_number_gt                 6418
_reflns_threshold_expression      'I > 2\s(I)'
_reflns_Friedel_coverage          0.000
_reflns_Friedel_fraction_max      .
_reflns_Friedel_fraction_full     .
 
_reflns_special_details
;
 Reflections were merged by SHELXL according to the crystal
 class for the calculation of statistics and refinement.
 
 _reflns_Friedel_fraction is defined as the number of unique
 Friedel pairs measured divided by the number that would be
 possible theoretically, ignoring centric projections and
 systematic absences.
;
 
_computing_data_collection        ?
_computing_cell_refinement        ?
_computing_data_reduction         ?
_computing_structure_solution     'SHELXT 2014/5 (Sheldrick, 2014)'
_computing_structure_refinement 'SHELXL-2018/3 (Sheldrick, 2018)'
_computing_molecular_graphics     ?
_computing_publication_material   ?
_refine_special_details           ?
_refine_ls_structure_factor_coef  Fsqd
_refine_ls_matrix_type            full
_refine_ls_weighting_scheme       calc
_refine_ls_weighting_details
'w=1/[\s^2^(Fo^2^)+(0.0680P)^2^+6.2817P] where P=(Fo^2^+2Fc^2^)/3'
_atom_sites_solution_primary      ?
_atom_sites_solution_secondary    ?
_atom_sites_solution_hydrogens    geom
_refine_ls_hydrogen_treatment     constr
_refine_ls_extinction_method      none
_refine_ls_extinction_coef        .
_refine_ls_number_reflns          7241
_refine_ls_number_parameters      462
_refine_ls_number_restraints      0
_refine_ls_R_factor_all           0.0521
_refine_ls_R_factor_gt            0.0453
_refine_ls_wR_factor_ref          0.1306
_refine_ls_wR_factor_gt           0.1255
_refine_ls_goodness_of_fit_ref    1.012
_refine_ls_restrained_S_all       1.012
_refine_ls_shift/su_max           0.029
_refine_ls_shift/su_mean          0.000
 
loop_
 _atom_site_label
 _atom_site_type_symbol
 _atom_site_fract_x
 _atom_site_fract_y
 _atom_site_fract_z
 _atom_site_U_iso_or_equiv
 _atom_site_adp_type
 _atom_site_occupancy
 _atom_site_site_symmetry_order  
 _atom_site_calc_flag
 _atom_site_refinement_flags_posn
 _atom_site_refinement_flags_adp
 _atom_site_refinement_flags_occupancy
 _atom_site_disorder_assembly
 _atom_site_disorder_group
Cd01 Cd 0.19986(3) 0.49091(2) 0.46812(2) 0.02288(10) Uani 1 1 d . . . . .
N1 N 0.3419(7) 0.0441(6) 0.3755(6) 0.102(3) Uani 1 1 d . . . . .
O0 O 0.4323(3) 0.3754(3) 0.4369(2) 0.0360(7) Uani 1 1 d . . . . .
N2 N 0.8160(4) 0.2433(3) 1.3252(2) 0.0220(6) Uani 1 1 d . . . . .
N3 N 0.3975(3) 0.2736(3) 0.9247(2) 0.0190(6) Uani 1 1 d . . . . .
N4 N 0.0929(4) 1.0987(3) -0.3697(2) 0.0285(7) Uani 1 1 d . . . . .
N5 N 0.2232(4) 0.6494(3) 0.3533(2) 0.0205(6) Uani 1 1 d . . . . .
N6 N 0.2914(4) 0.8034(3) 0.2684(2) 0.0215(6) Uani 1 1 d . . . . .
N7 N 0.1787(4) 1.1298(3) -0.2402(2) 0.0202(6) Uani 1 1 d . . . . .
S002 S 0.81538(10) 0.52876(8) 0.90542(6) 0.01889(18) Uani 1 1 d . . . . .
S003 S -0.08733(10) 0.77792(7) -0.03127(7) 0.01923(18) Uani 1 1 d . . . . .
O4 O 0.2378(3) 0.3880(2) 0.62967(19) 0.0246(6) Uani 1 1 d . . . . .
O005 O 0.3699(3) 0.5075(2) 0.59346(18) 0.0217(5) Uani 1 1 d . . . . .
O006 O 1.1103(3) 0.4647(2) 1.3223(2) 0.0270(6) Uani 1 1 d . . . . .
O7 O 1.0290(3) 0.3921(2) 1.47319(18) 0.0226(5) Uani 1 1 d . . . . .
N008 N 0.8149(3) 0.3261(2) 1.2352(2) 0.0151(5) Uani 1 1 d . . . . .
N009 N 0.4792(3) 0.3478(2) 0.9067(2) 0.0147(5) Uani 1 1 d . . . . .
N00B N 0.8362(3) 0.4711(3) 1.0255(2) 0.0175(6) Uani 1 1 d . . . . .
N00C N 0.6932(3) 0.4775(2) 0.8827(2) 0.0167(6) Uani 1 1 d . . . . .
N00D N 0.1442(3) 1.0304(2) -0.2081(2) 0.0172(6) Uani 1 1 d . . . . .
N00E N 0.2091(3) 0.7782(2) 0.2079(2) 0.0163(6) Uani 1 1 d . . . . .
N00F N -0.0211(3) 0.8684(2) -0.1133(2) 0.0182(6) Uani 1 1 d . . . . .
N00H N 0.0037(3) 0.7580(2) 0.0686(2) 0.0179(6) Uani 1 1 d . . . . .
C00M C 0.4688(4) 0.4136(3) 0.8090(2) 0.0150(6) Uani 1 1 d . . . . .
H00M H 0.515640 0.470505 0.779615 0.018 Uiso 1 1 calc R U . . .
C00N C 0.8941(4) 0.3934(3) 1.2406(2) 0.0151(6) Uani 1 1 d . . . . .
H00N H 0.908776 0.455628 1.187457 0.018 Uiso 1 1 calc R U . . .
C00P C 0.7450(4) 0.4060(3) 1.0544(2) 0.0146(6) Uani 1 1 d . . . . .
C00Q C 0.6614(4) 0.4105(3) 0.9716(2) 0.0140(6) Uani 1 1 d . . . . .
C00R C 0.7289(4) 0.3356(3) 1.1533(2) 0.0147(6) Uani 1 1 d . . . . .
C00S C 0.3274(4) 0.4296(3) 0.6542(3) 0.0182(7) Uani 1 1 d . . . . .
C00T C 0.3776(4) 0.3819(3) 0.7611(2) 0.0158(6) Uani 1 1 d . . . . .
C00U C 0.5601(4) 0.3461(3) 0.9876(2) 0.0133(6) Uani 1 1 d . . . . .
C00V C 0.0780(4) 0.8887(3) -0.0637(3) 0.0158(6) Uani 1 1 d . . . . .
C00W C 0.9493(4) 0.3552(3) 1.3369(3) 0.0177(7) Uani 1 1 d . . . . .
C00X C 0.6286(4) 0.2769(3) 1.1660(2) 0.0164(6) Uani 1 1 d . . . . .
H00X H 0.613721 0.231560 1.231627 0.020 Uiso 1 1 calc R U . . .
C00Y C 0.2684(4) 0.9151(3) 0.0612(3) 0.0165(6) Uani 1 1 d . . . . .
H00Y H 0.333975 0.925715 0.102273 0.020 Uiso 1 1 calc R U . . .
C00Z C 0.1699(4) 0.6862(3) 0.2606(3) 0.0180(7) Uani 1 1 d . . . . .
H00Z H 0.112638 0.652748 0.234943 0.022 Uiso 1 1 calc R U . . .
C010 C 0.5458(4) 0.2815(3) 1.0840(2) 0.0154(6) Uani 1 1 d . . . . .
H010 H 0.478285 0.238359 1.096436 0.018 Uiso 1 1 calc R U . . .
C011 C 0.3369(4) 0.2954(3) 0.8357(3) 0.0185(7) Uani 1 1 d . . . . .
H011 H 0.273534 0.257064 0.823738 0.022 Uiso 1 1 calc R U . . .
C012 C 0.1613(4) 0.9656(3) -0.1057(2) 0.0163(6) Uani 1 1 d . . . . .
C013 C 0.0922(4) 0.8252(3) 0.0413(3) 0.0155(6) Uani 1 1 d . . . . .
C014 C 1.0352(4) 0.4073(3) 1.3789(3) 0.0197(7) Uani 1 1 d . . . . .
C015 C 0.1902(4) 0.8402(3) 0.1039(2) 0.0152(6) Uani 1 1 d . . . . .
C016 C 0.2541(4) 0.9771(3) -0.0428(3) 0.0171(6) Uani 1 1 d . . . . .
H016 H 0.310655 1.028043 -0.069493 0.020 Uiso 1 1 calc R U . . .
C017 C 0.8963(4) 0.2626(3) 1.3866(3) 0.0217(7) Uani 1 1 d . . . . .
H017 H 0.915828 0.219383 1.455646 0.026 Uiso 1 1 calc R U . . .
C018 C 0.1455(4) 1.1669(3) -0.3366(3) 0.0209(7) Uani 1 1 d . . . . .
H018 H 0.157096 1.236127 -0.380202 0.025 Uiso 1 1 calc R U . . .
C019 C 0.2964(4) 0.7233(3) 0.3547(3) 0.0220(7) Uani 1 1 d . . . . .
H019 H 0.346683 0.717332 0.412991 0.026 Uiso 1 1 calc R U . . .
C01A C 0.0946(5) 1.0142(3) -0.2876(3) 0.0279(8) Uani 1 1 d . . . . .
H01A H 0.065047 0.950596 -0.284437 0.033 Uiso 1 1 calc R U . . .
O01B O 0.4306(6) 0.1992(5) 0.3637(4) 0.0819(16) Uani 1 1 d . . . . .
C01C C 0.2501(8) -0.0177(6) 0.4379(5) 0.0588(16) Uani 1 1 d . . . . .
H01B H 0.313897 -0.088080 0.484803 0.088 Uiso 1 1 calc R U . . .
H01C H 0.189530 -0.035697 0.396046 0.088 Uiso 1 1 calc R U . . .
H01D H 0.183845 0.028070 0.475533 0.088 Uiso 1 1 calc R U . . .
C01E C 0.3463(8) 0.1440(6) 0.4008(5) 0.0590(15) Uani 1 1 d . . . . .
H01E H 0.278925 0.166117 0.449200 0.071 Uiso 1 1 calc R U . . .
C01F C 0.4596(12) -0.0068(11) 0.3200(9) 0.131(5) Uani 1 1 d . . . . .
H01F H 0.556744 -0.018990 0.349848 0.197 Uiso 1 1 calc R U . . .
H01G H 0.452089 0.043275 0.250263 0.197 Uiso 1 1 calc R U . . .
H01H H 0.450949 -0.079545 0.321662 0.197 Uiso 1 1 calc R U . . .
 
loop_
 _atom_site_aniso_label
 _atom_site_aniso_U_11
 _atom_site_aniso_U_22
 _atom_site_aniso_U_33
 _atom_site_aniso_U_23
 _atom_site_aniso_U_13
 _atom_site_aniso_U_12
Cd01 0.03582(17) 0.02774(16) 0.01080(14) 0.00147(10) -0.00623(10) -0.02408(12)
N1 0.060(4) 0.075(4) 0.138(7) -0.001(4) 0.055(4) -0.021(3)
O0 0.0307(16) 0.0495(19) 0.0355(17) -0.0126(15) 0.0014(13) -0.0242(15)
N2 0.0336(17) 0.0219(15) 0.0141(14) 0.0007(12) -0.0062(12) -0.0186(13)
N3 0.0209(15) 0.0247(15) 0.0162(14) -0.0047(12) -0.0029(11) -0.0148(12)
N4 0.046(2) 0.0252(17) 0.0164(15) -0.0011(13) -0.0051(14) -0.0187(15)
N5 0.0256(16) 0.0229(15) 0.0146(14) -0.0039(12) 0.0000(11) -0.0120(13)
N6 0.0300(17) 0.0220(15) 0.0165(14) -0.0059(12) -0.0028(12) -0.0128(13)
N7 0.0277(16) 0.0172(14) 0.0172(14) -0.0029(12) 0.0013(12) -0.0120(12)
S002 0.0237(4) 0.0237(4) 0.0135(4) -0.0034(3) -0.0010(3) -0.0155(3)
S003 0.0206(4) 0.0208(4) 0.0187(4) -0.0048(3) 0.0001(3) -0.0111(3)
O4 0.0319(14) 0.0315(14) 0.0149(12) -0.0003(11) -0.0084(10) -0.0212(12)
O005 0.0270(13) 0.0254(13) 0.0146(12) -0.0010(10) -0.0030(10) -0.0155(11)
O006 0.0341(15) 0.0354(15) 0.0184(13) -0.0027(11) -0.0045(11) -0.0253(13)
O7 0.0330(14) 0.0256(13) 0.0132(11) -0.0019(10) -0.0079(10) -0.0172(11)
N008 0.0203(14) 0.0174(13) 0.0099(12) -0.0028(11) -0.0025(10) -0.0096(11)
N009 0.0156(13) 0.0179(13) 0.0135(13) -0.0048(11) -0.0013(10) -0.0090(11)
N00B 0.0203(14) 0.0212(14) 0.0144(13) -0.0056(11) 0.0001(11) -0.0114(12)
N00C 0.0196(14) 0.0198(14) 0.0142(13) -0.0055(11) 0.0004(11) -0.0107(12)
N00D 0.0233(15) 0.0146(13) 0.0133(13) -0.0010(11) -0.0008(11) -0.0086(11)
N00E 0.0192(14) 0.0167(13) 0.0146(14) -0.0049(11) -0.0005(11) -0.0076(11)
N00F 0.0200(14) 0.0168(14) 0.0186(14) -0.0053(12) -0.0009(11) -0.0069(11)
N00H 0.0196(14) 0.0168(14) 0.0176(14) -0.0039(11) 0.0015(11) -0.0079(11)
C00M 0.0169(16) 0.0168(15) 0.0124(15) -0.0049(13) -0.0018(12) -0.0060(13)
C00N 0.0177(16) 0.0188(16) 0.0122(15) -0.0057(13) 0.0008(12) -0.0096(13)
C00P 0.0164(15) 0.0169(15) 0.0138(15) -0.0073(13) 0.0007(12) -0.0072(13)
C00Q 0.0154(15) 0.0156(15) 0.0124(14) -0.0054(12) -0.0007(11) -0.0052(12)
C00R 0.0179(16) 0.0162(15) 0.0121(15) -0.0051(12) -0.0022(12) -0.0070(13)
C00S 0.0200(17) 0.0210(16) 0.0145(15) -0.0044(13) -0.0039(12) -0.0081(14)
C00T 0.0157(15) 0.0197(16) 0.0135(15) -0.0059(13) -0.0028(12) -0.0061(13)
C00U 0.0136(15) 0.0154(15) 0.0127(15) -0.0060(12) -0.0022(11) -0.0048(12)
C00V 0.0178(16) 0.0136(15) 0.0160(16) -0.0050(13) -0.0003(12) -0.0043(12)
C00W 0.0213(17) 0.0196(16) 0.0149(15) -0.0051(13) -0.0030(12) -0.0099(14)
C00X 0.0198(16) 0.0192(16) 0.0116(15) -0.0030(13) 0.0000(12) -0.0098(13)
C00Y 0.0182(16) 0.0159(15) 0.0157(16) -0.0039(13) -0.0013(12) -0.0065(13)
C00Z 0.0212(17) 0.0187(16) 0.0156(16) -0.0037(13) 0.0008(13) -0.0100(14)
C010 0.0165(16) 0.0174(15) 0.0157(15) -0.0056(13) -0.0016(12) -0.0090(13)
C011 0.0189(16) 0.0233(17) 0.0169(16) -0.0056(14) -0.0037(12) -0.0114(14)
C012 0.0200(16) 0.0135(15) 0.0139(15) -0.0029(13) 0.0019(12) -0.0050(13)
C013 0.0170(16) 0.0135(14) 0.0159(15) -0.0046(12) 0.0021(12) -0.0052(12)
C014 0.0254(18) 0.0214(17) 0.0145(16) -0.0022(13) -0.0059(13) -0.0124(14)
C015 0.0182(16) 0.0136(15) 0.0120(15) -0.0026(12) -0.0001(12) -0.0038(12)
C016 0.0181(16) 0.0143(15) 0.0181(16) -0.0027(13) -0.0001(12) -0.0066(13)
C017 0.0302(19) 0.0234(17) 0.0137(16) -0.0017(14) -0.0072(13) -0.0138(15)
C018 0.0269(18) 0.0201(17) 0.0156(16) -0.0034(14) 0.0019(13) -0.0099(14)
C019 0.030(2) 0.0231(18) 0.0151(16) -0.0052(14) -0.0008(14) -0.0124(15)
C01A 0.048(2) 0.0236(18) 0.0174(17) -0.0040(15) -0.0041(16) -0.0203(18)
O01B 0.088(4) 0.083(3) 0.106(4) -0.048(3) 0.038(3) -0.057(3)
C01C 0.069(4) 0.064(4) 0.070(4) -0.036(3) 0.027(3) -0.047(3)
C01E 0.063(4) 0.065(4) 0.066(4) -0.033(3) 0.018(3) -0.033(3)
C01F 0.126(8) 0.214(12) 0.168(10) -0.155(10) 0.109(8) -0.132(9)
 
_geom_special_details
;
 All esds (except the esd in the dihedral angle between two l.s. planes)
 are estimated using the full covariance matrix.  The cell esds are taken
 into account individually in the estimation of esds in distances, angles
 and torsion angles; correlations between esds in cell parameters are only
 used when they are defined by crystal symmetry.  An approximate (isotropic)
 treatment of cell esds is used for estimating esds involving l.s. planes.
;
 
loop_
 _geom_bond_atom_site_label_1
 _geom_bond_atom_site_label_2
 _geom_bond_distance
 _geom_bond_site_symmetry_2
 _geom_bond_publ_flag
Cd01 O4 2.224(3) . ?
Cd01 N5 2.242(3) . ?
Cd01 O0 2.341(3) . ?
Cd01 O7 2.352(3) 1_454 ?
Cd01 O006 2.450(3) 1_454 ?
Cd01 O7 2.484(3) 2_667 ?
Cd01 O005 2.582(3) . ?
Cd01 C00S 2.735(3) . ?
Cd01 C014 2.740(3) 1_454 ?
N1 C01C 1.428(8) . ?
N1 C01F 1.427(10) . ?
N1 C01E 1.487(10) . ?
N2 C017 1.327(5) . ?
N2 N008 1.372(4) . ?
N3 C011 1.327(4) . ?
N3 N009 1.375(4) . ?
N4 C01A 1.311(5) . ?
N4 C018 1.367(5) . ?
N5 C00Z 1.316(5) . ?
N5 C019 1.364(5) . ?
N6 C019 1.314(5) . ?
N6 N00E 1.378(4) . ?
N7 C018 1.312(5) . ?
N7 N00D 1.370(4) . ?
S002 N00C 1.604(3) . ?
S002 N00B 1.612(3) . ?
S003 N00F 1.610(3) . ?
S003 N00H 1.612(3) . ?
O4 C00S 1.264(4) . ?
O005 C00S 1.254(4) . ?
O006 C014 1.248(5) . ?
O7 C014 1.280(4) . ?
N008 C00N 1.349(4) . ?
N008 C00R 1.413(4) . ?
N009 C00M 1.357(4) . ?
N009 C00U 1.413(4) . ?
N00B C00P 1.347(4) . ?
N00C C00Q 1.349(4) . ?
N00D C01A 1.352(5) . ?
N00D C012 1.407(4) . ?
N00E C00Z 1.341(4) . ?
N00E C015 1.419(4) . ?
N00F C00V 1.348(4) . ?
N00H C013 1.347(4) . ?
C00M C00T 1.369(5) . ?
C00M H00M 0.9500 . ?
C00N C00W 1.366(5) . ?
C00N H00N 0.9500 . ?
C00P C00R 1.426(5) . ?
C00P C00Q 1.436(4) . ?
C00Q C00U 1.425(5) . ?
C00R C00X 1.365(5) . ?
C00S C00T 1.481(5) . ?
C00T C011 1.404(5) . ?
C00U C010 1.368(5) . ?
C00V C012 1.422(5) . ?
C00V C013 1.434(5) . ?
C00W C017 1.411(5) . ?
C00W C014 1.474(5) . ?
C00X C010 1.421(4) . ?
C00X H00X 0.9500 . ?
C00Y C015 1.368(5) . ?
C00Y C016 1.418(5) . ?
C00Y H00Y 0.9500 . ?
C00Z H00Z 0.9500 . ?
C010 H010 0.9500 . ?
C011 H011 0.9500 . ?
C012 C016 1.368(5) . ?
C013 C015 1.426(5) . ?
C016 H016 0.9500 . ?
C017 H017 0.9500 . ?
C018 H018 0.9500 . ?
C019 H019 0.9500 . ?
C01A H01A 0.9500 . ?
O01B C01E 1.216(7) . ?
C01C H01B 0.9800 . ?
C01C H01C 0.9800 . ?
C01C H01D 0.9800 . ?
C01E H01E 0.9500 . ?
C01F H01F 0.9800 . ?
C01F H01G 0.9800 . ?
C01F H01H 0.9800 . ?
 
loop_
 _geom_angle_atom_site_label_1
 _geom_angle_atom_site_label_2
 _geom_angle_atom_site_label_3
 _geom_angle
 _geom_angle_site_symmetry_1
 _geom_angle_site_symmetry_3
 _geom_angle_publ_flag
O4 Cd01 N5 143.50(10) . . ?
O4 Cd01 O0 88.42(11) . . ?
N5 Cd01 O0 94.47(11) . . ?
O4 Cd01 O7 83.47(9) . 1_454 ?
N5 Cd01 O7 129.98(10) . 1_454 ?
O0 Cd01 O7 105.51(10) . 1_454 ?
O4 Cd01 O006 133.61(9) . 1_454 ?
N5 Cd01 O006 82.85(10) . 1_454 ?
O0 Cd01 O006 84.70(11) . 1_454 ?
O7 Cd01 O006 54.88(9) 1_454 1_454 ?
O4 Cd01 O7 84.04(10) . 2_667 ?
N5 Cd01 O7 88.83(10) . 2_667 ?
O0 Cd01 O7 171.10(9) . 2_667 ?
O7 Cd01 O7 78.37(10) 1_454 2_667 ?
O006 Cd01 O7 103.93(9) 1_454 2_667 ?
O4 Cd01 O005 54.17(9) . . ?
N5 Cd01 O005 90.54(10) . . ?
O0 Cd01 O005 79.67(10) . . ?
O7 Cd01 O005 137.45(8) 1_454 . ?
O006 Cd01 O005 162.50(9) 1_454 . ?
O7 Cd01 O005 92.06(8) 2_667 . ?
O4 Cd01 C00S 27.09(10) . . ?
N5 Cd01 C00S 117.17(11) . . ?
O0 Cd01 C00S 83.29(11) . . ?
O7 Cd01 C00S 110.49(10) 1_454 . ?
O006 Cd01 C00S 157.34(10) 1_454 . ?
O7 Cd01 C00S 87.85(9) 2_667 . ?
O005 Cd01 C00S 27.07(9) . . ?
O4 Cd01 C014 108.94(10) . 1_454 ?
N5 Cd01 C014 107.06(11) . 1_454 ?
O0 Cd01 C014 94.78(11) . 1_454 ?
O7 Cd01 C014 27.80(10) 1_454 1_454 ?
O006 Cd01 C014 27.10(10) 1_454 1_454 ?
O7 Cd01 C014 92.14(10) 2_667 1_454 ?
O005 Cd01 C014 161.98(10) . 1_454 ?
C00S Cd01 C014 135.76(11) . 1_454 ?
C01C N1 C01F 121.4(7) . . ?
C01C N1 C01E 114.9(6) . . ?
C01F N1 C01E 120.0(6) . . ?
C017 N2 N008 104.1(3) . . ?
C011 N3 N009 103.9(3) . . ?
C01A N4 C018 102.9(3) . . ?
C00Z N5 C019 104.2(3) . . ?
C00Z N5 Cd01 122.8(2) . . ?
C019 N5 Cd01 132.8(2) . . ?
C019 N6 N00E 102.3(3) . . ?
C018 N7 N00D 102.4(3) . . ?
N00C S002 N00B 100.68(15) . . ?
N00F S003 N00H 100.99(16) . . ?
C00S O4 Cd01 99.6(2) . . ?
C00S O005 Cd01 83.3(2) . . ?
C014 O006 Cd01 89.5(2) . 1_656 ?
C014 O7 Cd01 93.2(2) . 1_656 ?
C014 O7 Cd01 116.8(2) . 2_667 ?
Cd01 O7 Cd01 101.63(10) 1_656 2_667 ?
C00N N008 N2 112.1(3) . . ?
C00N N008 C00R 128.6(3) . . ?
N2 N008 C00R 119.2(3) . . ?
C00M N009 N3 112.1(3) . . ?
C00M N009 C00U 129.4(3) . . ?
N3 N009 C00U 118.5(3) . . ?
C00P N00B S002 107.0(2) . . ?
C00Q N00C S002 106.9(2) . . ?
C01A N00D N7 109.0(3) . . ?
C01A N00D C012 131.3(3) . . ?
N7 N00D C012 119.6(3) . . ?
C00Z N00E N6 109.9(3) . . ?
C00Z N00E C015 129.9(3) . . ?
N6 N00E C015 119.9(3) . . ?
C00V N00F S003 106.5(2) . . ?
C013 N00H S003 106.6(2) . . ?
N009 C00M C00T 106.5(3) . . ?
N009 C00M H00M 126.7 . . ?
C00T C00M H00M 126.7 . . ?
N008 C00N C00W 107.1(3) . . ?
N008 C00N H00N 126.4 . . ?
C00W C00N H00N 126.4 . . ?
N00B C00P C00R 127.4(3) . . ?
N00B C00P C00Q 112.5(3) . . ?
C00R C00P C00Q 120.1(3) . . ?
N00C C00Q C00U 126.6(3) . . ?
N00C C00Q C00P 113.0(3) . . ?
C00U C00Q C00P 120.4(3) . . ?
C00X C00R N008 121.2(3) . . ?
C00X C00R C00P 117.7(3) . . ?
N008 C00R C00P 121.1(3) . . ?
O005 C00S O4 122.9(3) . . ?
O005 C00S C00T 121.5(3) . . ?
O4 C00S C00T 115.6(3) . . ?
O005 C00S Cd01 69.63(18) . . ?
O4 C00S Cd01 53.28(17) . . ?
C00T C00S Cd01 168.8(3) . . ?
C00M C00T C011 105.4(3) . . ?
C00M C00T C00S 128.1(3) . . ?
C011 C00T C00S 126.5(3) . . ?
C010 C00U N009 121.4(3) . . ?
C010 C00U C00Q 117.5(3) . . ?
N009 C00U C00Q 121.1(3) . . ?
N00F C00V C012 126.2(3) . . ?
N00F C00V C013 113.0(3) . . ?
C012 C00V C013 120.7(3) . . ?
C00N C00W C017 104.9(3) . . ?
C00N C00W C014 126.2(3) . . ?
C017 C00W C014 128.8(3) . . ?
C00R C00X C010 122.0(3) . . ?
C00R C00X H00X 119.0 . . ?
C010 C00X H00X 119.0 . . ?
C015 C00Y C016 121.7(3) . . ?
C015 C00Y H00Y 119.1 . . ?
C016 C00Y H00Y 119.1 . . ?
N5 C00Z N00E 109.4(3) . . ?
N5 C00Z H00Z 125.3 . . ?
N00E C00Z H00Z 125.3 . . ?
C00U C010 C00X 122.2(3) . . ?
C00U C010 H010 118.9 . . ?
C00X C010 H010 118.9 . . ?
N3 C011 C00T 112.0(3) . . ?
N3 C011 H011 124.0 . . ?
C00T C011 H011 124.0 . . ?
C016 C012 N00D 121.4(3) . . ?
C016 C012 C00V 117.9(3) . . ?
N00D C012 C00V 120.7(3) . . ?
N00H C013 C015 127.7(3) . . ?
N00H C013 C00V 112.9(3) . . ?
C015 C013 C00V 119.4(3) . . ?
O006 C014 O7 122.3(3) . . ?
O006 C014 C00W 119.6(3) . . ?
O7 C014 C00W 118.0(3) . . ?
O006 C014 Cd01 63.42(19) . 1_656 ?
O7 C014 Cd01 58.97(18) . 1_656 ?
C00W C014 Cd01 176.1(3) . 1_656 ?
C00Y C015 N00E 120.2(3) . . ?
C00Y C015 C013 118.5(3) . . ?
N00E C015 C013 121.3(3) . . ?
C012 C016 C00Y 121.9(3) . . ?
C012 C016 H016 119.1 . . ?
C00Y C016 H016 119.1 . . ?
N2 C017 C00W 111.8(3) . . ?
N2 C017 H017 124.1 . . ?
C00W C017 H017 124.1 . . ?
N7 C018 N4 115.1(3) . . ?
N7 C018 H018 122.5 . . ?
N4 C018 H018 122.5 . . ?
N6 C019 N5 114.2(3) . . ?
N6 C019 H019 122.9 . . ?
N5 C019 H019 122.9 . . ?
N4 C01A N00D 110.5(3) . . ?
N4 C01A H01A 124.7 . . ?
N00D C01A H01A 124.7 . . ?
N1 C01C H01B 109.5 . . ?
N1 C01C H01C 109.5 . . ?
H01B C01C H01C 109.5 . . ?
N1 C01C H01D 109.5 . . ?
H01B C01C H01D 109.5 . . ?
H01C C01C H01D 109.5 . . ?
O01B C01E N1 124.3(6) . . ?
O01B C01E H01E 117.9 . . ?
N1 C01E H01E 117.9 . . ?
N1 C01F H01F 109.5 . . ?
N1 C01F H01G 109.5 . . ?
H01F C01F H01G 109.5 . . ?
N1 C01F H01H 109.5 . . ?
H01F C01F H01H 109.5 . . ?
H01G C01F H01H 109.5 . . ?
 
_refine_diff_density_max    2.947
_refine_diff_density_min   -1.141
_refine_diff_density_rms    0.124

_shelx_res_file
;
TITL pvl928_auto_a.res in P-1
    pvl928_auto_a.res
    created by SHELXL-2018/3 at 11:33:03 on 12-Apr-2022
REM Old TITL pvl928_auto in P-1
REM SHELXT solution in P-1
REM R1 0.167,  Rweak 0.011,  Alpha 0.045,  Orientation as input
REM Formula found by SHELXT:  C37 N8 O3 S2 Cd
CELL  0.71073   9.4068  13.1730  14.1394   70.599   85.549   71.539
ZERR   18.000   0.0002   0.0003   0.0003    0.002    0.002    0.002
LATT  1
SFAC C H N O S CD
UNIT 18.00 18.00 18.00 18.00 18.00 18.00
ACTA
TEMP -143
L.S. 10
BOND $H
LIST 6
FMAP 2
PLAN 20
WGHT    0.068000    6.281700
FVAR       0.24245
CD01  6    0.199860    0.490908    0.468120    11.00000    0.03582    0.02774 =
         0.01080    0.00147   -0.00623   -0.02408
N1    3    0.341910    0.044135    0.375453    11.00000    0.05970    0.07450 =
         0.13781   -0.00068    0.05463   -0.02147
O0    4    0.432334    0.375440    0.436921    11.00000    0.03073    0.04949 =
         0.03548   -0.01264    0.00137   -0.02421
N2    3    0.815958    0.243321    1.325248    11.00000    0.03362    0.02191 =
         0.01408    0.00071   -0.00624   -0.01859
N3    3    0.397528    0.273562    0.924716    11.00000    0.02086    0.02470 =
         0.01623   -0.00474   -0.00294   -0.01475
N4    3    0.092935    1.098678   -0.369672    11.00000    0.04630    0.02519 =
         0.01638   -0.00114   -0.00508   -0.01869
N5    3    0.223235    0.649448    0.353349    11.00000    0.02565    0.02292 =
         0.01455   -0.00392   -0.00005   -0.01201
N6    3    0.291422    0.803408    0.268428    11.00000    0.02998    0.02198 =
         0.01651   -0.00593   -0.00280   -0.01281
N7    3    0.178652    1.129813   -0.240192    11.00000    0.02774    0.01724 =
         0.01722   -0.00294    0.00128   -0.01205
S002  5    0.815383    0.528764    0.905423    11.00000    0.02368    0.02373 =
         0.01354   -0.00339   -0.00104   -0.01554
S003  5   -0.087335    0.777924   -0.031267    11.00000    0.02056    0.02079 =
         0.01867   -0.00481    0.00015   -0.01112
O4    4    0.237762    0.388027    0.629671    11.00000    0.03186    0.03147 =
         0.01492   -0.00032   -0.00839   -0.02120
O005  4    0.369949    0.507470    0.593463    11.00000    0.02696    0.02542 =
         0.01458   -0.00100   -0.00301   -0.01554
O006  4    1.110288    0.464682    1.322347    11.00000    0.03409    0.03542 =
         0.01839   -0.00271   -0.00454   -0.02530
O7    4    1.028993    0.392055    1.473187    11.00000    0.03305    0.02560 =
         0.01323   -0.00189   -0.00787   -0.01719
N008  3    0.814888    0.326128    1.235211    11.00000    0.02025    0.01737 =
         0.00985   -0.00281   -0.00245   -0.00964
N009  3    0.479234    0.347766    0.906701    11.00000    0.01557    0.01786 =
         0.01353   -0.00477   -0.00133   -0.00898
N00B  3    0.836160    0.471079    1.025528    11.00000    0.02032    0.02124 =
         0.01439   -0.00556    0.00013   -0.01139
N00C  3    0.693159    0.477526    0.882656    11.00000    0.01965    0.01976 =
         0.01418   -0.00552    0.00039   -0.01068
N00D  3    0.144170    1.030382   -0.208132    11.00000    0.02329    0.01458 =
         0.01329   -0.00103   -0.00082   -0.00857
N00E  3    0.209058    0.778182    0.207900    11.00000    0.01921    0.01667 =
         0.01464   -0.00486   -0.00055   -0.00757
N00F  3   -0.021146    0.868374   -0.113283    11.00000    0.01997    0.01680 =
         0.01861   -0.00528   -0.00089   -0.00689
N00H  3    0.003679    0.758037    0.068640    11.00000    0.01956    0.01678 =
         0.01755   -0.00393    0.00153   -0.00793
C00M  1    0.468807    0.413599    0.809006    11.00000    0.01685    0.01682 =
         0.01241   -0.00486   -0.00184   -0.00599
AFIX  43
H00M  2    0.515640    0.470505    0.779615    11.00000   -1.20000
AFIX   0
C00N  1    0.894114    0.393390    1.240632    11.00000    0.01768    0.01882 =
         0.01225   -0.00568    0.00081   -0.00962
AFIX  43
H00N  2    0.908776    0.455628    1.187457    11.00000   -1.20000
AFIX   0
C00P  1    0.745014    0.406034    1.054370    11.00000    0.01637    0.01688 =
         0.01383   -0.00729    0.00068   -0.00717
C00Q  1    0.661384    0.410473    0.971561    11.00000    0.01536    0.01557 =
         0.01241   -0.00541   -0.00067   -0.00523
C00R  1    0.728896    0.335586    1.153303    11.00000    0.01792    0.01624 =
         0.01209   -0.00514   -0.00221   -0.00701
C00S  1    0.327398    0.429626    0.654246    11.00000    0.01996    0.02101 =
         0.01451   -0.00440   -0.00395   -0.00812
C00T  1    0.377585    0.381945    0.761107    11.00000    0.01567    0.01966 =
         0.01351   -0.00589   -0.00283   -0.00610
C00U  1    0.560077    0.346056    0.987635    11.00000    0.01360    0.01541 =
         0.01269   -0.00602   -0.00223   -0.00485
C00V  1    0.077969    0.888735   -0.063697    11.00000    0.01780    0.01359 =
         0.01599   -0.00502   -0.00025   -0.00430
C00W  1    0.949335    0.355240    1.336934    11.00000    0.02132    0.01961 =
         0.01491   -0.00505   -0.00299   -0.00986
C00X  1    0.628597    0.276887    1.165966    11.00000    0.01982    0.01920 =
         0.01157   -0.00304    0.00001   -0.00985
AFIX  43
H00X  2    0.613721    0.231560    1.231627    11.00000   -1.20000
AFIX   0
C00Y  1    0.268403    0.915051    0.061181    11.00000    0.01818    0.01586 =
         0.01569   -0.00390   -0.00128   -0.00653
AFIX  43
H00Y  2    0.333975    0.925715    0.102273    11.00000   -1.20000
AFIX   0
C00Z  1    0.169918    0.686184    0.260585    11.00000    0.02119    0.01869 =
         0.01560   -0.00371    0.00078   -0.01003
AFIX  43
H00Z  2    0.112638    0.652748    0.234943    11.00000   -1.20000
AFIX   0
C010  1    0.545806    0.281521    1.083957    11.00000    0.01648    0.01740 =
         0.01567   -0.00565   -0.00159   -0.00904
AFIX  43
H010  2    0.478285    0.238359    1.096436    11.00000   -1.20000
AFIX   0
C011  1    0.336938    0.295420    0.835663    11.00000    0.01885    0.02328 =
         0.01690   -0.00562   -0.00369   -0.01140
AFIX  43
H011  2    0.273534    0.257064    0.823738    11.00000   -1.20000
AFIX   0
C012  1    0.161307    0.965579   -0.105731    11.00000    0.01996    0.01351 =
         0.01393   -0.00294    0.00188   -0.00498
C013  1    0.092217    0.825162    0.041261    11.00000    0.01700    0.01348 =
         0.01591   -0.00461    0.00211   -0.00523
C014  1    1.035207    0.407340    1.378919    11.00000    0.02538    0.02136 =
         0.01450   -0.00216   -0.00590   -0.01237
C015  1    0.190184    0.840227    0.103893    11.00000    0.01820    0.01360 =
         0.01197   -0.00264   -0.00008   -0.00384
C016  1    0.254147    0.977068   -0.042782    11.00000    0.01808    0.01432 =
         0.01810   -0.00273   -0.00006   -0.00660
AFIX  43
H016  2    0.310655    1.028043   -0.069493    11.00000   -1.20000
AFIX   0
C017  1    0.896328    0.262625    1.386639    11.00000    0.03015    0.02343 =
         0.01369   -0.00174   -0.00721   -0.01380
AFIX  43
H017  2    0.915828    0.219383    1.455646    11.00000   -1.20000
AFIX   0
C018  1    0.145466    1.166919   -0.336599    11.00000    0.02688    0.02014 =
         0.01557   -0.00339    0.00192   -0.00986
AFIX  43
H018  2    0.157096    1.236127   -0.380202    11.00000   -1.20000
AFIX   0
C019  1    0.296432    0.723292    0.354717    11.00000    0.03036    0.02310 =
         0.01514   -0.00517   -0.00084   -0.01240
AFIX  43
H019  2    0.346683    0.717332    0.412991    11.00000   -1.20000
AFIX   0
C01A  1    0.094572    1.014241   -0.287624    11.00000    0.04827    0.02363 =
         0.01742   -0.00399   -0.00411   -0.02030
AFIX  43
H01A  2    0.065047    0.950596   -0.284437    11.00000   -1.20000
AFIX   0
O01B  4    0.430558    0.199182    0.363720    11.00000    0.08776    0.08284 =
         0.10569   -0.04791    0.03752   -0.05736
C01C  1    0.250097   -0.017745    0.437851    11.00000    0.06889    0.06389 =
         0.06992   -0.03583    0.02745   -0.04698
AFIX 137
H01B  2    0.313897   -0.088080    0.484803    11.00000   -1.50000
H01C  2    0.189530   -0.035697    0.396046    11.00000   -1.50000
H01D  2    0.183845    0.028070    0.475533    11.00000   -1.50000
AFIX   0
C01E  1    0.346315    0.143995    0.400837    11.00000    0.06304    0.06484 =
         0.06563   -0.03276    0.01770   -0.03330
AFIX  43
H01E  2    0.278925    0.166117    0.449200    11.00000   -1.20000
AFIX   0
C01F  1    0.459642   -0.006767    0.319961    11.00000    0.12638    0.21380 =
         0.16814   -0.15548    0.10882   -0.13169
AFIX 137
H01F  2    0.556744   -0.018990    0.349848    11.00000   -1.50000
H01G  2    0.452089    0.043275    0.250263    11.00000   -1.50000
H01H  2    0.450949   -0.079545    0.321662    11.00000   -1.50000
REM #####
REM #####
AFIX   0
HKLF 4




REM  pvl928_auto_a.res in P-1
REM wR2 = 0.1306, GooF = S = 1.012, Restrained GooF = 1.012 for all data
REM R1 = 0.0453 for 6418 Fo > 4sig(Fo) and 0.0521 for all 7241 data
REM 462 parameters refined using 0 restraints

END

WGHT      0.0659      5.4221

REM Highest difference peak  2.947,  deepest hole -1.141,  1-sigma level  0.124
Q1    1   0.2998  0.1613  0.1974  11.00000  0.05    2.95
Q2    1   0.4496  0.3233  0.3862  11.00000  0.05    2.78
Q3    1   0.2527  0.1155  0.2744  11.00000  0.05    2.40
Q4    1   0.3997  0.2174  0.4373  11.00000  0.05    2.09
Q5    1   0.3352  0.0021  0.3437  11.00000  0.05    1.39
Q6    1   0.3433  0.0601  0.3855  11.00000  0.05    1.23
Q7    1   0.5133  0.4036  0.4159  11.00000  0.05    0.63
Q8    1   0.4813 -0.0527  0.3329  11.00000  0.05    0.59
Q9    1   0.1351  0.5378  0.4709  11.00000  0.05    0.46
Q10   1   0.4233  0.4201  0.3862  11.00000  0.05    0.44
Q11   1   0.2626  0.9410  0.0058  11.00000  0.05    0.43
Q12   1   0.7107  0.4000  1.0190  11.00000  0.05    0.38
Q13   1   0.7311  0.3757  1.1032  11.00000  0.05    0.38
Q14   1   0.3594  0.3974  0.7151  11.00000  0.05    0.37
Q15   1   0.4052  0.3645  0.3187  11.00000  0.05    0.36
Q16   1   0.0852  0.8634 -0.0075  11.00000  0.05    0.35
Q17   1   0.9223  0.3197  1.3695  11.00000  0.05    0.35
Q18   1   0.1758  0.7333  0.2244  11.00000  0.05    0.35
Q19   1   0.8213  0.2801  1.2827  11.00000  0.05    0.34
Q20   1   0.8216  0.2756  1.3534  11.00000  0.05    0.33
;
_shelx_res_checksum   83776

_shelx_hkl_file
;
   0   0  -2  547.47    9.57
   0   0   2  545.38    9.57
   0   0  -2  558.48    9.84
   0   0   2  545.28    9.83
   0   0   2  540.07    9.79
   0   0   2  552.39    9.80
   0   0  -2  526.52    9.77
   0   0  -3   95.66    2.47
   0   0   3   93.92    2.12
   0   0   3   93.86    2.42
   0   0  -3   90.30    2.12
   0   0   3   95.74    2.39
   0   0   3   92.18    2.39
   0   0  -3   91.59    2.38
   0   0   3   90.96    1.95
   0   0   4    4.90    0.50
   0   0  -4    3.73    0.75
   0   0  -4    4.81    0.57
   0   0   4    5.31    0.66
   0   0  -4    2.98    0.53
   0   0   4    3.76    0.70
   0   0   4    4.69    0.62
   0   0   4    4.01    0.41
   0   0  -5   65.12    2.01
   0   0   5   69.42    2.39
   0   0  -5   74.59    2.51
   0   0   5   71.60    2.01
   0   0   5   73.24    2.41
   0   0   5   71.45    2.38
   0   0  -5   62.91    2.28
   0   0   5   72.21    1.78
   0   0  -6   14.99    1.22
   0   0   6   15.37    1.18
   0   0   6   16.15    0.94
   0   0   6   17.13    1.21
   0   0  -6   15.38    1.15
   0   0   6   16.24    1.22
   0   0   6   16.88    0.79
   0   0   7  469.93    9.83
   0   0  -7  455.72    9.78
   0   0   7  433.23    8.82
   0   0   7  448.46    9.67
   0   0   7  444.49    9.61
   0   0   7  446.31    8.39
   0   0   8    3.41    0.75
   0   0  -8    4.16    0.88
   0   0   8    3.65    0.58
   0   0   8    3.68    0.87
   0   0   8    4.28    0.79
   0   0   8    3.86    0.50
   0   0  -9   47.51    2.53
   0   0   9   50.66    2.57
   0   0   9   46.51    1.93
   0   0   9   49.10    2.50
   0   0   9   44.65    2.40
   0   0   9   47.45    1.58
   0   0  10   65.08    2.43
   0   0 -10   70.55    3.28
   0   0  10   63.92    3.02
   0   0  10   69.44    3.14
   0   0  10   61.82    1.94
   0   0  11  102.52    3.35
   0   0 -11  105.56    4.31
   0   0  11  102.74    4.14
   0   0  11  103.88    2.71
   0   0 -12   47.94    3.02
   0   0  12   46.27    2.18
   0   0  12   44.55    2.82
   0   0  12   46.11    1.58
   0   0 -13   34.46    2.70
   0   0  13   34.43    1.93
   0   0  13   30.99    2.47
   0   0  13   35.29    1.31
   0   0 -14  199.38    7.11
   0   0  14  188.68    6.74
   0   0 -15   12.62    1.99
   0   0  15    9.32    1.70
   0   0 -16  172.77    7.05
   0   0  16  165.87    6.69
   0   0  17   18.77    2.32
   0  -1  16   90.85    4.97
   0   1 -15   66.26    4.11
   0  -1  15   70.73    4.16
   0   1 -14  189.83    7.04
   0  -1  14  183.28    6.82
   0   1 -13   44.95    3.10
   0  -1  13   37.51    2.82
   0  -1  12    3.65    0.63
   0   1 -12    2.53    1.08
   0  -1  12    3.38    1.04
   0  -1  12    4.00    0.41
   0  -1  11   25.04    1.40
   0   1 -11   25.21    2.14
   0  -1  11   25.13    2.10
   0  -1  11   24.95    0.97
   0   1 -10   65.56    3.27
   0  -1  10   63.97    2.29
   0  -1  10   69.80    3.35
   0  -1  10   71.71    1.89
   0   1  -9   31.73    2.14
   0  -1   9   29.70    1.41
   0  -1   9   36.41    2.23
   0  -1   9   32.71    2.13
   0  -1   9   34.53    2.17
   0  -1   9   31.85    1.14
   0  -1   8    2.04    0.47
   0   1  -8    1.74    0.72
   0  -1   8    2.04    0.66
   0  -1   8    2.58    0.79
   0  -1   8    1.07    0.25
   0  -1   8    1.37    0.67
   0   1  -7   98.56    3.45
   0  -1   7   98.26    3.44
   0  -1   7   91.72    2.54
   0   1  -7   93.24    3.36
   0  -1   7  100.34    3.46
   0  -1   7   91.04    3.37
   0  -1   7   98.99    2.28
   0   1  -6  177.14    4.78
   0  -1   6  176.21    4.76
   0  -1   6  171.39    3.82
   0  -1   6  173.85    4.77
   0   1  -6  169.84    4.71
   0  -1   6  173.99    4.72
   0  -1   6  177.16    3.56
   0  -1   5   89.93    2.85
   0  -1   5   84.60    2.11
   0   1  -5   84.94    2.84
   0   1  -5   81.44    2.74
   0  -1   5   87.28    2.89
   0  -1   5   85.04    2.82
   0  -1   5   86.19    1.94
   0   1  -5   81.92    1.94
   0  -1   4  180.56    4.34
   0  -1   4  183.31    3.59
   0   1  -4  177.42    4.34
   0   1  -4  167.91    4.33
   0  -1   4  176.92    4.42
   0   1  -4  175.20    3.46
   0  -1   4  179.86    3.45
   0  -1   3  779.11   14.11
   0   1  -3  782.24   14.11
   0  -1   3  761.79   13.32
   0  -1   3  774.65   14.15
   0   1  -3  736.30   14.07
   0  -1   3  778.82   13.29
   0   1  -3  761.99   13.29
   0   1  -2  924.60   15.95
   0  -1   2  873.91   15.96
   0   1  -2  855.52   15.93
   0  -1   2  911.28   15.36
   0   1  -2  890.18   15.36
   0  -1   1  279.22    5.33
   0   1  -1  281.67    5.32
   0  -1  -1  588.56   10.31
   0   1   2  358.96    6.70
   0  -1  -2  369.89    6.71
   0   1   2  357.84    6.53
   0  -1  -2  343.04    6.53
   0   1   2  356.90    6.41
   0  -1  -2  372.80    6.54
   0   1   2  367.95    6.54
   0  -1  -2  372.93    6.75
   0   1   2  365.97    6.74
   0   1   3   42.77    1.45
   0  -1  -3   43.19    1.40
   0   1   3   42.18    1.35
   0  -1  -3   41.60    1.48
   0  -1  -3   40.95    1.15
   0   1   3   41.72    1.13
   0   1   3   42.41    1.27
   0   1   3   44.14    1.32
   0  -1  -3   46.33    1.36
   0  -1  -4    1.64    0.69
   0   1   4    1.12    0.51
   0  -1  -4    1.50    0.53
   0   1   4    2.15    0.45
   0   1   4    1.73    0.28
   0   1   4    3.06    0.49
   0  -1  -4    0.76    0.51
   0   1   4    1.16    0.38
   0   1   5   37.66    1.47
   0  -1  -5   34.04    1.50
   0  -1  -5   38.60    1.75
   0   1   5   39.06    1.68
   0   1   5   39.06    1.09
   0   1   5   39.82    1.54
   0   1   5   38.95    1.54
   0   1   5   39.07    1.32
   0   1   6    7.72    0.70
   0  -1  -6    8.82    0.84
   0  -1  -6   10.53    1.09
   0   1   6    8.73    0.93
   0   1   6    8.26    0.45
   0   1   6    8.40    0.87
   0   1   6    9.02    0.82
   0   1   6    8.81    0.66
   0   1   7   10.47    1.05
   0  -1  -7    9.15    1.07
   0   1   7    9.25    0.82
   0  -1  -7    8.36    0.88
   0   1   7    9.09    0.47
   0   1   7   10.15    0.98
   0   1   7   10.79    0.98
   0   1   7   10.38    0.75
   0   1   8   65.49    2.77
   0   1   8   63.27    2.34
   0  -1  -8   62.32    2.38
   0  -1  -8   65.89    2.78
   0   1   8   66.04    1.53
   0   1   8   66.54    2.66
   0   1   8   61.45    2.55
   0   1   8   67.15    2.06
   0  -1  -9  114.61    4.05
   0   1   9  119.83    4.10
   0   1   9  108.79    3.43
   0   1   9  111.20    3.79
   0   1   9  111.65    3.86
   0   1   9  113.21    3.01
   0   1  10    1.01    0.55
   0  -1 -10    0.70    0.70
   0   1  10    0.08    0.58
   0   1  10    2.47    1.03
   0   1  10    1.02    0.45
   0   1  11  173.55    4.94
   0  -1 -11  169.37    5.70
   0   1  11  176.47    5.52
   0   1  11  179.98    4.29
   0   1  12   29.37    1.81
   0  -1 -12   30.31    2.37
   0   1  12   31.99    2.25
   0   1  12   31.25    1.44
   0   1  13  193.94    5.74
   0  -1 -13  210.94    7.02
   0   1  13  208.34    6.65
   0   1  13  216.34    4.91
   0  -1 -14   95.81    4.62
   0   1  14   86.00    4.16
   0  -1 -15   14.87    2.05
   0   1  15   14.65    1.86
   0  -1 -16  103.53    5.29
   0   1  16   93.35    4.71
   0   1  17    9.91    1.79
   0   1  18   85.04    4.82
   0  -2  16   51.84    3.84
   0   2 -15   66.75    4.22
   0  -2  15   64.12    4.10
   0   2 -14   82.23    4.50
   0  -2  14   86.87    4.64
   0   2 -13   27.96    2.54
   0  -2  13   32.45    2.71
   0   2 -12   11.34    1.67
   0  -2  12   11.95    0.93
   0  -2  12   11.03    1.64
   0   2 -11   81.88    3.94
   0  -2  11   76.93    2.42
   0  -2  11   72.08    3.71
   0  -2  10   14.77    0.95
   0   2 -10   12.85    1.54
   0  -2  10   15.62    1.69
   0   2  -9   41.83    2.51
   0  -2   9   41.97    1.55
   0  -2   9   38.48    2.44
   0   2  -8   21.16    1.72
   0  -2   8   20.51    0.98
   0  -2   8   18.97    1.69
   0  -2   8   21.42    1.70
   0   2  -7   10.96    1.25
   0  -2   7   10.19    0.66
   0   2  -7   11.05    1.29
   0  -2   7   10.02    1.22
   0   2  -7    9.87    0.58
   0  -2   7   10.82    0.60
   0  -2   7   11.72    1.21
   0  -2   6   46.12    1.39
   0   2  -6   48.14    2.26
   0  -2   6   47.56    2.23
   0   2  -6   49.60    2.31
   0  -2   6   48.57    2.35
   0  -2   6   49.89    1.38
   0   2  -6   47.11    1.37
   0   2  -5  536.05   10.66
   0  -2   5  506.96    9.21
   0   2  -5  511.99    8.96
   0  -2   5  533.26   10.74
   0   2  -5  502.55   10.65
   0   2  -5  508.59    9.27
   0   2  -4  183.02    4.56
   0  -2   4  180.02    3.45
   0   2  -4  173.98    3.45
   0   2  -4  177.71    4.56
   0  -2   4  189.09    4.67
   0   2  -4  178.29    3.60
   0   2  -3  243.99    5.31
   0   2  -3  225.12    4.42
   0  -2   3  232.93    5.35
   0   2  -3  224.01    5.28
   0   2  -3  235.39    4.47
   0   2  -2  660.50   11.72
   0   2  -2  631.66   12.30
   0  -2   2  649.39   12.34
   0   2  -2  677.48   11.69
   0  -2   1 1047.73   17.53
   0   2  -1 1018.42   17.53
   0   2  -1  988.81   18.05
   0  -2   1 1026.20   18.08
   0   2  -1  998.68   17.83
   0  -2   0  377.58    6.96
   0   2   0  386.95    6.97
   0   2   0  371.66    7.05
   0  -2   0  384.01    7.07
   0   2   0  388.83    7.18
   0  -2   0  400.45    7.21
   0   2   1  462.33    8.50
   0  -2  -1  455.22    8.50
   0   2   1  458.42    8.42
   0  -2  -1  465.66    8.42
   0   2   2  337.83    6.51
   0  -2  -2  337.73    6.52
   0  -2  -2  332.50    6.47
   0   2   2  339.31    6.47
   0  -2  -2  330.54    6.36
   0   2   2  345.55    6.40
   0  -2  -2  343.24    6.08
   0   2   2  330.58    6.08
   0  -2  -3  340.26    6.80
   0   2   3  326.91    6.74
   0  -2  -3  325.09    6.58
   0   2   3  355.78    6.66
   0   2   3  345.29    6.60
   0   2   3  345.05    6.37
   0   2   3  344.11    6.12
   0  -2  -3  346.79    6.37
   0   2   4    6.53    0.72
   0  -2  -4    5.37    0.76
   0   2   4    5.53    0.67
   0   2   4    5.53    0.56
   0  -2  -4    4.28    0.55
   0   2   4    5.88    0.53
   0   2   4    5.53    0.55
   0  -2  -4    5.60    0.60
   0   2   5   25.94    1.37
   0  -2  -5   25.14    1.40
   0   2   5   26.75    1.33
   0   2   5   24.61    1.05
   0   2   5   26.80    1.14
   0  -2  -5   26.29    1.24
   0   2   5   25.86    1.19
   0  -2  -5   22.90    1.41
   0   2   6   32.01    1.52
   0   2   6   32.83    1.68
   0  -2  -6   29.04    1.55
   0   2   6   31.79    1.19
   0   2   6   32.95    1.47
   0  -2  -6   31.05    1.46
   0   2   6   31.43    1.39
   0  -2  -6   30.95    1.65
   0  -2  -7   16.27    1.24
   0  -2  -7   13.48    1.24
   0   2   7   19.60    1.40
   0   2   7   17.86    1.17
   0   2   7   18.07    0.87
   0   2   7   16.61    1.14
   0   2   7   17.12    1.11
   0   2   8   31.94    1.69
   0  -2  -8   37.77    2.07
   0   2   8   35.85    1.99
   0  -2  -8   32.72    1.78
   0   2   8   36.59    1.29
   0   2   8   36.26    1.83
   0   2   8   35.14    1.73
   0   2   8   36.30    1.55
   0   2   9   85.31    3.37
   0  -2  -9   80.12    3.02
   0  -2  -9   80.99    3.33
   0   2   9   85.38    3.04
   0   2   9   86.25    2.21
   0   2   9   82.31    3.01
   0   2   9   83.87    3.13
   0   2   9   86.94    2.68
   0   2  10    5.90    1.00
   0   2  10    6.92    0.92
   0  -2 -10    5.37    1.07
   0  -2 -10    6.77    0.98
   0   2  10    6.01    0.49
   0   2  10    6.36    0.96
   0   2  10    7.53    0.81
   0   2  10    5.28    0.91
   0  -2 -11   12.97    1.52
   0   2  11   14.73    1.33
   0   2  11   17.16    0.75
   0   2  11   13.38    1.34
   0   2  11   17.37    1.50
   0   2  11   15.05    1.11
   0  -2 -12  288.11    8.28
   0   2  12  288.96    7.48
   0   2  12  289.30    7.77
   0   2  12  307.10    6.76
   0   2  13   55.86    2.75
   0  -2 -13   52.99    3.23
   0   2  13   53.96    2.94
   0   2  13   55.01    2.20
   0   2  14   82.59    3.59
   0   2  14   79.47    3.82
   0  -2 -14   79.88    4.22
   0   2  14   86.88    2.86
   0   2  15   41.47    2.85
   0  -2 -15   41.29    3.11
   0   2  16   58.20    3.52
   0  -2 -16   61.35    3.94
   0   2  17   35.35    2.88
   0   2  18   55.38    3.72
   0  -3  15   53.19    3.83
   0   3 -14   97.01    5.05
   0  -3  14   93.68    4.97
   0   3 -13    5.79    1.36
   0  -3  13    7.28    1.55
   0   3 -12   18.32    2.08
   0  -3  12   20.06    2.18
   0   3 -11   17.66    1.91
   0  -3  11   20.68    0.93
   0  -3  11   19.31    1.99
   0  -3  10   44.37    1.42
   0   3 -10   45.03    2.82
   0  -3  10   42.82    2.83
   0  -3   9   67.27    1.82
   0   3  -9   65.45    3.29
   0  -3   9   67.43    3.37
   0  -3   8   20.58    0.84
   0   3  -8   19.02    1.71
   0  -3   8   21.04    1.81
   0   3  -8   20.38    0.88
   0   3  -7    0.43    0.66
   0  -3   7    0.37    0.23
   0  -3   7    0.76    0.78
   0   3  -7   -0.19    0.60
   0   3  -7    0.36    0.25
   0  -3   7    2.16    0.78
   0  -3   6  155.02    3.11
   0   3  -6  151.45    4.66
   0   3  -6  155.31    3.18
   0   3  -6  160.67    4.82
   0  -3   6  163.60    4.86
   0   3  -6  152.47    3.40
   0   3  -5  430.66    9.26
   0  -3   5  419.33    7.47
   0   3  -5  411.62    7.74
   0   3  -5  424.03    9.36
   0  -3   5  429.52    9.39
   0   3  -5  411.34    7.87
   0   3  -4   93.17    3.10
   0  -3   4   90.40    1.90
   0   3  -4   89.26    2.25
   0  -3   4   95.11    3.20
   0   3  -4   93.31    3.14
   0   3  -4   91.34    2.28
   0  -3   3  300.20    5.39
   0   3  -3  288.68    5.86
   0   3  -3  288.74    6.64
   0  -3   3  306.12    6.74
   0   3  -3  296.19    5.83
   0  -3   2  378.79    6.71
   0   3  -2  354.97    7.66
   0  -3   2  356.86    7.68
   0   3  -2  367.80    7.17
   0  -3   1   77.12    1.87
   0   3  -1   77.13    1.86
   0  -3   1   80.32    2.36
   0   3  -1   79.22    2.30
   0   3  -1   78.53    2.20
   0   3   0  194.89    3.99
   0  -3   0  193.14    3.99
   0  -3   0  197.10    4.13
   0   3   0  189.20    4.12
   0   3   0  195.07    4.28
   0   3   1   81.34    2.17
   0  -3  -1   81.81    2.18
   0   3   1   87.06    2.35
   0  -3  -1   86.56    2.36
   0  -3  -1   81.43    1.95
   0   3   1   77.98    1.93
   0   3   2  958.84   17.21
   0  -3  -2  968.26   17.04
   0  -3  -2  926.83   17.19
   0   3   2  951.64   17.14
   0  -3  -2  970.62   17.14
   0  -3  -2  944.70   16.56
   0   3   3   17.86    1.08
   0  -3  -3   18.10    1.14
   0   3   3   17.94    1.04
   0  -3  -3   19.70    1.02
   0  -3  -3   17.55    1.08
   0   3   3   18.78    1.03
   0  -3  -3   18.51    0.75
   0   3   3   17.32    0.76
   0  -3  -4   54.10    2.02
   0   3   4   51.72    1.97
   0  -3  -4   48.70    1.81
   0   3   4   53.30    1.85
   0   3   4   52.16    1.84
   0  -3  -4   55.83    1.57
   0   3   4   53.86    1.27
   0   3   4   53.42    1.55
   0  -3  -5    8.13    0.97
   0   3   5    8.96    0.91
   0   3   5    8.40    0.88
   0   3   5    9.27    0.80
   0   3   5    8.74    0.89
   0   3   5    9.78    0.72
   0   3   5    8.81    0.59
   0  -3  -5    8.49    0.71
   0   3   6  124.19    3.66
   0  -3  -6  123.61    3.62
   0   3   6  124.31    3.60
   0   3   6  123.22    3.21
   0  -3  -6  127.29    3.26
   0   3   6  121.58    3.22
   0   3   6  126.18    3.01
   0   3   7    6.51    0.86
   0  -3  -7    5.99    0.88
   0   3   7    6.26    0.82
   0   3   7    7.90    0.72
   0   3   7    6.69    0.70
   0   3   7    7.81    0.79
   0  -3  -7    7.20    0.81
   0   3   8   36.27    1.91
   0  -3  -8   34.78    1.91
   0   3   8   38.30    2.07
   0   3   8   37.80    1.53
   0   3   8   37.05    1.79
   0   3   8   37.27    1.66
   0  -3  -8   39.95    2.13
   0  -3  -9    1.95    0.76
   0  -3  -9    0.30    0.66
   0   3   9    0.85    0.57
   0   3   9    0.18    0.57
   0   3   9    1.33    0.43
   0   3   9    0.92    0.51
   0   3   9    0.97    0.56
   0   3  10   25.26    1.71
   0   3  10   27.90    1.99
   0  -3 -10   25.94    1.80
   0   3  10   26.89    1.26
   0   3  10   27.87    1.77
   0   3  10   26.59    1.62
   0  -3 -10   24.41    1.90
   0   3  10   25.26    1.47
   0  -3 -11    3.37    1.07
   0  -3 -11    3.57    0.88
   0   3  11    5.37    0.88
   0   3  11    4.33    0.56
   0   3  11    4.33    0.79
   0   3  11    5.04    0.92
   0   3  11    2.99    0.62
   0   3  12  181.99    5.64
   0   3  12  190.81    4.27
   0   3  12  184.79    5.51
   0   3  12  191.16    5.05
   0  -3 -12  174.79    6.04
   0  -3 -13   10.06    1.56
   0   3  13   10.25    1.28
   0   3  13    8.00    0.60
   0   3  13    7.74    1.09
   0   3  13    8.56    0.96
   0   3  14  296.93    8.19
   0  -3 -14  295.07    8.98
   0   3  14  307.71    7.22
   0   3  15   81.78    3.86
   0  -3 -15   78.60    4.30
   0   3  15   84.72    3.06
   0   3  16   74.47    3.82
   0  -3 -16   77.56    4.47
   0  -3 -17   10.96    2.02
   0   3  17    9.71    1.56
   0   3  18   37.36    2.98
   0   4 -14  118.35    5.77
   0  -4  14  115.49    5.79
   0   4 -13    6.93    1.52
   0  -4  13    9.38    1.73
   0   4 -12   36.30    2.96
   0  -4  12   39.00    3.05
   0   4 -11    1.10    0.97
   0  -4  11    1.19    0.99
   0   4 -10   24.35    2.17
   0  -4  10   28.71    2.44
   0   4  -9   -0.30    0.89
   0  -4   9    0.66    0.88
   0   4  -9    0.65    0.30
   0   4  -8   14.60    1.61
   0   4  -8   13.65    0.52
   0  -4   8   13.79    1.55
   0   4  -8   15.17    0.83
   0   4  -7   11.77    1.40
   0   4  -7   17.08    0.77
   0  -4   7   16.87    1.63
   0  -4   7   17.46    1.60
   0   4  -7   14.53    1.54
   0   4  -7   16.11    0.87
   0   4  -6   40.56    2.26
   0   4  -6   38.11    1.33
   0   4  -6   39.71    2.29
   0  -4   6   35.44    2.20
   0   4  -6   36.32    1.38
   0   4  -5  270.93    6.80
   0   4  -5  264.44    5.50
   0  -4   5  263.14    6.88
   0   4  -5  271.85    6.91
   0   4  -5  261.16    5.51
   0  -4   4   31.42    0.89
   0   4  -4   28.74    1.25
   0   4  -4   32.09    1.84
   0  -4   4   32.45    1.88
   0   4  -4   29.44    1.26
   0  -4   3  380.34    6.90
   0   4  -3  366.55    7.52
   0  -4   3  378.92    8.35
   0   4  -3  373.08    8.31
   0   4  -3  374.37    7.46
   0  -4   2  522.85    9.51
   0   4  -2  518.09   10.55
   0  -4   2  533.61   10.58
   0   4  -2  519.45   10.10
   0   4  -1   70.27    1.94
   0  -4   1   74.07    1.98
   0   4  -1   72.79    2.41
   0  -4   1   76.86    2.47
   0   4  -1   76.93    2.35
   0   4   0  504.47    9.68
   0  -4   0  517.29    9.70
   0   4   0  511.29    9.89
   0  -4   0  525.55    9.90
   0   4   0  529.06   10.12
   0  -4  -1   28.71    1.29
   0   4   1   27.62    1.25
   0  -4  -1   29.05    1.15
   0   4   1   27.05    1.12
   0   4   1   28.13    1.40
   0  -4  -2  199.46    4.58
   0   4   2  196.97    4.55
   0  -4  -2  204.70    4.74
   0  -4  -2  203.47    4.54
   0   4   2  195.94    4.69
   0  -4  -2  195.40    3.89
   0   4   2  190.84    3.90
   0  -4  -3    1.38    0.69
   0   4   3    2.07    0.59
   0  -4  -3    1.82    0.53
   0   4   3    1.65    0.62
   0  -4  -3    3.19    0.71
   0   4   3    2.47    0.71
   0  -4  -3    1.46    0.23
   0   4   3    1.93    0.26
   0  -4  -3    1.68    0.36
   0   4   4   78.69    2.64
   0  -4  -4   82.49    2.75
   0  -4  -4   80.64    2.49
   0   4   4   80.50    2.63
   0  -4  -4   80.56    2.63
   0   4   4   82.41    2.53
   0  -4  -4   82.78    2.06
   0   4   4   81.44    2.08
   0  -4  -5   27.70    1.59
   0   4   5   27.66    1.54
   0   4   5   27.77    1.43
   0   4   5   27.30    1.45
   0  -4  -5   27.82    1.13
   0   4   5   27.48    0.81
   0   4   5   25.75    1.11
   0  -4  -6   22.06    1.50
   0   4   6   22.88    1.48
   0   4   6   24.66    1.37
   0   4   6   23.15    1.39
   0   4   6   22.68    1.14
   0   4   6   23.37    0.91
   0  -4  -6   23.96    1.15
   0   4   6   24.69    1.54
   0   4   7   55.70    2.41
   0   4   7   55.11    2.43
   0  -4  -7   56.35    2.45
   0   4   7   55.45    1.73
   0   4   7   55.51    2.00
   0  -4  -7   55.52    2.00
   0   4   7   54.82    2.12
   0   4   7   54.06    2.27
   0   4   8  220.90    5.85
   0  -4  -8  202.60    5.60
   0   4   8  209.67    5.65
   0   4   8  207.57    4.71
   0  -4  -8  207.01    5.07
   0   4   8  205.92    5.08
   0   4   8  205.97    5.04
   0   4   8  206.68    5.47
   0   4   9   13.35    1.31
   0   4   9   11.78    1.21
   0  -4  -9   11.47    1.24
   0   4   9   13.79    1.05
   0   4   9   12.67    0.97
   0   4   9   13.72    1.12
   0   4  10    0.53    0.63
   0   4  10    0.07    0.64
   0  -4 -10   -1.08    0.69
   0   4  10    1.14    0.52
   0   4  10    0.48    0.49
   0   4  10    0.27    0.54
   0  -4 -11   71.43    3.23
   0   4  11   69.88    3.18
   0   4  11   76.28    2.58
   0   4  11   73.89    2.81
   0   4  11   73.61    3.06
   0   4  11   72.27    2.83
   0  -4 -12   46.62    2.67
   0   4  12   50.23    2.00
   0   4  12   48.07    2.57
   0   4  12   50.94    2.41
   0   4  12   48.41    2.31
   0  -4 -13   73.54    3.50
   0   4  13   78.23    2.54
   0   4  13   77.41    3.23
   0   4  13   73.78    3.01
   0   4  14   46.74    1.81
   0   4  14   45.30    2.56
   0   4  14   46.76    2.36
   0   4  15   81.45    3.66
   0   4  15   82.89    3.24
   0   4  16  151.88    5.46
   0   4  17    8.06    1.38
   0   5 -13    3.73    1.40
   0  -5  13    7.03    1.58
   0   5 -12    2.42    1.32
   0  -5  12    0.46    1.05
   0   5 -11    7.27    1.64
   0  -5  11    6.83    1.54
   0   5 -10   -1.19    1.06
   0  -5  10   -0.15    0.88
   0   5  -9    8.89    1.43
   0  -5   9    7.57    1.36
   0   5  -9    7.76    0.63
   0   5  -8   11.42    1.54
   0   5  -8   10.27    0.64
   0  -5   8    7.99    1.40
   0   5  -8    9.42    0.73
   0   5  -7    9.38    1.35
   0   5  -7    7.58    0.64
   0  -5   7    8.06    1.27
   0   5  -7    6.87    0.65
   0   5  -6    0.04    0.69
   0   5  -6    0.53    0.34
   0  -5   6    0.53    0.71
   0   5  -6    0.50    0.63
   0   5  -6    0.90    0.39
   0   5  -5  276.23    7.20
   0  -5   5  270.83    4.93
   0   5  -5  270.08    5.92
   0   5  -5  275.53    7.25
   0  -5   5  281.68    7.27
   0   5  -5  272.40    5.90
   0  -5   4  112.82    2.42
   0   5  -4  109.10    3.11
   0   5  -4  111.65    3.99
   0  -5   4  107.89    3.83
   0   5  -4  109.10    3.05
   0  -5   3  665.17   12.00
   0   5  -3  649.43   12.80
   0   5  -3  687.13   13.66
   0  -5   3  673.49   13.61
   0   5  -3  674.17   12.72
   0  -5   2  231.86    4.79
   0   5  -2  228.52    5.76
   0  -5   2  231.74    5.77
   0   5  -2  230.19    5.41
   0  -5   1  171.91    3.91
   0   5  -1  166.64    3.88
   0  -5   1  180.83    4.50
   0   5  -1  171.10    4.47
   0   5  -1  171.39    4.39
   0  -5   0   56.00    1.89
   0   5   0   56.02    1.90
   0   5   0   56.84    2.06
   0  -5   0   58.23    2.07
   0   5   0   55.58    2.18
   0   5   1    7.28    0.76
   0  -5  -1    9.54    0.87
   0   5   1    7.07    0.68
   0  -5  -1    8.19    0.74
   0   5   1    8.24    0.93
   0  -5  -2  101.41    3.00
   0   5   2  101.80    3.01
   0   5   2  104.15    3.23
   0  -5  -2  103.92    2.51
   0   5   2   97.92    2.50
   0  -5  -3  119.21    3.46
   0   5   3  123.66    3.49
   0   5   3  117.43    3.54
   0  -5  -3  122.05    3.39
   0  -5  -3  116.51    2.54
   0   5   3  116.30    2.56
   0  -5  -3  120.91    2.83
   0  -5  -4   66.19    2.52
   0   5   4   65.78    2.49
   0   5   4   63.25    2.46
   0   5   4   66.28    2.36
   0  -5  -4   66.95    2.35
   0  -5  -4   63.89    1.82
   0   5   5  114.77    3.62
   0  -5  -5  118.92    3.68
   0   5   5  115.62    3.39
   0  -5  -5  115.00    3.38
   0   5   5  115.26    3.53
   0  -5  -5  115.27    2.79
   0   5   5  112.25    2.81
   0  -5  -6   11.47    1.19
   0   5   6   12.42    1.19
   0   5   6   10.43    1.00
   0   5   6   10.38    1.03
   0  -5  -6   11.17    0.78
   0   5   6   10.88    0.47
   0   5   6   10.80    0.80
   0   5   7    1.36    0.60
   0  -5  -7    0.46    0.67
   0   5   7    1.36    0.64
   0   5   7    1.12    0.64
   0   5   7    1.90    0.61
   0   5   7    1.31    0.31
   0   5   7    1.83    0.47
   0  -5  -7    1.91    0.47
   0  -5  -8    0.12    0.70
   0   5   8    0.47    0.53
   0   5   8    0.11    0.62
   0   5   8   -0.12    0.49
   0   5   8   -0.10    0.56
   0   5   8   -0.02    0.32
   0   5   8    0.71    0.44
   0  -5  -8    0.17    0.41
   0   5   9   62.33    2.89
   0   5   9   67.09    3.01
   0  -5  -9   61.43    2.90
   0   5   9   60.40    2.46
   0   5   9   64.86    2.78
   0   5   9   61.73    2.38
   0  -5  -9   61.14    2.36
   0   5   9   62.98    2.05
   0   5  10    0.38    0.70
   0  -5 -10    0.20    0.67
   0   5  10    0.64    0.55
   0   5  10   -0.74    0.62
   0   5  10    0.03    0.37
   0   5  10    0.14    0.45
   0  -5 -11  208.98    6.31
   0   5  11  213.03    5.25
   0   5  11  206.43    5.69
   0   5  11  208.63    5.44
   0   5  11  207.96    6.16
   0  -5 -12   27.22    2.13
   0   5  12   32.48    2.25
   0   5  12   30.38    1.72
   0   5  12   30.68    1.73
   0   5  12   31.21    1.97
   0  -5 -13  571.76   13.55
   0   5  13  593.64   13.66
   0   5  13  595.96   12.07
   0   5  13  586.30   12.41
   0   5  13  592.39   12.78
   0  -5 -14    0.37    0.74
   0   5  14   -0.30    0.85
   0   5  14    1.26    0.58
   0   5  14    2.01    0.79
   0   5  14    1.27    0.64
   0   5  15   53.62    3.33
   0   5  15   54.40    2.79
   0   5  15   58.96    2.87
   0   5  16   42.45    3.10
   0   5  16   43.54    2.60
   0   5  16   42.90    2.44
   0   5  17   24.54    2.45
   0   5  18   52.29    3.75
   0   6 -12    2.21    1.04
   0  -6  12    0.57    1.05
   0   6 -11    1.60    1.24
   0  -6  11    2.29    0.97
   0   6 -10   18.70    2.04
   0  -6  10   19.74    2.29
   0   6  -9  129.77    5.28
   0   6  -9  121.74    2.88
   0  -6   9  123.03    5.29
   0   6  -8   81.51    3.94
   0   6  -8   84.50    2.43
   0  -6   8   82.00    4.07
   0   6  -8   74.24    2.44
   0   6  -7   19.57    1.90
   0   6  -7   20.48    1.17
   0  -6   7   21.88    2.05
   0   6  -7   19.28    1.16
   0   6  -6   22.41    1.94
   0   6  -6   23.10    1.30
   0  -6   6   22.14    1.93
   0   6  -6   22.42    1.26
   0  -6   5  157.17    3.06
   0   6  -5  155.93    5.18
   0   6  -5  152.78    4.12
   0  -6   5  149.65    5.16
   0   6  -5  161.15    5.25
   0   6  -5  151.72    4.05
   0  -6   4   78.18    1.97
   0   6  -4   78.57    2.69
   0  -6   4   72.63    3.24
   0   6  -4   79.07    3.30
   0   6  -4   73.71    2.56
   0  -6   3  204.74    4.36
   0   6  -3  198.76    5.75
   0  -6   3  207.66    5.77
   0   6  -3  205.03    5.16
   0  -6   2   19.48    1.02
   0   6  -2   17.32    1.41
   0  -6   2   20.28    1.51
   0   6  -2   19.22    1.33
   0  -6   1  287.48    6.08
   0   6  -1  279.97    6.06
   0  -6   1  288.37    6.74
   0   6  -1  286.01    6.74
   0   6  -1  287.39    6.72
   0   6   0  262.32    5.93
   0  -6   0  272.25    5.95
   0   6   0  270.50    6.21
   0  -6   0  277.11    6.23
   0   6   0  264.99    6.44
   0   6   1   59.07    2.25
   0  -6  -1   66.54    2.32
   0   6   1   61.80    2.16
   0  -6  -1   65.11    2.20
   0   6   1   62.14    2.52
   0  -6  -2  134.87    3.82
   0   6   2  134.44    3.84
   0   6   2  130.92    3.32
   0  -6  -2  142.11    3.37
   0   6   2  140.40    4.11
   0  -6  -3  173.27    4.65
   0   6   3  177.87    4.70
   0  -6  -3  180.71    4.68
   0   6   3  174.35    4.85
   0   6   3  170.10    3.76
   0  -6  -3  175.56    3.75
   0   6   4   43.69    2.09
   0  -6  -4   48.53    2.20
   0  -6  -4   44.59    1.99
   0   6   4   46.16    2.19
   0  -6  -4   40.34    1.17
   0   6   4   42.85    1.20
   0  -6  -4   45.41    1.53
   0  -6  -5   86.78    3.22
   0   6   5   92.86    3.30
   0   6   5   93.16    3.10
   0  -6  -5   91.21    3.05
   0   6   5   90.68    3.25
   0  -6  -5   90.00    2.40
   0   6   6    6.72    0.89
   0   6   6    8.84    1.06
   0  -6  -6    6.04    0.83
   0   6   6    6.70    0.98
   0  -6  -6    7.87    1.06
   0   6   6    6.23    0.60
   0  -6  -6    7.95    0.66
   0   6   7   34.52    2.06
   0  -6  -7   29.96    1.95
   0   6   7   31.74    1.81
   0   6   7   30.55    1.85
   0  -6  -7   31.33    1.37
   0   6   7   29.93    1.39
   0   6   8    9.10    1.16
   0   6   8    9.93    1.17
   0  -6  -8    8.61    1.18
   0   6   8   10.89    1.21
   0   6   8    8.96    1.05
   0   6   8    9.38    0.87
   0   6   8    8.69    0.50
   0  -6  -8    8.96    0.80
   0   6   9   13.01    1.41
   0   6   9   11.90    1.28
   0  -6  -9   14.55    1.51
   0  -6  -9   13.15    1.04
   0   6   9   12.50    1.02
   0   6   9   12.77    0.72
   0   6   9   13.48    1.26
   0   6   9   12.99    1.31
   0  -6 -10   28.48    2.11
   0   6  10   29.87    1.67
   0  -6 -10   28.89    1.61
   0   6  10   28.53    1.27
   0   6  10   29.94    1.84
   0   6  10   27.00    1.90
   0  -6 -11  115.67    4.54
   0   6  11  113.34    3.89
   0   6  11  117.52    4.30
   0   6  11  115.84    3.82
   0   6  11  123.08    3.30
   0  -6 -12   11.89    1.51
   0   6  12   15.27    1.37
   0   6  12   14.81    1.58
   0   6  12   16.37    1.16
   0   6  12   15.68    1.39
   0  -6 -13   40.50    2.73
   0   6  13   40.39    2.19
   0   6  13   37.22    2.54
   0   6  13   37.01    2.24
   0   6  13   38.50    1.93
   0  -6 -14   46.37    3.09
   0   6  14   51.59    2.46
   0   6  14   54.87    3.20
   0   6  14   54.23    2.45
   0   6  14   49.13    2.73
   0  -6 -15   54.84    3.47
   0   6  15   64.07    2.69
   0   6  15   61.50    3.57
   0   6  15   63.97    2.87
   0   6  15   65.30    3.19
   0   6  16   59.37    3.63
   0   6  16   57.57    3.03
   0   6  17   17.40    2.22
   0   6  18   18.48    2.29
   0   7 -11    0.45    1.02
   0  -7  11   -0.10    1.01
   0   7 -10    0.97    1.12
   0  -7  10   -0.21    1.08
   0   7  -9    6.87    1.57
   0  -7   9    9.16    1.59
   0   7  -8   49.09    3.19
   0   7  -8   47.34    1.92
   0  -7   8   44.06    3.08
   0   7  -7    2.20    1.15
   0   7  -7    1.85    0.55
   0  -7   7    0.45    0.85
   0   7  -7    0.69    0.47
   0   7  -6   13.50    1.67
   0   7  -6   11.82    1.07
   0  -7   6    8.20    1.40
   0   7  -6   10.28    0.96
   0  -7   5   21.63    0.79
   0   7  -5   22.79    1.44
   0  -7   5   21.34    1.92
   0   7  -5   21.28    1.37
   0  -7   4  126.12    2.94
   0   7  -4  118.71    3.78
   0  -7   4  120.90    4.51
   0   7  -4  129.21    4.59
   0   7  -4  120.29    3.70
   0  -7   3  106.40    2.79
   0   7  -3  107.78    3.95
   0  -7   3  104.46    3.92
   0   7  -3   98.50    3.42
   0  -7   2  226.13    5.10
   0   7  -2  227.77    6.15
   0  -7   2  231.61    6.18
   0   7  -2  219.00    5.83
   0  -7   1  165.28    4.13
   0   7  -1  153.23    4.05
   0   7  -1  163.72    4.71
   0  -7   1  166.81    4.75
   0   7  -1  163.74    4.73
   0   7   0  215.52    5.32
   0  -7   0  228.63    5.39
   0  -7   0  234.60    5.71
   0   7   0  229.17    5.67
   0   7   0  218.86    5.90
   0  -7  -1   83.75    2.84
   0   7   1   79.47    2.80
   0  -7  -1   82.84    2.74
   0   7   1   81.71    2.73
   0   7   1   80.98    3.14
   0  -7  -2  248.93    6.12
   0   7   2  253.47    6.15
   0  -7  -2  255.37    5.60
   0   7   2  243.05    5.57
   0   7   2  258.62    6.55
   0  -7  -3    0.44    0.60
   0   7   3    1.01    0.62
   0   7   3    0.31    0.60
   0  -7  -3    1.00    0.60
   0  -7  -3   -0.16    0.36
   0   7   3    1.05    0.39
   0  -7  -4  108.36    3.64
   0   7   4  110.88    3.70
   0   7   4  107.53    3.76
   0  -7  -4  110.57    3.58
   0  -7  -4  103.10    2.48
   0   7   4  104.05    2.52
   0  -7  -4  103.54    2.82
   0   7   5    8.61    1.13
   0  -7  -5    8.69    1.06
   0  -7  -5    9.31    0.72
   0   7   5    9.58    0.46
   0   7   5    9.55    1.16
   0  -7  -5   11.22    1.11
   0  -7  -6   37.01    2.18
   0   7   6   35.95    2.12
   0   7   6   34.79    2.07
   0  -7  -6   33.13    1.88
   0  -7  -6   34.97    1.41
   0  -7  -7    2.33    0.70
   0   7   7    1.08    0.71
   0   7   7    1.48    0.70
   0   7   7    2.25    0.73
   0  -7  -7    1.23    0.67
   0  -7  -7    2.45    0.47
   0   7   8   26.22    1.95
   0  -7  -8   23.85    1.86
   0   7   8   25.19    1.77
   0   7   8   23.16    1.67
   0  -7  -8   23.17    1.23
   0   7   8   24.38    1.31
   0  -7  -9   53.30    2.89
   0   7   9   52.11    2.61
   0   7   9   49.50    2.54
   0  -7  -9   55.65    2.10
   0   7   9   54.85    2.14
   0  -7 -10   73.18    3.51
   0   7  10   76.83    1.87
   0   7  10   69.88    2.63
   0  -7 -10   73.76    2.66
   0   7  10   69.92    3.09
   0   7  10   70.18    3.17
   0  -7 -11   41.86    2.71
   0   7  11   38.99    2.03
   0  -7 -11   39.80    2.00
   0   7  11   39.78    1.42
   0   7  11   37.55    2.38
   0   7  11   40.46    2.30
   0  -7 -12   87.23    4.07
   0   7  12   86.25    2.55
   0   7  12   87.38    3.32
   0   7  12   88.06    3.54
   0   7  12   87.82    3.81
   0  -7 -13   55.26    3.33
   0   7  13   66.15    2.93
   0   7  13   57.93    2.18
   0   7  13   57.36    3.17
   0   7  13   58.77    2.85
   0  -7 -14    1.56    0.97
   0   7  14    2.20    0.75
   0   7  14    1.43    0.88
   0   7  14    2.67    0.62
   0   7  15   62.30    2.91
   0   7  15   61.35    3.55
   0  -7 -15   60.52    3.68
   0   7  15   61.53    3.27
   0   7  16   77.41    4.15
   0   7  16   76.29    3.70
   0   7  17   11.60    1.91
   0   7  18   31.40    2.85
   0   8 -10    8.37    1.87
   0  -8  10   11.95    2.24
   0   8  -9   -1.30    1.26
   0  -8   9    1.35    1.20
   0   8  -8    7.62    1.50
   0   8  -8   10.33    0.99
   0  -8   8   11.99    1.87
   0   8  -7  121.94    5.25
   0   8  -7  138.59    4.09
   0  -8   7  126.45    5.38
   0   8  -7  124.54    3.87
   0   8  -6    6.47    1.37
   0   8  -6    4.65    0.80
   0  -8   6    6.17    1.27
   0   8  -6    4.75    0.76
   0  -8   5   91.12    2.16
   0   8  -5   93.09    3.37
   0  -8   5   91.55    4.10
   0   8  -5   85.18    3.16
   0  -8   4   11.29    0.77
   0   8  -4    9.07    1.09
   0  -8   4   12.28    1.50
   0   8  -4   11.56    1.14
   0  -8   3   99.61    2.84
   0   8  -3   98.53    3.59
   0  -8   3   94.12    3.89
   0   8  -3  108.61    4.13
   0   8  -3   99.20    3.49
   0  -8   2  170.54    4.28
   0  -8   2  171.04    5.29
   0   8  -2  164.67    5.20
   0   8  -2  164.82    5.01
   0   8  -1  263.41    6.14
   0  -8   1  261.70    6.13
   0  -8   1  271.10    6.91
   0   8  -1  265.58    6.85
   0   8  -1  264.39    6.91
   0  -8   0  386.63    8.37
   0   8   0  373.30    8.32
   0   8   0  388.04    8.71
   0  -8   0  386.63    8.72
   0   8   0  379.38    9.05
   0   8   1   42.73    2.05
   0  -8  -1   40.46    2.01
   0  -8  -1   46.53    2.06
   0   8   1   41.55    1.97
   0   8   1   40.77    2.29
   0  -8  -2  159.02    4.61
   0   8   2  162.16    4.66
   0   8   2  148.37    4.09
   0  -8  -2  162.61    4.18
   0   8   2  156.48    4.96
   0   8   3   27.02    1.77
   0  -8  -3   26.54    1.73
   0  -8  -3   26.34    1.78
   0   8   3   23.83    1.78
   0   8   3   25.66    1.28
   0  -8  -3   26.71    1.29
   0   8   4   43.18    2.27
   0  -8  -4   40.31    2.20
   0   8   4   42.63    2.38
   0  -8  -4   40.30    2.15
   0  -8  -4   39.67    1.44
   0   8   4   37.94    1.42
   0  -8  -4   39.70    1.65
   0   8   5    1.70    0.64
   0  -8  -5    0.64    0.67
   0  -8  -5    2.11    0.68
   0   8   5    1.84    0.77
   0  -8  -5    1.88    0.30
   0   8   5    1.67    0.30
   0  -8  -5    2.18    0.49
   0  -8  -6   10.06    1.27
   0   8   6    9.59    1.21
   0  -8  -6   10.72    0.81
   0  -8  -6   12.05    1.23
   0   8   6   12.99    1.38
   0   8   7   87.47    3.66
   0  -8  -7   81.94    3.56
   0  -8  -7   89.76    2.57
   0  -8  -7   82.70    3.34
   0   8   7   81.99    3.50
   0  -8  -8   18.93    1.79
   0   8   8   25.15    1.88
   0  -8  -8   22.90    1.76
   0   8   8   23.64    1.76
   0  -8  -8   22.50    1.21
   0  -8  -9   76.69    3.64
   0   8   9   76.56    3.30
   0   8   9   75.35    3.35
   0  -8  -9   78.35    2.53
   0   8   9   69.75    2.50
   0   8  10    4.16    0.90
   0   8  10    1.86    0.83
   0  -8 -10    1.81    0.86
   0   8  10    3.02    0.62
   0  -8 -10    3.23    0.60
   0  -8 -11   21.04    2.00
   0   8  11   20.60    1.77
   0   8  11   20.82    1.80
   0  -8 -11   20.68    1.37
   0   8  11   18.79    1.39
   0  -8 -12    9.04    1.52
   0   8  12    9.14    1.28
   0   8  12    7.23    1.26
   0   8  12    6.94    0.44
   0   8  12    5.55    0.41
   0   8  12    6.65    0.95
   0  -8 -13  198.78    6.92
   0   8  13  193.36    5.59
   0   8  13  195.01    4.21
   0   8  13  198.12    6.12
   0   8  13  194.87    6.43
   0   8  14   16.41    1.60
   0   8  14   19.72    1.99
   0  -8 -14   14.38    1.96
   0   8  15   69.10    3.82
   0   8  15   74.82    3.46
   0  -8 -15   71.17    4.10
   0   8  16    7.69    1.55
   0  -8 -16    8.82    1.62
   0   8  16    8.22    1.38
   0   8  17   21.85    2.36
   0   8  17   21.21    2.16
   0   8  18   18.99    2.30
   0   9  -9    5.19    1.67
   0  -9   9    0.74    1.19
   0   9  -8   10.20    1.73
   0  -9   8    9.43    1.82
   0   9  -7   62.30    3.80
   0   9  -7   59.51    2.67
   0  -9   7   52.93    3.54
   0   9  -6   32.48    2.68
   0   9  -6   31.44    1.95
   0  -9   6   27.17    2.44
   0   9  -6   29.45    1.84
   0  -9   5   53.82    1.54
   0   9  -5   56.82    2.71
   0  -9   5   53.32    3.27
   0   9  -5   49.74    2.47
   0  -9   4    0.62    0.37
   0   9  -4    1.22    0.68
   0  -9   4   -0.12    0.87
   0   9  -4    0.43    0.53
   0  -9   3  294.53    6.35
   0   9  -3  276.96    7.42
   0  -9   3  283.52    7.96
   0   9  -3  273.73    7.25
   0  -9   2   96.99    3.06
   0   9  -2   94.85    3.87
   0  -9   2   92.48    3.84
   0   9  -2   91.12    3.67
   0   9  -1  304.30    7.35
   0  -9   1  331.39    7.46
   0  -9   1  332.88    8.26
   0   9  -1  341.17    8.32
   0   9  -1  330.95    8.35
   0   9   0   68.05    2.73
   0  -9   0   69.66    2.75
   0   9   0   75.17    3.05
   0  -9   0   79.25    3.13
   0   9   0   78.11    3.39
   0  -9  -1   74.36    2.92
   0   9   1   71.39    2.89
   0   9   1   71.38    2.83
   0  -9  -1   73.16    2.85
   0   9   1   73.86    3.31
   0  -9  -2   63.17    2.76
   0   9   2   59.07    2.70
   0  -9  -2   65.33    2.49
   0   9   2   62.10    2.44
   0   9   2   60.45    3.02
   0   9   3   13.81    1.35
   0  -9  -3   13.37    1.36
   0   9   3   15.29    1.58
   0  -9  -3   16.43    1.50
   0  -9  -3   14.19    1.03
   0   9   3   13.97    1.01
   0  -9  -4    0.31    0.71
   0   9   4    1.57    0.60
   0  -9  -4    2.26    0.78
   0   9   4    2.47    0.91
   0   9   4    0.92    0.38
   0  -9  -4    1.51    0.44
   0  -9  -4    2.18    0.52
   0  -9  -5    5.50    1.06
   0   9   5    3.62    0.92
   0  -9  -5    3.33    0.80
   0   9   5    2.77    0.90
   0  -9  -5    3.18    0.42
   0  -9  -5    4.50    0.62
   0   9   6   40.63    2.48
   0  -9  -6   39.13    2.40
   0  -9  -6   39.56    1.64
   0   9   6   42.06    2.56
   0  -9  -6   42.53    2.38
   0  -9  -7   13.92    1.52
   0   9   7   13.99    1.54
   0  -9  -7   17.56    1.56
   0  -9  -7   18.20    1.06
   0   9   8    0.24    0.71
   0  -9  -8    0.04    0.60
   0  -9  -8    1.24    0.89
   0  -9  -8    0.89    0.43
   0   9   9    2.81    0.83
   0   9   9    2.60    0.79
   0  -9  -9    3.21    1.02
   0  -9  -9    2.44    0.48
   0  -9 -10   13.82    1.72
   0   9  10   13.71    1.60
   0   9  10   14.15    1.54
   0  -9 -10   13.71    1.06
   0  -9 -11   90.21    4.30
   0   9  11   89.11    3.95
   0   9  11   92.69    4.05
   0  -9 -11   91.24    3.05
   0   9  11   89.94    3.12
   0   9  12    1.94    0.85
   0   9  12    1.30    0.87
   0  -9 -12   -0.18    0.98
   0  -9 -12    1.50    0.56
   0   9  12    2.48    0.74
   0   9  13  229.02    7.03
   0   9  13  231.81    7.25
   0  -9 -13  221.04    7.66
   0   9  14   80.00    4.03
   0   9  14   73.51    3.67
   0  -9 -14   73.77    4.21
   0   9  15   23.20    2.06
   0   9  15   24.49    2.38
   0  -9 -15   23.26    2.50
   0   9  16    0.04    0.75
   0   9  16    1.68    1.10
   0  -9 -16    2.93    1.62
   0   9  16    1.02    0.89
   0   9  17    7.51    1.42
   0  -9 -17    9.60    1.78
   0   9  17    6.93    1.46
   0   9  18   23.08    2.51
   0  10  -8   53.41    3.81
   0 -10   8   55.31    3.88
   0  10  -7    8.24    1.69
   0 -10   7    8.66    1.67
   0  10  -6   43.79    3.27
   0  10  -6   45.87    2.56
   0 -10   6   42.01    3.15
   0  10  -5   12.87    1.39
   0 -10   5   10.41    1.62
   0 -10   4  261.51    5.66
   0  10  -4  258.04    7.18
   0 -10   4  240.52    7.76
   0  10  -4  241.37    6.87
   0 -10   3   32.03    1.60
   0  10  -3   31.53    2.18
   0 -10   3   30.04    2.34
   0  10  -3   29.37    2.05
   0 -10   2  102.34    3.30
   0 -10   2   95.61    4.07
   0  10  -2   93.52    3.94
   0 -10   1  129.71    3.95
   0  10  -1  116.70    3.87
   0 -10   1  124.28    4.52
   0  10  -1  117.82    4.41
   0  10  -1  120.96    4.57
   0 -10   0   84.91    3.17
   0  10   0   73.41    3.03
   0  10   0   78.65    3.32
   0 -10   0   80.43    3.34
   0  10   0   80.70    3.64
   0  10   1   46.39    2.41
   0 -10  -1   51.13    2.50
   0 -10  -1   52.54    2.51
   0  10   1   51.70    2.48
   0  10   1   54.06    2.96
   0 -10  -2   12.26    1.30
   0  10   2   10.00    1.20
   0  10   2    9.95    1.02
   0 -10  -2   10.69    1.05
   0  10   2   10.42    1.39
   0  10   3   65.84    3.11
   0 -10  -3   70.44    3.15
   0  10   3   75.29    3.56
   0 -10  -3   69.05    2.57
   0  10   3   71.59    2.62
   0  10   4    0.17    0.64
   0 -10  -4   -0.21    0.77
   0  10   4    0.20    0.73
   0 -10  -4    0.44    0.36
   0 -10  -4    0.17    0.44
   0 -10  -5   16.44    1.62
   0  10   5   16.15    1.73
   0 -10  -5   17.56    0.97
   0 -10  -5   19.34    1.22
   0 -10  -6   47.64    2.80
   0  10   6   48.82    2.91
   0 -10  -6   47.74    1.91
   0  10   7    8.43    1.32
   0 -10  -7    7.00    1.24
   0 -10  -7    8.80    0.80
   0 -10  -8   65.90    3.52
   0 -10  -8   72.41    2.38
   0  10   8   70.51    3.57
   0 -10  -9   77.22    3.92
   0 -10  -9   84.57    2.66
   0  10   9   82.99    3.92
   0 -10 -10  173.24    6.30
   0 -10 -10  177.98    4.48
   0  10  10  165.33    5.94
   0 -10 -11   34.47    2.77
   0 -10 -11   37.30    1.77
   0  10  11   36.55    2.63
   0  10  11   39.03    2.63
   0 -10 -12   63.33    3.80
   0 -10 -12   66.54    2.57
   0  10  12   64.29    3.46
   0  10  12   62.22    3.47
   0  10  13   66.48    3.60
   0  10  13   59.72    3.45
   0 -10 -13   68.93    4.07
   0  10  14    7.05    1.47
   0  10  14    7.25    1.36
   0 -10 -14    5.32    1.42
   0  10  15   56.58    3.38
   0  10  15   57.91    3.58
   0 -10 -15   57.41    3.92
   0  10  16    9.05    1.51
   0  10  16    6.09    1.45
   0 -10 -16    8.37    1.71
   0  10  17   29.68    2.78
   0  10  17   26.19    2.57
   0  10  18   24.92    2.63
   0  11  -7   18.21    2.33
   0 -11   7   22.29    2.51
   0  11  -6   18.80    2.56
   0 -11   6   16.08    2.08
   0  11  -6   15.41    1.67
   0 -11   5   28.19    2.63
   0  11  -5   32.37    2.32
   0 -11   4   19.76    2.10
   0  11  -4   20.26    1.85
   0 -11   3  307.89    7.00
   0 -11   3  309.39    8.92
   0  11  -3  296.00    8.39
   0 -11   2    9.15    1.02
   0 -11   2    7.12    1.25
   0  11  -2    7.44    1.22
   0 -11   1   31.02    1.89
   0 -11   1   30.03    2.22
   0  11  -1   29.11    2.28
   0  11   0   70.11    3.09
   0 -11   0   76.98    3.16
   0 -11   0   79.31    3.47
   0  11   0   76.84    3.75
   0 -11  -1    7.29    1.08
   0 -11  -1    7.80    1.12
   0  11   1    6.32    1.24
   0  11   1    6.24    0.96
   0  11   2   64.55    3.10
   0 -11  -2   66.01    3.10
   0 -11  -2   66.85    2.84
   0  11   2   67.11    3.52
   0 -11  -3   30.48    2.16
   0 -11  -3   33.62    1.82
   0  11   3   32.65    2.48
   0 -11  -4  199.30    6.20
   0  11   4  190.30    6.49
   0 -11  -4  196.19    4.97
   0 -11  -5  113.20    4.48
   0  11   5  107.35    4.63
   0 -11  -5  109.59    3.09
   0 -11  -5  111.76    3.47
   0  11   6    4.90    1.15
   0 -11  -6    3.71    0.98
   0 -11  -6    4.44    0.68
   0 -11  -7   45.65    2.94
   0 -11  -7   46.28    1.90
   0  11   7   49.62    3.10
   0 -11  -8   26.47    2.29
   0  11   8   27.90    2.37
   0 -11  -8   26.03    1.37
   0  11   9   10.03    1.54
   0 -11  -9    8.79    1.53
   0 -11  -9   10.24    0.87
   0 -11 -10   14.93    1.88
   0  11  10   15.18    1.84
   0 -11 -10   16.59    1.08
   0  11  11    2.18    0.95
   0 -11 -11    2.98    1.14
   0 -11 -11    2.88    0.56
   0 -11 -12   31.31    2.77
   0  11  12   35.30    2.72
   0 -11 -13   56.70    3.77
   0  11  13   56.15    3.46
   0  11  13   56.76    3.49
   0 -11 -14   69.06    4.27
   0  11  14   60.35    3.67
   0  11  14   70.75    3.93
   0 -11 -15   39.92    3.28
   0  11  15   34.28    2.89
   0  11  15   38.16    2.89
   0  11  16   18.96    2.18
   0  11  16   16.32    2.20
   0  11  17    1.13    1.11
   0 -12   6   26.37    2.71
   0 -12   5   47.02    3.46
   0  12  -5   46.53    2.93
   0 -12   4    4.36    1.35
   0  12  -4    3.09    0.92
   0 -12   3   44.45    3.08
   0  12  -3   41.45    2.86
   0 -12   2   63.10    2.69
   0 -12   2   57.52    3.39
   0  12  -2   59.11    3.39
   0 -12   1   98.10    3.63
   0 -12   1   92.10    4.15
   0  12  -1   84.26    4.16
   0 -12   0   15.34    1.48
   0 -12   0   13.84    1.57
   0  12   0   16.35    1.86
   0  12   0   13.03    1.47
   0 -12  -1   10.27    1.31
   0 -12  -1    7.89    1.17
   0  12   1    7.27    1.23
   0  12   1    7.89    1.34
   0 -12  -2    5.15    1.05
   0 -12  -2    5.87    1.01
   0  12   2    4.79    1.19
   0 -12  -3   19.36    1.77
   0  12   3   15.64    1.93
   0 -12  -3   17.52    1.43
   0 -12  -4    4.97    1.09
   0  12   4    4.56    1.16
   0 -12  -4    7.35    0.89
   0 -12  -4    7.67    0.96
   0 -12  -5   27.79    2.27
   0  12   5   30.92    2.57
   0 -12  -5   28.10    1.46
   0 -12  -5   30.07    1.74
   0 -12  -6    2.87    1.04
   0  12   6    3.62    1.11
   0 -12  -6    2.40    0.40
   0 -12  -6    2.68    0.58
   0  12   7   13.78    1.80
   0 -12  -7   11.05    1.62
   0 -12  -7   13.13    1.06
   0 -12  -8   35.74    2.75
   0  12   8   36.06    2.85
   0 -12  -8   40.99    1.77
   0  12   9   11.75    1.79
   0 -12  -9   15.92    1.99
   0 -12  -9   13.41    1.05
   0 -12 -10   18.53    2.15
   0  12  10   19.38    2.21
   0 -12 -11   30.39    2.80
   0  12  11   34.88    2.87
   0 -12 -12    5.64    1.46
   0  12  12    4.18    1.32
   0 -12 -13   57.80    3.91
   0  12  13   50.94    3.51
   0 -12 -14    0.37    0.95
   0  12  14    0.96    1.04
   0  12  15   89.13    4.73
   0  12  15   90.65    4.76
   0  12  16    3.07    1.32
   0  12  16    2.02    0.98
   0 -13   5   14.43    2.09
   0 -13   4   12.89    1.93
   0  13  -4   13.10    1.72
   0 -13   3   14.49    1.86
   0  13  -3   15.10    1.95
   0 -13   2   20.19    2.15
   0  13  -2   28.11    2.51
   0 -13   1   44.24    2.44
   0 -13   1   41.27    2.86
   0  13  -1   43.75    3.11
   0 -13   0   15.87    1.59
   0 -13   0   17.12    1.76
   0  13   0   14.62    1.87
   0 -13  -1   11.26    1.41
   0 -13  -1    8.03    1.18
   0  13   1    9.94    1.68
   0 -13  -2    0.66    0.66
   0 -13  -2    1.13    0.68
   0  13   2   -0.84    1.08
   0 -13  -3    7.75    1.33
   0  13   3    7.53    1.48
   0 -13  -3    8.03    1.04
   0 -13  -4   16.73    1.81
   0  13   4   18.30    2.07
   0 -13  -4   17.29    1.36
   0 -13  -4   17.95    1.48
   0 -13  -5    2.56    0.83
   0  13   5    5.70    1.47
   0 -13  -5    5.23    0.74
   0 -13  -5    4.81    0.83
   0  13   6   -0.93    1.06
   0 -13  -6    1.43    0.98
   0 -13  -6    0.23    0.49
   0 -13  -7    0.06    0.89
   0  13   7   -0.51    1.04
   0 -13  -8   29.44    2.61
   0  13   8   32.03    2.85
   0 -13  -9    6.50    1.54
   0  13   9    5.67    1.46
   0 -13 -10   35.68    2.96
   0  13  10   25.86    2.66
   0 -13 -11   20.74    2.44
   0  13  11   20.12    2.32
   0 -13 -12   48.67    3.70
   0  13  12   47.33    3.50
   0 -13 -13   30.66    2.97
   0  13  13   29.54    2.79
   0  13  14    5.42    1.58
   0  13  15   35.10    3.06
   0  13  16   10.83    1.78
   0 -14   4   23.50    2.56
   0 -14   3   26.66    2.56
   0  14  -3   27.99    2.65
   0 -14   2   20.88    2.26
   0  14  -2   20.85    2.32
   0 -14   1   49.32    3.28
   0  14  -1   51.25    3.53
   0 -14   0    0.83    0.88
   0  14   0    1.80    1.12
   0 -14  -1   -0.06    0.75
   0 -14  -1    0.45    0.75
   0  14   1   -0.01    1.16
   0 -14  -2    7.95    1.31
   0 -14  -2   10.42    1.34
   0  14   2    6.88    1.47
   0 -14  -3    2.47    0.84
   0 -14  -3    2.31    0.78
   0  14   3    2.76    1.19
   0 -14  -4    1.25    0.96
   0  14   4    0.07    1.08
   0 -14  -5    4.30    1.19
   0  14   5    3.78    1.26
   0 -14  -6    0.64    1.00
   0  14   6    0.99    1.07
   0 -14  -7    2.09    1.09
   0  14   7    4.54    1.33
   0 -14  -8   34.05    2.93
   0  14   8   34.43    3.05
   0 -14  -9    1.89    1.08
   0  14   9    2.30    1.20
   0 -14 -10   51.53    3.71
   0  14  10   50.48    3.72
   0 -14 -11   11.14    1.96
   0  14  11   14.94    2.24
   0  14  12   37.16    3.23
   0  14  13    2.70    1.37
   0 -15   3   10.60    1.99
   0 -15   2   14.63    2.06
   0  15  -2   14.96    2.06
   0 -15   1    8.22    1.60
   0  15  -1   10.41    1.74
   0  15   0    0.31    1.00
   0  15   1   15.51    2.20
   0 -15  -2    7.15    1.35
   0  15   2    2.29    1.10
   0 -15  -3    3.83    1.19
   0  15   3    3.86    1.40
   0 -15  -4    0.94    0.97
   0  15   4    0.47    0.98
   0 -15  -5   20.65    2.36
   0  15   5   20.66    2.52
   0 -15  -6   -1.17    1.12
   0  15   6    2.90    1.30
   0 -15  -7    9.04    1.67
   0  15   7    3.74    1.33
   0 -15  -8   11.50    1.95
   0  15   8    6.20    1.62
   0 -15  -9   31.15    2.95
   0 -15 -10   14.15    2.18
   0 -16  -4    7.37    1.65
   0 -16  -5    5.66    1.53
   0 -16  -6   11.85    1.90
   0 -16  -7   15.26    2.13
   0 -16  -8   -1.01    1.18
   0 -17  -6   13.48    2.20
   1 -16  -6   11.32    1.92
   1 -16  -5    0.19    1.09
   1 -16  -4   18.17    2.24
   1 -15  -8   -0.66    1.03
   1 -15  -7   12.49    1.90
   1 -15  -6    7.40    1.47
   1 -15  -5   59.27    3.81
   1 -15  -4   11.98    1.85
   1 -15  -3   22.86    2.34
   1 -15  -2   -1.89    1.14
  -1  15   2    2.67    1.32
  -1  15   1   13.75    2.19
  -1  15   0   -0.88    1.32
  -1  15  -1   12.33    2.03
   1 -14 -10   10.43    1.81
  -1  14  10   15.66    2.22
   1 -14  -9    4.29    1.24
  -1  14   9    8.46    1.82
   1 -14  -8    5.49    1.54
  -1  14   8    3.80    1.42
   1 -14  -7   58.86    3.88
  -1  14   7   62.41    4.14
   1 -14  -6   19.48    2.24
  -1  14   6   22.34    2.53
   1 -14  -5   70.14    4.02
  -1  14   5   76.78    4.54
   1 -14  -4    2.77    1.23
  -1  14   4    1.78    1.19
   1 -14  -3   49.52    3.21
  -1  14   3   48.34    3.55
   1 -14  -2   16.97    1.93
  -1  14   2   17.91    2.33
   1 -14  -1   25.96    2.26
  -1  14   1   22.08    2.40
   1 -14   0   19.54    2.04
  -1  14   0   20.08    2.47
   1 -14   1    8.88    1.52
  -1  14  -1    9.76    1.79
   1 -14   2    3.71    1.25
  -1  14  -2    2.96    1.19
   1 -14   3    1.73    1.16
  -1  14  -3    1.24    1.18
  -1  13  14   -0.44    0.96
  -1  13  13    0.93    1.16
   1 -13 -12   12.83    2.07
  -1  13  12   12.29    1.98
   1 -13 -11   30.33    2.87
  -1  13  11   26.56    2.71
   1 -13 -10   74.36    4.38
  -1  13  10   62.91    4.10
   1 -13  -9   17.14    2.12
  -1  13   9   22.49    2.51
   1 -13  -8   11.82    1.78
  -1  13   8   14.27    2.02
   1 -13  -7   28.06    2.59
  -1  13   7   28.32    2.72
   1 -13  -6   44.75    3.18
  -1  13   6   47.50    3.45
   1 -13  -5   27.35    2.48
  -1  13   5   27.48    2.67
   1 -13  -4   42.66    2.98
  -1  13   4   39.34    3.11
   1 -13  -3    1.05    0.85
   1 -13  -3    1.98    0.78
  -1  13   3   -0.48    0.98
   1 -13  -2   60.76    3.35
   1 -13  -2   61.11    2.99
  -1  13   2   60.79    3.79
   1 -13  -1    0.02    0.71
   1 -13  -1    1.39    0.79
  -1  13   1    0.42    1.01
   1 -13   0    9.34    1.23
   1 -13   0    6.07    1.10
  -1  13   0    6.83    1.51
   1 -13   1   12.16    1.67
  -1  13  -1   10.77    1.84
   1 -13   2   16.93    2.02
  -1  13  -2   12.36    1.86
   1 -13   3    4.60    1.34
  -1  13  -3    5.84    1.46
   1 -13   4   25.83    2.58
  -1  13  -4   24.29    2.36
   1 -13   5   -1.62    1.11
  -1  12  16    1.43    1.23
  -1  12  15    0.49    1.02
  -1  12  14   43.16    3.32
   1 -12 -13   11.67    1.88
  -1  12  13    8.14    1.79
   1 -12 -12    0.10    1.08
  -1  12  12    0.39    0.96
   1 -12 -11   18.55    2.29
  -1  12  11   19.60    2.26
   1 -12 -10   11.20    1.86
  -1  12  10   10.10    1.73
   1 -12  -9   63.34    3.87
  -1  12   9   61.28    3.79
   1 -12  -8   13.19    1.81
  -1  12   8   13.25    1.94
   1 -12  -7   47.35    3.20
  -1  12   7   46.28    3.30
   1 -12  -6   22.69    2.23
  -1  12   6   23.22    2.36
   1 -12  -6   23.08    1.21
   1 -12  -5   67.73    3.66
  -1  12   5   66.77    3.85
   1 -12  -5   72.17    2.36
   1 -12  -5   72.41    2.50
   1 -12  -4   20.65    1.98
  -1  12   4   25.14    2.42
   1 -12  -4   23.63    1.47
   1 -12  -4   22.44    1.47
   1 -12  -3   10.95    1.47
   1 -12  -3   13.01    1.21
  -1  12   3    8.05    1.59
   1 -12  -2   18.72    1.82
   1 -12  -2   19.58    1.62
  -1  12   2   18.81    2.11
   1 -12  -1    1.56    0.88
   1 -12  -1   -0.05    0.75
  -1  12   1    0.16    0.94
   1 -12   0   33.44    2.23
   1 -12   0   28.89    2.19
  -1  12   0   28.19    2.46
   1 -12   1    5.01    1.00
   1 -12   1    5.87    1.25
  -1  12  -1    5.27    1.29
   1 -12   2   48.12    2.51
   1 -12   2   43.26    2.96
  -1  12  -2   40.39    2.95
   1 -12   3    2.91    1.15
  -1  12  -3    0.66    0.79
   1 -12   4   10.22    1.70
  -1  12  -4   13.50    1.76
   1 -12   5   27.39    2.68
  -1  12  -5   25.64    2.29
   1 -12   6   -1.56    1.08
  -1  11  16   15.92    2.17
  -1  11  16   14.61    2.00
  -1  11  15   -1.08    1.13
  -1  11  15    1.49    1.16
   1 -11 -15   -0.75    1.18
  -1  11  14   -0.84    1.08
  -1  11  14    1.17    0.95
   1 -11 -14    0.24    1.01
  -1  11  13    1.94    1.07
  -1  11  13    2.67    2.04
   1 -11 -13    0.71    1.07
  -1  11  12   13.21    1.84
   1 -11 -12   12.53    1.94
  -1  11  11   22.66    2.28
   1 -11 -11   24.84    2.53
  -1  11  10   36.99    2.84
   1 -11 -10   40.83    3.04
  -1  11   9   63.60    3.67
   1 -11  -9   55.35    3.49
  -1  11   8    3.40    1.10
   1 -11  -8    3.48    1.08
   1 -11  -8    3.41    0.37
   1 -11  -7   87.42    4.21
   1 -11  -7   88.47    2.31
  -1  11   7   90.89    4.35
   1 -11  -6   60.90    3.39
  -1  11   6   61.89    3.53
   1 -11  -6   61.28    1.98
   1 -11  -5   67.98    3.53
  -1  11   5   67.39    3.67
   1 -11  -5   68.74    2.16
   1 -11  -5   68.51    2.30
   1 -11  -4    0.31    0.71
   1 -11  -4    0.82    0.47
  -1  11   4    1.65    0.97
   1 -11  -3   37.39    2.45
   1 -11  -3   38.58    1.96
  -1  11   3   40.06    2.80
   1 -11  -2    1.26    0.77
   1 -11  -2    1.00    0.62
  -1  11   2    2.13    1.09
  -1  11   1   24.12    1.94
   1 -11  -1   26.85    1.98
   1 -11  -1   25.40    1.88
  -1  11   1   28.12    2.32
   1 -11   0    5.67    0.96
   1 -11   0    6.97    1.12
  -1  11   0    7.49    1.32
   1 -11   1   24.44    1.82
   1 -11   1   22.80    1.98
  -1  11  -1   25.14    2.18
   1 -11   2    0.95    0.70
   1 -11   2    0.21    0.89
  -1  11  -2    0.53    0.77
   1 -11   3   12.86    1.21
   1 -11   3   11.10    1.60
  -1  11  -3   14.03    1.63
   1 -11   4   27.99    2.56
  -1  11  -4   24.92    2.14
   1 -11   5   33.02    2.85
  -1  11  -5   30.26    2.30
  -1  11  -6    7.03    1.67
   1 -11   6    8.75    1.77
   1 -11   7   41.21    3.36
  -1  10  17    1.38    1.30
  -1  10  16   23.80    2.27
  -1  10  16   27.77    2.68
   1 -10 -16   23.69    2.71
  -1  10  15   -1.07    0.99
  -1  10  15    2.58    1.24
   1 -10 -15   -0.41    0.98
  -1  10  14    1.71    0.95
  -1  10  14    0.38    1.63
   1 -10 -14    2.49    1.20
  -1  10  13   -1.23    0.98
  -1  10  13   -0.25    0.92
   1 -10 -13    0.28    1.01
  -1  10  12   68.90    3.84
  -1  10  12   75.47    3.91
   1 -10 -12   75.41    4.22
  -1  10  11    3.07    0.89
  -1  10  11    4.25    1.24
   1 -10 -11    3.11    1.12
  -1  10  10   37.00    2.70
   1 -10 -10   39.54    2.89
  -1  10   9    5.75    1.26
   1 -10  -9    3.35    1.18
   1 -10  -9    2.20    0.38
   1 -10  -8   24.94    2.21
   1 -10  -8   27.71    1.00
  -1  10   8   28.70    2.33
   1 -10  -7   61.85    3.36
   1 -10  -7   62.31    1.76
  -1  10   7   57.51    3.30
   1 -10  -6   86.18    3.95
  -1  10   6   80.07    3.89
   1 -10  -6   84.94    2.32
   1 -10  -5  126.99    4.81
  -1  10   5  128.33    5.02
   1 -10  -5  129.43    3.13
   1 -10  -5  131.37    3.37
   1 -10  -4   15.39    1.63
  -1  10   4   15.13    1.70
   1 -10  -4   16.73    1.07
   1 -10  -4   15.33    1.06
   1 -10  -3    3.15    0.94
   1 -10  -3    2.16    0.56
  -1  10   3    3.29    1.01
   1 -10  -2    9.40    1.24
   1 -10  -2   10.56    1.07
  -1  10   2   10.31    1.34
  -1  10   2   10.49    1.47
   1 -10  -1   11.37    1.33
   1 -10  -1   10.92    1.19
  -1  10   1    7.76    1.12
  -1  10   1    9.14    1.32
   1 -10   0   13.19    1.31
   1 -10   0   15.26    1.49
  -1  10   0   15.38    1.65
   1 -10   1    0.45    0.54
   1 -10   1    1.30    0.87
  -1  10  -1    0.03    0.75
   1 -10   2   22.66    1.56
   1 -10   2   20.54    1.89
  -1  10  -2   22.60    1.94
   1 -10   3   21.78    1.45
   1 -10   3   17.62    1.83
  -1  10  -3   20.65    1.89
   1 -10   4   53.79    2.22
   1 -10   4   51.35    3.26
  -1  10  -4   53.66    2.95
   1 -10   5    6.14    1.34
  -1  10  -5    4.22    0.93
  -1  10  -6   95.56    4.94
   1 -10   6  104.90    5.07
  -1  10  -6  100.14    3.99
  -1  10  -7    9.38    1.82
   1 -10   7    7.17    1.45
  -1  10  -8  108.52    5.57
   1 -10   8  120.71    5.83
   1  -9 -17    1.74    1.30
  -1   9  17    2.68    1.18
   1  -9 -16   -0.55    0.97
  -1   9  16    1.81    1.05
  -1   9  16   -0.10    0.85
   1  -9 -15   -0.53    1.05
  -1   9  15   -1.41    1.09
  -1   9  15   -0.22    0.83
   1  -9 -14   -2.68    1.22
  -1   9  14    0.44    0.80
  -1   9  14   -0.17    0.92
   1  -9 -13    5.47    1.33
  -1   9  13    5.70    1.29
  -1   9  13    7.59    1.34
   1  -9 -12   11.76    1.77
  -1   9  12   11.47    1.56
  -1   9  12   13.34    1.68
   1  -9 -11   33.39    2.68
  -1   9  11   33.27    2.45
  -1   9  11   35.97    2.56
   1  -9 -10   12.73    1.61
  -1   9  10    9.97    1.44
  -1   9  10   14.65    1.70
   1  -9  -9  149.80    5.52
   1  -9  -9  141.00    3.28
  -1   9   9  141.09    5.23
  -1   9   9  147.09    5.23
   1  -9  -8   58.25    3.24
   1  -9  -8   61.69    1.71
  -1   9   8   60.20    3.22
   1  -9  -7   44.40    2.78
   1  -9  -7   49.43    1.46
  -1   9   7   49.19    2.85
   1  -9  -6   15.41    1.63
   1  -9  -6   15.33    0.78
  -1   9   6   13.82    1.59
   1  -9  -5   19.92    1.80
  -1   9   5   25.19    2.04
   1  -9  -5   22.46    0.92
   1  -9  -5   24.90    1.12
   1  -9  -4   50.23    2.71
  -1   9   4   44.91    2.58
  -1   9   4   45.78    2.73
   1  -9  -4   50.61    1.76
   1  -9  -4   48.86    1.81
  -1   9   3   79.11    3.38
   1  -9  -3   81.04    3.41
   1  -9  -3   80.98    2.65
  -1   9   3   80.72    3.63
   1  -9  -2    7.17    1.09
   1  -9  -2    6.29    0.81
  -1   9   2    5.50    1.03
  -1   9   2    6.43    1.06
   1  -9  -1   16.86    1.47
  -1   9   1   15.09    1.40
   1  -9  -1   18.28    1.40
  -1   9   1   14.22    1.53
   1  -9   0   96.39    3.45
  -1   9   0   83.86    3.33
   1  -9   0   92.64    3.51
  -1   9   0   89.43    3.77
   1  -9   1   28.39    1.73
  -1   9  -1   26.77    2.00
   1  -9   1   25.37    1.93
   1  -9   2    2.04    0.59
  -1   9  -2    2.73    0.83
   1  -9   2    2.74    0.94
  -1   9  -2    3.67    0.93
   1  -9   3   42.70    1.98
  -1   9  -3   40.92    2.42
   1  -9   3   39.25    2.60
  -1   9  -3   38.22    2.33
   1  -9   4   10.81    0.97
  -1   9  -4   11.14    1.30
   1  -9   4   10.18    1.50
  -1   9  -4    8.59    1.14
   1  -9   5    3.47    0.58
  -1   9  -5    3.75    0.88
   1  -9   5    1.22    0.84
  -1   9  -5    3.23    0.78
  -1   9  -6  307.17    9.32
   1  -9   6  300.05    9.18
  -1   9  -6  304.25    7.77
  -1   9  -7   13.18    1.94
   1  -9   7    9.89    1.88
  -1   9  -7    9.54    1.08
  -1   9  -8  163.70    6.72
   1  -9   8  167.47    6.84
  -1   9  -9   29.25    2.89
   1  -9   9   30.36    2.85
   1  -8 -18    7.27    1.75
  -1   8  17    5.96    1.43
   1  -8 -17    8.28    1.71
  -1   8  16   13.65    2.00
   1  -8 -16   20.49    2.38
  -1   8  15  130.72    5.59
  -1   8  15  127.08    4.84
   1  -8 -15  130.24    5.76
  -1   8  14   37.04    2.83
  -1   8  14   38.33    2.51
   1  -8 -14   40.51    3.08
  -1   8  13   63.08    3.57
  -1   8  13   64.37    3.26
   1  -8 -13   64.91    3.75
  -1   8  12    1.69    0.98
  -1   8  12    1.15    0.81
   1  -8 -12    1.81    1.10
  -1   8  12    0.01    0.44
  -1   8  11   36.30    2.41
  -1   8  11   36.01    2.51
   1  -8 -11   39.59    2.77
  -1   8  11   38.02    1.73
  -1   8  10    1.30    0.81
  -1   8  10    1.14    0.78
   1  -8 -10    0.58    0.84
  -1   8  10    0.13    0.34
   1  -8  -9    8.66    1.31
  -1   8   9   10.75    1.37
  -1   8   9   10.43    1.36
   1  -8  -8   59.12    3.10
   1  -8  -8   54.79    1.64
  -1   8   8   54.86    2.90
  -1   8   8   55.04    2.86
   1  -8  -7  135.84    4.88
   1  -8  -7  139.41    3.04
   1  -8  -7  135.22    4.70
  -1   8   7  134.67    4.79
   1  -8  -6   47.25    2.66
  -1   8   6   52.48    2.77
   1  -8  -6   52.04    1.49
   1  -8  -6   56.17    2.74
   1  -8  -6   54.56    2.89
  -1   8   6   50.33    2.74
   1  -8  -5  127.40    4.49
  -1   8   5  140.87    4.69
  -1   8   5  139.81    4.72
   1  -8  -5  143.44    4.87
   1  -8  -5  141.50    4.60
   1  -8  -5  138.52    3.04
  -1   8   4   14.27    1.39
   1  -8  -4   16.21    1.47
   1  -8  -4   19.50    1.75
   1  -8  -4   18.86    1.59
  -1   8   4   16.03    1.56
   1  -8  -4   14.09    0.80
   1  -8  -4   13.54    0.85
  -1   8   3   85.17    3.43
   1  -8  -3   88.48    3.44
   1  -8  -3   89.57    2.65
   1  -8  -3   97.77    3.68
   1  -8  -3   96.59    3.81
  -1   8   3   83.65    3.54
  -1   8   2   29.39    1.87
   1  -8  -2   31.08    1.89
   1  -8  -2   31.33    1.58
  -1   8   2   30.36    2.06
   1  -8  -2   32.86    2.15
   1  -8  -1    8.80    1.04
   1  -8  -1    3.84    0.70
  -1   8   1    3.91    0.93
  -1   8   1    5.27    0.96
   1  -8   0   11.01    1.14
   1  -8   0   11.39    1.19
  -1   8   0   11.68    1.17
  -1   8   0   10.84    1.25
   1  -8   1    7.18    0.91
  -1   8  -1    7.46    1.05
   1  -8   1    7.37    1.07
   1  -8   2   99.63    3.27
  -1   8  -2  100.25    3.75
   1  -8   2  106.17    3.99
  -1   8  -2  102.65    3.78
   1  -8   3   69.70    2.50
  -1   8  -3   63.39    2.87
   1  -8   3   61.67    3.13
  -1   8  -3   66.17    2.93
   1  -8   4    6.17    0.74
  -1   8  -4    5.48    0.93
   1  -8   4    5.69    1.16
  -1   8  -4    4.53    0.91
   1  -8   5   19.19    1.12
  -1   8  -5   18.13    1.50
   1  -8   5   17.58    1.90
  -1   8  -5   18.72    1.49
  -1   8  -6  168.47    6.17
   1  -8   6  170.67    3.89
  -1   8  -6  170.07    4.97
   1  -8   6  163.22    6.12
  -1   8  -6  158.87    4.98
  -1   8  -7  217.43    7.41
   1  -8   7  218.25    7.50
  -1   8  -7  217.36    5.77
  -1   8  -8   81.81    4.36
   1  -8   8   86.11    4.55
  -1   8  -9   53.57    3.65
   1  -8   9   48.57    3.54
  -1   8 -10   -0.69    1.10
   1  -8  10    2.90    1.39
  -1   7  17    9.28    1.74
   1  -7 -17   10.64    1.80
  -1   7  16   -2.07    1.26
   1  -7 -16    1.30    1.10
  -1   7  16    1.20    0.75
  -1   7  15    0.59    1.00
  -1   7  15    1.39    0.86
   1  -7 -15    1.37    0.95
  -1   7  14    0.44    0.83
  -1   7  14    2.64    0.88
   1  -7 -14    1.58    0.91
   1  -7 -13    1.00    0.95
  -1   7  13    0.06    0.69
  -1   7  13    0.65    0.76
  -1   7  13    0.87    0.50
  -1   7  13    0.34    0.53
   1  -7 -12   10.09    1.55
  -1   7  12    9.23    1.28
  -1   7  12    5.15    1.12
  -1   7  12    6.83    0.46
  -1   7  12    7.62    0.99
  -1   7  11    3.30    0.93
  -1   7  11    3.56    0.97
   1  -7 -11    2.97    1.08
  -1   7  11    3.69    0.66
  -1   7  10  219.33    6.36
  -1   7  10  225.04    6.63
   1  -7 -10  220.65    6.81
  -1   7  10  220.21    5.21
  -1   7   9    6.97    1.07
  -1   7   9    7.97    1.20
   1  -7  -9    5.86    1.16
  -1   7   9    6.18    0.64
   1  -7  -8  105.69    4.18
   1  -7  -8  108.15    2.72
  -1   7   8  106.96    3.98
   1  -7  -8  112.73    4.17
  -1   7   8  111.46    4.07
   1  -7  -7  177.10    5.59
  -1   7   7  181.28    5.62
   1  -7  -7  178.15    3.79
  -1   7   7  183.49    5.43
  -1   7   7  173.45    5.37
   1  -7  -7  185.45    5.45
   1  -7  -7  186.36    5.61
  -1   7   6   58.84    2.86
   1  -7  -6   57.36    2.82
   1  -7  -6   61.47    1.62
  -1   7   6   61.93    2.87
   1  -7  -6   68.72    3.06
   1  -7  -6   62.98    2.80
   1  -7  -5  225.14    6.22
  -1   7   5  225.63    6.21
   1  -7  -5  232.50    6.16
   1  -7  -5  234.54    6.40
  -1   7   5  211.47    6.12
   1  -7  -5  220.67    4.44
   1  -7  -4    3.90    0.91
  -1   7   4    2.25    0.63
  -1   7   4    3.65    0.87
   1  -7  -4    3.27    0.86
   1  -7  -4    1.87    0.73
   1  -7  -4    2.51    0.35
   1  -7  -4    1.59    0.33
  -1   7   3  101.68    3.60
   1  -7  -3  101.08    3.59
   1  -7  -3  100.29    2.68
   1  -7  -3  108.88    3.73
   1  -7  -3  110.30    3.90
  -1   7   3   94.72    3.62
  -1   7   2   19.45    1.47
   1  -7  -2   17.90    1.41
   1  -7  -2   18.64    1.11
  -1   7   2   18.55    1.53
   1  -7  -2   22.74    1.65
   1  -7  -2   18.88    1.48
  -1   7   1   97.45    3.37
   1  -7  -1  103.74    3.45
   1  -7  -1  104.72    3.20
  -1   7   1  100.54    3.66
   1  -7  -1  108.79    3.84
   1  -7   0    8.33    0.94
   1  -7   0    9.23    0.99
  -1   7   0    6.73    0.85
  -1   7   0    7.23    1.05
   1  -7   0    9.47    1.11
   1  -7   1   -0.15    0.50
   1  -7   1    0.30    0.59
  -1   7  -1    0.38    0.60
   1  -7   1   -0.16    0.56
   1  -7   2    1.50    0.49
  -1   7  -2    4.24    0.80
   1  -7   2    1.62    0.74
  -1   7  -2    2.64    0.72
   1  -7   3   34.00    1.61
  -1   7  -3   35.65    1.96
   1  -7   3   35.03    2.19
  -1   7  -3   34.10    1.92
   1  -7   4   45.95    1.80
  -1   7  -4   43.50    2.16
   1  -7   4   42.87    2.59
   1  -7   4   45.09    2.47
  -1   7  -4   40.73    2.13
   1  -7   5   18.61    1.05
  -1   7  -5   15.88    1.32
   1  -7   5   18.71    1.83
  -1   7  -5   15.80    1.34
   1  -7   6  145.44    3.41
  -1   7  -6  143.44    5.37
  -1   7  -6  141.76    4.18
   1  -7   6  133.67    5.24
  -1   7  -6  131.40    4.23
   1  -7   7   79.90    2.00
  -1   7  -7   78.96    3.97
  -1   7  -7   77.64    2.80
   1  -7   7   78.57    4.02
  -1   7  -7   70.37    2.88
  -1   7  -8  167.54    6.28
   1  -7   8  169.45    6.44
  -1   7  -8  167.89    4.45
  -1   7  -9   63.83    3.85
   1  -7   9   68.30    4.10
  -1   7 -10    9.13    1.72
   1  -7  10    7.81    1.53
  -1   7 -11   18.56    2.20
   1  -7  11   18.74    2.43
  -1   6  17    2.00    1.14
   1  -6 -17   -0.19    1.09
  -1   6  16    1.49    1.09
   1  -6 -16    2.83    1.29
  -1   6  16    1.05    0.70
  -1   6  15    8.98    1.57
  -1   6  15    6.09    1.02
   1  -6 -15    8.56    1.56
  -1   6  15    8.13    1.14
   1  -6 -14    4.30    1.16
  -1   6  14    5.46    0.96
  -1   6  14    7.98    1.51
  -1   6  14    5.10    0.73
   1  -6 -13   17.00    1.84
  -1   6  13   15.32    1.72
  -1   6  13   18.98    1.54
  -1   6  13   16.27    1.14
  -1   6  13   14.19    1.34
   1  -6 -12   26.30    2.20
  -1   6  12   26.58    1.31
  -1   6  12   23.47    1.60
  -1   6  12   25.36    1.78
  -1   6  12   24.53    2.06
   1  -6 -11   17.07    1.73
  -1   6  11   15.45    0.86
  -1   6  11   16.56    1.25
  -1   6  11   17.16    1.66
  -1   6  11   14.69    1.40
   1  -6 -10  225.46    6.74
  -1   6  10  231.24    6.61
  -1   6  10  234.58    6.28
  -1   6  10  225.47    4.52
  -1   6  10  226.09    5.44
  -1   6   9   11.82    1.29
  -1   6   9    9.06    1.15
   1  -6  -9   10.29    1.27
   1  -6  -9    9.25    1.28
  -1   6   9   10.82    1.32
  -1   6   9    7.99    0.76
   1  -6  -8  348.12    8.81
  -1   6   8  363.47    8.91
  -1   6   8  350.11    8.44
  -1   6   8  358.37    8.62
   1  -6  -8  361.05    8.63
  -1   6   8  348.82    7.15
  -1   6   8  375.76    8.92
   1  -6  -7   59.31    2.81
  -1   6   7   57.36    2.76
  -1   6   7   58.87    2.65
  -1   6   7   56.46    2.63
   1  -6  -7   57.36    2.68
   1  -6  -7   56.38    1.68
  -1   6   7   56.62    1.70
   1  -6  -6  125.02    4.24
  -1   6   6  127.74    4.26
   1  -6  -6  128.83    2.79
  -1   6   6  124.01    4.10
  -1   6   6  130.03    4.15
   1  -6  -6  131.33    4.27
   1  -6  -6  127.19    4.11
  -1   6   5   45.81    2.33
   1  -6  -5   43.98    2.29
   1  -6  -5   45.45    1.24
  -1   6   5   48.28    2.31
   1  -6  -5   46.68    2.33
   1  -6  -5   44.48    2.17
  -1   6   5   45.24    2.29
   1  -6  -4   10.16    1.15
  -1   6   4    9.06    1.01
   1  -6  -4    7.97    0.41
   1  -6  -4    7.86    0.49
   1  -6  -4    8.96    1.08
  -1   6   4    8.28    1.06
   1  -6  -4    7.96    0.97
   1  -6  -3  184.41    4.99
  -1   6   3  175.07    4.93
   1  -6  -3  179.47    3.86
   1  -6  -3  190.47    5.23
   1  -6  -3  185.95    5.03
  -1   6   3  175.08    5.03
   1  -6  -2   94.14    3.20
  -1   6   2   96.12    3.21
   1  -6  -2   95.14    2.64
   1  -6  -2   97.92    3.35
   1  -6  -2   99.82    3.47
  -1   6   2   96.08    3.38
   1  -6  -1   61.88    2.41
  -1   6   1   58.21    2.38
   1  -6  -1   61.45    2.17
  -1   6   1   59.13    2.55
   1  -6  -1   66.81    2.71
  -1   6   0   21.65    1.37
   1  -6   0   24.34    1.42
   1  -6   0   26.95    1.58
   1  -6   0   24.28    1.59
  -1   6   0   23.87    1.56
   1  -6   1   51.01    2.03
   1  -6   1   53.70    2.36
  -1   6  -1   49.59    2.25
   1  -6   1   48.37    2.21
   1  -6   2   10.36    0.89
   1  -6   2   11.44    1.08
  -1   6  -2    9.71    1.00
   1  -6   2    9.37    1.11
  -1   6  -2    9.63    1.02
   1  -6   3  163.17    4.00
  -1   6  -3  152.79    4.38
   1  -6   3  160.60    4.94
  -1   6  -3  154.29    4.44
   1  -6   4   54.08    1.89
  -1   6  -4   49.33    2.16
   1  -6   4   54.25    2.61
   1  -6   4   51.50    2.69
  -1   6  -4   49.86    2.23
   1  -6   5    1.07    0.44
  -1   6  -5    1.07    0.45
   1  -6   5    0.27    0.72
   1  -6   5    1.54    0.70
  -1   6  -5    1.56    0.58
   1  -6   6  298.40    5.97
  -1   6  -6  294.22    8.11
  -1   6  -6  289.27    6.62
   1  -6   6  290.31    8.21
  -1   6  -6  276.38    6.79
  -1   6  -7   20.22    1.94
   1  -6   7   21.44    0.93
  -1   6  -7   19.79    1.24
   1  -6   7   18.35    1.86
  -1   6  -7   19.42    1.36
   1  -6   8  214.29    4.12
  -1   6  -8  214.87    6.97
   1  -6   8  209.01    4.13
  -1   6  -8  210.84    4.94
   1  -6   8  220.75    7.25
  -1   6  -8  205.41    5.38
  -1   6  -9   10.37    1.64
   1  -6   9   10.47    1.65
  -1   6  -9    8.14    0.66
  -1   6 -10   84.15    4.36
   1  -6  10   78.78    4.39
  -1   6 -11   32.51    2.86
   1  -6  11   37.43    3.14
  -1   6 -12    0.29    0.99
   1  -6  12    2.73    1.47
  -1   5  17    1.67    1.20
  -1   5  16   20.30    2.18
   1  -5 -16   31.77    2.64
   1  -5 -15    0.45    0.90
  -1   5  15    0.69    0.93
  -1   5  15   -0.43    0.65
  -1   5  15    1.74    0.74
   1  -5 -14   22.01    2.09
  -1   5  14   21.23    1.49
  -1   5  14   22.03    2.20
  -1   5  14   22.21    1.57
  -1   5  14   21.80    1.73
   1  -5 -13    9.02    1.39
  -1   5  13    8.43    1.05
  -1   5  13    6.71    1.34
  -1   5  13    9.78    1.03
  -1   5  13    9.91    1.22
   1  -5 -12   17.81    1.80
  -1   5  12   25.14    1.46
  -1   5  12   21.16    1.58
  -1   5  12   23.93    2.04
  -1   5  12   24.43    1.61
   1  -5 -11   49.58    2.81
  -1   5  11   52.68    2.34
  -1   5  11   53.41    2.04
  -1   5  11   56.39    2.48
  -1   5  11   55.47    2.92
   1  -5 -10   87.11    3.65
  -1   5  10   85.10    3.60
  -1   5  10   83.83    2.88
  -1   5  10   87.14    2.49
  -1   5  10   85.18    3.15
  -1   5  10   84.45    3.55
   1  -5  -9  192.74    5.81
  -1   5   9  205.78    5.99
  -1   5   9  196.06    5.84
  -1   5   9  196.54    4.79
  -1   5   9  197.06    4.21
  -1   5   9  197.47    5.74
  -1   5   9  199.69    5.38
   1  -5  -9  199.29    5.48
   1  -5  -8  267.39    7.12
  -1   5   8  276.10    7.22
  -1   5   8  296.18    7.36
   1  -5  -8  266.84    6.82
  -1   5   8  274.85    6.75
  -1   5   8  277.94    7.04
  -1   5   8  273.55    5.93
  -1   5   8  281.88    5.27
   1  -5  -7  180.08    5.30
  -1   5   7  184.89    5.35
  -1   5   7  185.78    5.06
  -1   5   7  188.36    5.23
   1  -5  -7  185.79    5.16
  -1   5   7  181.88    4.08
  -1   5   7  199.26    5.46
   1  -5  -6  179.25    5.12
  -1   5   6  189.65    5.21
   1  -5  -6  190.27    5.07
  -1   5   6  194.60    5.10
   1  -5  -6  184.11    5.04
  -1   5   6  181.95    4.94
   1  -5  -6  177.22    3.76
  -1   5   6  174.24    3.77
  -1   5   5  110.70    3.61
   1  -5  -5  105.31    3.55
  -1   5   5  105.22    3.44
  -1   5   5  114.12    3.55
   1  -5  -5  109.28    3.47
   1  -5  -5  103.53    3.48
   1  -5  -5  103.71    2.27
   1  -5  -4    0.81    0.54
  -1   5   4    0.64    0.68
  -1   5   4    1.26    0.70
   1  -5  -4    0.59    0.50
  -1   5   4    0.69    0.58
   1  -5  -4    0.59    0.65
   1  -5  -4    0.76    0.22
  -1   5   3  140.35    3.96
   1  -5  -3  140.11    3.98
   1  -5  -3  141.08    4.09
   1  -5  -3  146.03    4.00
  -1   5   3  136.06    3.98
   1  -5  -3  137.22    2.84
   1  -5  -3  126.34    2.78
   1  -5  -2  198.65    4.97
  -1   5   2  192.24    4.92
   1  -5  -2  191.90    4.18
  -1   5   2  197.43    5.08
   1  -5  -2  199.81    5.05
   1  -5  -2  202.56    5.16
   1  -5  -1    2.60    0.65
   1  -5  -1    1.55    0.46
  -1   5   1    1.42    0.67
  -1   5   1    1.82    0.59
   1  -5  -1    2.00    0.61
  -1   5   0   16.46    1.12
   1  -5   0   18.17    1.16
   1  -5   0   17.31    1.17
   1  -5   0   17.98    1.26
  -1   5   0   15.79    1.21
   1  -5   1  128.77    3.41
  -1   5  -1  122.66    3.63
   1  -5   1  124.37    3.70
   1  -5   1  128.10    3.71
   1  -5   2   26.62    1.29
   1  -5   2   26.58    1.51
  -1   5  -2   24.88    1.43
   1  -5   2   25.36    1.62
  -1   5  -2   24.56    1.43
   1  -5   3  115.15    3.03
  -1   5  -3  110.42    3.31
   1  -5   3  116.51    3.43
   1  -5   3  112.97    3.83
  -1   5  -3  114.29    3.41
   1  -5   4    1.54    0.44
  -1   5  -4    1.07    0.48
   1  -5   4    1.23    0.74
   1  -5   4    1.28    0.71
  -1   5  -4    0.62    0.48
  -1   5  -5   23.80    1.82
   1  -5   5   24.95    1.12
  -1   5  -5   23.37    1.29
   1  -5   5   22.90    1.83
   1  -5   5   20.64    1.63
  -1   5  -5   23.62    1.38
   1  -5   6  109.57    2.75
  -1   5  -6  110.72    4.21
  -1   5  -6  110.63    3.09
   1  -5   6  105.37    4.08
   1  -5   6  109.75    4.30
  -1   5  -6  105.92    3.29
   1  -5   7   92.34    2.37
  -1   5  -7   91.96    3.94
  -1   5  -7   92.61    2.67
   1  -5   7   95.43    4.11
  -1   5  -7   88.15    2.93
  -1   5  -8  203.72    6.60
   1  -5   8  210.55    4.35
   1  -5   8  215.96    4.40
  -1   5  -8  208.42    4.59
   1  -5   8  206.60    6.86
  -1   5  -8  207.10    5.19
   1  -5   9   67.63    1.67
   1  -5   9   68.39    1.68
  -1   5  -9   65.88    3.58
  -1   5  -9   56.41    1.61
   1  -5   9   65.94    3.69
  -1   5  -9   61.65    2.35
  -1   5 -10   40.60    2.91
   1  -5  10   42.32    3.09
  -1   5 -11   71.90    4.07
   1  -5  11   71.29    4.17
  -1   5 -12    3.14    1.35
   1  -5  12    4.60    1.59
  -1   5 -13   22.10    2.45
   1  -5  13   19.02    2.41
  -1   4  16    0.01    0.75
   1  -4 -15   -0.97    0.95
  -1   4  15    0.78    0.62
  -1   4  15   -0.12    0.58
   1  -4 -14   -0.12    0.76
  -1   4  14    0.24    0.45
  -1   4  14    0.15    0.49
  -1   4  14   -0.04    0.56
   1  -4 -13   13.94    1.56
  -1   4  13   15.61    1.15
  -1   4  13   13.44    1.27
  -1   4  13   14.49    1.30
   1  -4 -12   95.07    3.96
  -1   4  12   98.38    3.68
  -1   4  12   94.95    3.36
  -1   4  12  100.68    3.23
   1  -4 -11   79.84    3.48
  -1   4  11   80.59    3.46
  -1   4  11   76.54    3.50
  -1   4  11   80.95    2.83
  -1   4  11   85.07    3.17
  -1   4  11   76.08    2.77
   1  -4 -10    7.69    1.15
  -1   4  10    9.26    1.16
  -1   4  10    9.32    1.24
  -1   4  10    7.53    0.87
  -1   4  10    6.58    0.75
  -1   4  10    8.70    0.94
   1  -4  -9  234.66    6.41
  -1   4   9  253.88    6.72
  -1   4   9  232.37    6.39
  -1   4   9  228.56    5.62
  -1   4   9  242.50    5.30
  -1   4   9  242.02    5.81
  -1   4   9  244.70    6.50
   1  -4  -9  224.11    5.81
   1  -4  -8  512.41   11.34
  -1   4   8  525.97   11.43
  -1   4   8  551.91   11.64
  -1   4   8  528.04   10.40
  -1   4   8  534.34    9.95
   1  -4  -8  508.98   10.86
  -1   4   8  529.10   10.84
  -1   4   8  525.58   11.35
  -1   4   7  345.76    8.03
  -1   4   7  332.51    7.92
   1  -4  -7  330.52    7.89
  -1   4   7  344.24    7.54
   1  -4  -7  329.76    7.56
  -1   4   7  350.41    7.90
  -1   4   7  339.00    6.43
  -1   4   7  335.25    6.85
  -1   4   6  144.01    4.22
   1  -4  -6  148.72    4.25
  -1   4   6  141.67    3.93
  -1   4   6  143.71    4.09
   1  -4  -6  138.41    3.96
  -1   4   6  140.44    3.18
  -1   4   6  134.91    2.73
  -1   4   6  143.74    4.18
   1  -4  -5  436.78    9.17
  -1   4   5  424.91    9.13
  -1   4   5  413.82    7.77
   1  -4  -5  428.05    7.77
  -1   4   5  431.66    8.95
   1  -4  -5  428.37    9.03
  -1   4   5  440.05    9.07
   1  -4  -5  412.24    8.94
   1  -4  -4   13.73    1.21
  -1   4   4   12.96    1.09
   1  -4  -4   13.38    0.50
   1  -4  -4   13.30    1.05
  -1   4   4   12.36    1.09
   1  -4  -4   13.26    1.09
  -1   4   4   13.35    1.11
  -1   4   3    0.61    0.52
   1  -4  -3    1.37    0.78
   1  -4  -3    1.41    0.56
  -1   4   3    1.96    0.67
  -1   4   3    1.45    0.72
   1  -4  -3    1.79    0.62
  -1   4   2    1.57    0.58
   1  -4  -2   -0.16    0.64
   1  -4  -2    0.69    0.31
  -1   4   2   -0.16    0.57
   1  -4  -2    0.11    0.52
   1  -4  -2    0.24    0.50
  -1   4   1  466.54    9.44
   1  -4  -1  489.65    9.52
   1  -4  -1  479.14    9.03
  -1   4   1  475.31    9.63
   1  -4  -1  474.27    9.66
  -1   4   0   50.96    1.88
   1  -4   0   56.85    1.96
   1  -4   0   56.34    1.94
   1  -4   0   55.26    2.08
  -1   4   0   55.37    2.08
   1  -4   1   16.64    1.01
  -1   4  -1   15.02    1.07
   1  -4   1   17.32    1.14
   1  -4   1   18.30    1.18
   1  -4   2  112.56    2.90
   1  -4   2  108.87    3.13
  -1   4  -2  112.83    3.13
   1  -4   2  114.37    3.46
  -1   4  -2  109.22    3.14
   1  -4   3   24.26    1.16
  -1   4  -3   26.87    1.31
   1  -4   3   27.21    1.35
   1  -4   3   25.60    1.64
  -1   4  -3   28.18    1.40
   1  -4   4  452.98    8.69
  -1   4  -4  449.66    8.97
   1  -4   4  455.13    9.06
   1  -4   4  464.68   10.13
   1  -4   4  452.46    9.83
  -1   4  -4  449.85    9.16
  -1   4  -5   58.80    2.69
   1  -4   5   57.01    1.80
  -1   4  -5   57.77    1.92
   1  -4   5   59.35    2.78
   1  -4   5   59.58    2.64
  -1   4  -5   56.82    2.09
  -1   4  -6  105.43    3.89
  -1   4  -6  103.86    2.72
   1  -4   6  101.17    3.99
   1  -4   6  101.65    3.84
  -1   4  -6  101.14    3.01
  -1   4  -7   13.49    1.45
  -1   4  -7   14.05    0.80
   1  -4   7   15.42    1.60
  -1   4  -7   13.93    0.99
  -1   4  -8  121.13    4.56
   1  -4   8  120.76    2.93
  -1   4  -8  112.67    2.63
   1  -4   8  121.92    4.76
  -1   4  -8  116.36    3.32
  -1   4  -9  269.47    7.79
   1  -4   9  265.99    5.47
   1  -4   9  258.12    7.94
  -1   4  -9  259.88    5.96
  -1   4 -10  156.72    5.90
   1  -4  10  173.70    3.78
   1  -4  10  168.71    6.24
  -1   4 -10  162.89    4.22
  -1   4 -11  104.51    4.79
   1  -4  11  106.43    4.96
  -1   4 -12    1.78    1.10
   1  -4  12    3.86    1.27
  -1   4 -13   34.60    3.03
   1  -4  13   36.22    3.11
  -1   4 -14    1.94    1.24
   1  -4  14    0.34    1.02
  -1   3  17   21.44    2.17
   1  -3 -16   14.19    2.07
  -1   3  16   12.39    1.61
   1  -3 -15   10.29    1.74
  -1   3  15    9.86    1.41
   1  -3 -14   24.11    2.01
   1  -3 -14   23.16    2.34
  -1   3  14   25.89    1.26
  -1   3  14   26.65    2.02
  -1   3  14   27.84    1.63
   1  -3 -13   60.88    3.12
  -1   3  13   66.27    2.21
  -1   3  13   59.24    2.87
  -1   3  13   61.17    2.48
   1  -3 -13   62.06    3.52
   1  -3 -12   58.46    2.95
  -1   3  12   63.75    3.00
  -1   3  12   61.26    2.19
  -1   3  12   63.06    2.94
  -1   3  12   59.07    2.70
  -1   3  12   64.00    2.51
   1  -3 -12   57.20    3.24
  -1   3  11   79.28    3.30
   1  -3 -11   78.54    3.32
  -1   3  11   79.56    2.58
  -1   3  11   78.19    2.98
  -1   3  11   80.47    3.19
   1  -3 -11   73.05    3.50
   1  -3 -10  331.71    8.16
  -1   3  10  330.23    8.15
  -1   3  10  339.77    7.22
  -1   3  10  339.19    7.60
  -1   3  10  331.66    7.84
   1  -3 -10  335.69    8.59
   1  -3  -9   39.04    2.12
  -1   3   9   36.87    2.18
  -1   3   9   39.34    2.11
  -1   3   9   35.02    1.79
  -1   3   9   37.67    1.73
   1  -3  -9   35.07    1.68
  -1   3   9   38.01    1.66
  -1   3   8 1070.24   20.11
  -1   3   8  995.05   19.67
   1  -3  -8 1019.65   19.70
  -1   3   8 1050.09   18.80
  -1   3   8 1029.83   19.07
   1  -3  -8  988.57   19.00
  -1   3   8 1049.32   18.98
  -1   3   7  168.74    4.73
  -1   3   7  180.99    4.94
   1  -3  -7  168.08    4.72
  -1   3   7  174.03    4.17
  -1   3   7  173.89    3.96
   1  -3  -7  171.13    4.35
  -1   3   7  174.49    4.33
  -1   3   7  170.95    4.78
  -1   3   6  331.05    7.39
  -1   3   6  316.87    7.26
   1  -3  -6  325.86    7.29
  -1   3   6  331.48    7.33
   1  -3  -6  308.03    6.89
  -1   3   6  332.77    6.95
  -1   3   6  322.97    6.23
   1  -3  -6  311.18    6.20
  -1   3   6  330.65    6.51
   1  -3  -5   72.20    2.60
  -1   3   5   70.55    2.53
   1  -3  -5   71.44    2.39
  -1   3   5   76.23    2.43
  -1   3   5   75.34    2.58
  -1   3   5   73.68    1.71
   1  -3  -5   73.67    1.70
  -1   3   5   74.29    1.92
  -1   3   5   73.19    2.58
   1  -3  -4    6.35    0.94
  -1   3   4    6.63    0.84
  -1   3   4    6.62    0.43
   1  -3  -4    5.90    0.77
  -1   3   4    7.36    0.87
  -1   3   4    6.58    0.78
   1  -3  -4    6.29    0.79
  -1   3   3  313.40    6.66
   1  -3  -3  313.76    6.70
  -1   3   3  320.11    6.64
  -1   3   3  304.16    6.57
   1  -3  -3  304.85    6.58
   1  -3  -3  313.70    6.58
   1  -3  -2 3543.51   59.61
  -1   3   2 3442.94   59.53
   1  -3  -2 3475.73   58.56
   1  -3  -2 3546.44   59.55
  -1   3   2 3301.76   59.52
   1  -3  -2 3338.14   59.54
  -1   3   2 3557.09   59.61
  -1   3   1 3303.95   56.87
   1  -3  -1 3414.57   56.94
   1  -3  -1 3354.24   56.37
  -1   3   1 3220.59   56.97
   1  -3  -1 3226.12   56.99
   1  -3   0   51.08    1.75
  -1   3   0   47.35    1.69
   1  -3   0   52.49    1.84
  -1   3   0   49.86    1.81
   1  -3   0   53.83    1.70
   1  -3   1   42.65    1.53
  -1   3  -1   42.06    1.60
   1  -3   1   44.38    1.64
   1  -3   1   46.45    1.75
  -1   3  -1   42.29    1.62
   1  -3   2   36.79    1.40
  -1   3  -2   40.10    1.52
   1  -3   2   41.11    1.54
   1  -3   2   43.20    1.85
   1  -3   2   41.31    1.65
  -1   3  -2   39.55    1.56
  -1   3  -3  134.01    3.27
   1  -3   3  137.57    3.31
   1  -3   3  135.21    3.94
   1  -3   3  133.91    3.74
  -1   3  -3  134.68    3.40
  -1   3  -4   99.57    3.31
   1  -3   4  101.63    2.64
  -1   3  -4   98.71    2.57
   1  -3   4   98.97    3.25
   1  -3   4  105.65    3.46
  -1   3  -4  100.47    2.79
  -1   3  -5  404.68    8.85
  -1   3  -5  387.54    7.50
   1  -3   5  384.35    8.79
   1  -3   5  398.18    9.04
  -1   3  -5  386.35    7.88
  -1   3  -6  338.22    8.07
  -1   3  -6  332.52    6.44
   1  -3   6  349.86    8.21
   1  -3   6  352.49    8.36
  -1   3  -6  321.93    6.94
   1  -3   7   33.76    1.37
  -1   3  -7   36.43    2.17
  -1   3  -7   33.12    1.06
   1  -3   7   35.63    2.15
   1  -3   7   37.40    2.33
  -1   3  -7   34.21    1.50
   1  -3   8  223.43    4.88
  -1   3  -8  213.92    6.37
   1  -3   8  222.72    6.67
  -1   3  -8  218.32    5.07
  -1   3  -9   51.37    2.90
   1  -3   9   51.04    1.81
   1  -3   9   49.29    2.95
  -1   3  -9   49.45    1.89
   1  -3  10   94.74    2.71
  -1   3 -10   97.78    4.25
   1  -3  10   92.01    4.32
  -1   3 -10   91.34    2.78
   1  -3  11  147.87    3.71
  -1   3 -11  145.30    5.60
   1  -3  11  145.17    5.75
  -1   3 -12   30.75    2.63
   1  -3  12   29.49    2.60
  -1   3 -13   60.86    3.80
   1  -3  13   64.68    4.00
  -1   3 -14    7.19    1.61
   1  -3  14    7.05    1.76
   1  -3  15    3.66    1.54
  -1   2  18    0.60    1.14
  -1   2  17    0.76    1.02
   1  -2 -16    3.01    1.22
  -1   2  16    3.37    1.07
   1  -2 -15    0.15    1.04
  -1   2  15    1.29    0.83
   1  -2 -14   24.01    2.36
  -1   2  14   21.38    1.91
  -1   2  14   21.84    1.28
  -1   2  13  297.15    7.82
   1  -2 -13  298.73    7.89
  -1   2  13  295.63    8.06
   1  -2 -13  305.14    8.91
  -1   2  13  315.28    6.78
  -1   2  12   77.10    3.25
   1  -2 -12   86.33    3.48
  -1   2  12   83.46    2.33
  -1   2  12   82.89    3.45
  -1   2  12   90.42    2.79
   1  -2 -12   83.95    3.94
   1  -2 -11  102.80    3.72
  -1   2  11   96.31    3.61
  -1   2  11  104.36    2.78
  -1   2  11  108.26    3.91
  -1   2  11  101.83    3.71
  -1   2  11  106.23    3.10
   1  -2 -11  106.39    4.27
   1  -2 -10  242.77    6.32
  -1   2  10  238.18    6.27
  -1   2  10  245.57    5.31
  -1   2  10  246.70    6.24
  -1   2  10  247.83    6.42
  -1   2  10  245.90    5.59
   1  -2 -10  238.04    6.84
   1  -2  -9  143.11    4.30
  -1   2   9  154.35    4.79
  -1   2   9  142.18    4.27
   1  -2  -9  136.19    3.57
  -1   2   9  145.33    3.55
  -1   2   9  149.70    4.32
  -1   2   9  141.52    4.10
   1  -2  -9  142.88    4.70
   1  -2  -8  465.34    9.96
  -1   2   8  461.59    9.93
  -1   2   8  504.52   10.57
   1  -2  -8  447.48    9.20
  -1   2   8  491.66    9.22
   1  -2  -8  451.29    9.55
  -1   2   8  470.47    9.65
  -1   2   8  478.84    9.84
   1  -2  -8  480.43   10.46
   1  -2  -7  138.75    3.98
  -1   2   7  140.87    3.97
  -1   2   7  148.75    4.30
  -1   2   7  145.83    3.51
   1  -2  -7  139.72    3.53
  -1   2   7  144.30    3.68
  -1   2   7  146.67    3.81
   1  -2  -7  136.29    3.61
   1  -2  -7  142.60    4.26
  -1   2   6  202.94    5.11
  -1   2   6  193.79    4.85
   1  -2  -6  197.56    4.91
  -1   2   6  205.78    4.50
   1  -2  -6  192.59    4.49
  -1   2   6  201.35    4.45
   1  -2  -6  193.52    4.41
  -1   2   6  204.14    4.57
   1  -2  -6  203.18    5.13
  -1   2   5    6.12    0.84
  -1   2   5    4.10    0.62
   1  -2  -5    5.09    0.77
   1  -2  -5   10.09    0.77
  -1   2   5    5.92    0.63
   1  -2  -5    7.14    0.59
  -1   2   5    4.07    0.46
  -1   2   5    6.09    0.58
   1  -2  -4   54.21    2.00
  -1   2   4   54.88    1.97
  -1   2   4   57.70    2.05
  -1   2   4   61.96    1.90
   1  -2  -4   57.21    1.85
  -1   2   4   57.51    1.52
  -1   2   4   52.99    1.42
   1  -2  -4   52.58    1.44
  -1   2   4   56.90    2.01
   1  -2  -3   84.44    2.48
  -1   2   3   81.64    2.39
  -1   2   3   79.91    1.71
   1  -2  -3   80.15    1.71
  -1   2   3   84.13    1.73
   1  -2  -3   82.44    2.32
   1  -2  -3   83.61    2.41
  -1   2   3   88.14    2.35
  -1   2   3   83.69    2.43
   1  -2  -2  242.47    5.11
  -1   2   2  229.92    5.04
  -1   2   2  243.18    5.09
  -1   2   2  238.75    5.04
   1  -2  -2  240.65    5.04
   1  -2  -2  242.98    5.05
  -1   2   1  260.95    5.45
   1  -2  -1  273.99    5.50
   1  -2  -1  269.93    5.50
  -1   2   1  274.28    5.53
   1  -2  -1  268.31    5.52
   1  -2   0  128.46    3.06
  -1   2   0  140.82    3.17
   1  -2   0  130.01    3.12
   1  -2   0  135.47    2.79
   1  -2   1  482.60    9.03
   1  -2   1  494.89    9.12
  -1   2  -1  485.93    9.11
   1  -2   1  481.61    9.05
   1  -2   1  493.33    9.27
  -1   2  -1  486.09    9.18
  -1   2  -2    2.13    0.42
   1  -2   2    1.88    0.42
   1  -2   2    4.07    0.77
  -1   2  -2    1.99    0.48
   1  -2   2    1.77    0.52
   1  -2   2    2.65    0.60
  -1   2  -3  378.65    7.30
   1  -2   3  388.76    7.33
   1  -2   3  380.37    7.95
   1  -2   3  406.81    8.18
   1  -2   3  395.71    7.57
  -1   2  -3  383.92    7.55
  -1   2  -4  213.76    5.11
  -1   2  -4  199.14    4.16
   1  -2   4  207.55    4.21
   1  -2   4  205.32    5.10
   1  -2   4  216.62    5.29
  -1   2  -4  203.53    4.51
   1  -2   4  213.63    4.54
  -1   2  -5   23.85    1.55
   1  -2   5   22.87    0.87
  -1   2  -5   21.43    0.82
   1  -2   5   24.42    1.52
   1  -2   5   21.26    1.54
  -1   2  -5   22.89    1.11
   1  -2   5   23.50    1.12
  -1   2  -6  447.92    9.70
  -1   2  -6  426.63    7.91
   1  -2   6  467.18   10.04
   1  -2   6  447.55    9.80
   1  -2   6  465.67    8.69
  -1   2  -6  439.40    8.65
  -1   2  -7  138.47    4.47
   1  -2   7  140.91    3.51
   1  -2   7  143.83    4.61
   1  -2   7  148.99    4.76
  -1   2  -7  135.91    3.50
   1  -2   7  147.64    3.56
   1  -2   8  747.16   14.18
  -1   2  -8  751.77   15.77
   1  -2   8  787.70   16.04
   1  -2   8  762.30   16.03
  -1   2  -8  747.06   14.16
   1  -2   8  774.35   14.16
   1  -2   9   56.36    2.02
  -1   2  -9   53.54    2.88
   1  -2   9   51.33    2.94
  -1   2  -9   54.99    1.96
   1  -2   9   57.39    1.97
   1  -2  10  137.71    3.71
  -1   2 -10  135.63    5.01
   1  -2  10  135.88    5.17
   1  -2  10  141.94    3.57
  -1   2 -10  133.63    3.56
  -1   2 -11    6.33    1.27
   1  -2  11    5.85    0.71
   1  -2  11    6.20    1.24
   1  -2  11    6.41    0.68
  -1   2 -12  133.77    5.44
   1  -2  12  134.08    5.51
  -1   2 -13   41.82    3.11
   1  -2  13   47.12    3.32
  -1   2 -14    3.05    1.18
   1  -2  14    4.55    1.54
  -1   2 -15    0.69    1.02
   1  -2  15    0.27    1.10
  -1   1  18    3.06    1.41
  -1   1  17    2.48    1.09
   1  -1 -16    3.45    1.31
  -1   1  16    0.67    1.03
   1  -1 -15   34.18    2.89
  -1   1  15   34.27    2.63
   1  -1 -14   14.22    1.97
  -1   1  14   12.66    1.64
   1  -1 -13  212.15    7.18
  -1   1  13  209.23    5.99
  -1   1  13  218.19    6.75
  -1   1  13  228.10    4.82
   1  -1 -12    1.39    0.93
  -1   1  12    1.13    0.60
  -1   1  12    0.70    0.65
  -1   1  12    1.28    0.44
   1  -1 -11  279.16    6.95
   1  -1 -11  280.05    7.87
  -1   1  11  267.50    6.82
  -1   1  11  275.74    7.38
  -1   1  11  293.58    7.61
  -1   1  11  286.24    5.94
  -1   1  10  112.64    3.62
   1  -1 -10  114.78    4.30
   1  -1 -10  109.18    3.61
  -1   1  10  112.71    2.67
  -1   1  10  120.37    4.08
  -1   1  10  112.95    3.93
  -1   1  10  115.56    2.98
  -1   1   9  198.64    5.13
   1  -1  -9  195.53    5.77
  -1   1   9  216.75    5.96
   1  -1  -9  195.47    5.13
   1  -1  -9  188.29    4.22
  -1   1   9  200.55    4.22
  -1   1   9  203.39    5.43
  -1   1   9  208.18    5.56
   1  -1  -9  190.59    5.31
  -1   1   9  206.75    4.47
   1  -1  -8  354.22    8.41
  -1   1   8  345.75    7.71
  -1   1   8  380.28    8.56
   1  -1  -8  368.76    7.85
   1  -1  -8  352.55    7.93
  -1   1   8  359.04    7.97
  -1   1   8  366.95    8.11
  -1   1   8  364.12    6.94
   1  -1  -8  339.47    6.93
  -1   1   7  149.65    3.98
   1  -1  -7  154.00    4.06
  -1   1   7  155.61    4.49
   1  -1  -7  158.65    4.53
  -1   1   7  160.41    4.22
   1  -1  -7  145.94    4.05
  -1   1   7  157.50    4.14
  -1   1   7  159.31    3.47
   1  -1  -7  150.62    3.47
   1  -1  -6  213.51    5.30
  -1   1   6  203.29    4.83
   1  -1  -6  207.65    4.88
  -1   1   6  215.23    5.31
   1  -1  -6  198.21    4.82
  -1   1   6  209.69    4.86
  -1   1   6  218.82    4.97
   1  -1  -6  200.98    4.38
  -1   1   6  217.78    4.41
  -1   1   5   24.39    1.20
   1  -1  -5   23.78    1.25
  -1   1   5   24.97    1.38
   1  -1  -5   24.35    1.45
   1  -1  -5   23.82    1.17
  -1   1   5   23.17    1.12
  -1   1   5   25.26    1.18
   1  -1  -5   24.06    1.02
  -1   1   5   24.32    1.01
  -1   1   4  107.82    2.78
  -1   1   4  108.54    2.94
   1  -1  -4  107.72    2.98
   1  -1  -4  110.28    2.84
   1  -1  -4  106.22    2.57
  -1   1   4  113.66    2.60
  -1   1   4  105.43    2.59
   1  -1  -4   97.88    2.58
   1  -1  -3  184.38    4.04
  -1   1   3  182.69    4.05
  -1   1   3  179.84    4.00
  -1   1   3  191.88    3.88
   1  -1  -3  184.29    3.88
   1  -1  -3  176.65    3.69
  -1   1   3  186.27    3.69
   1  -1  -3  183.38    4.09
  -1   1   2   13.01    0.77
   1  -1  -2   13.21    0.79
   1  -1  -2   12.57    0.72
  -1   1   2   13.05    0.69
  -1   1   2   12.60    0.82
  -1   1   2   10.77    0.52
  -1   1   2   11.64    0.70
  -1   1   1   16.09    0.75
   1  -1  -1   16.75    0.79
   1  -1  -1   15.94    0.77
  -1   1   1   15.55    0.79
   1  -1  -1   16.44    0.82
  -1   1   1   15.50    0.76
   1  -1   0   40.91    1.24
  -1   1   0   41.25    1.23
  -1   1   0   40.43    1.01
   1  -1   0   38.22    1.00
   1  -1   0   40.96    1.28
  -1   1   0   39.22    1.25
   1  -1   1  298.33    5.70
  -1   1  -1  303.37    5.70
  -1   1  -1  306.66    5.74
   1  -1   1  297.49    5.72
  -1   1  -1  295.12    5.78
   1  -1   1  306.68    5.82
   1  -1   2  127.14    2.67
  -1   1  -2  121.13    2.65
  -1   1  -2  123.95    3.01
   1  -1   2  124.70    2.98
  -1   1  -2  125.92    2.85
   1  -1   2  126.00    2.86
  -1   1  -3  107.82    2.86
  -1   1  -3  102.64    2.30
   1  -1   3  107.96    2.32
   1  -1   3  102.56    2.87
   1  -1   3  114.74    3.04
  -1   1  -3  105.57    2.58
   1  -1   3  111.04    2.62
  -1   1  -4   49.00    1.93
  -1   1  -4   43.83    1.22
   1  -1   4   50.78    1.25
   1  -1   4   49.03    1.95
   1  -1   4   53.49    2.09
  -1   1  -4   46.65    1.55
   1  -1   4   49.82    1.58
  -1   1  -5  638.24   12.36
   1  -1   5  620.18   12.34
   1  -1   5  623.37   10.91
   1  -1   5  631.12   12.45
   1  -1   5  630.49   12.56
  -1   1  -5  608.59   11.57
   1  -1   5  643.01   11.60
  -1   1  -6  688.23   13.45
   1  -1   6  656.03   12.50
   1  -1   6  679.18   13.46
   1  -1   6  694.69   13.69
   1  -1   6  667.04   13.51
  -1   1  -6  656.56   12.42
   1  -1   6  675.26   12.42
   1  -1   7  351.84    7.27
  -1   1  -7  356.01    8.23
   1  -1   7  366.32    8.32
   1  -1   7  354.11    8.32
   1  -1   7  345.48    8.36
   1  -1   7  352.48    7.11
  -1   1  -7  345.27    7.13
   1  -1   8  507.87   10.99
   1  -1   8  474.74    9.68
  -1   1  -8  485.85   10.83
   1  -1   8  512.24   11.04
   1  -1   8  486.93   11.02
  -1   1  -8  464.23    9.46
   1  -1   8  495.19    9.48
   1  -1   9  137.86    3.80
   1  -1   9  148.81    4.88
  -1   1  -9  141.91    4.80
   1  -1   9  142.23    4.90
   1  -1   9  149.96    4.92
  -1   1  -9  136.58    3.58
   1  -1   9  143.90    3.61
   1  -1  10    2.93    0.61
  -1   1 -10    4.59    1.13
   1  -1  10    2.71    0.99
   1  -1  10    3.24    0.53
   1  -1  11  222.97    5.59
  -1   1 -11  221.69    6.95
   1  -1  11  219.26    7.03
   1  -1  11  234.68    5.23
   1  -1  12   10.71    1.04
  -1   1 -12    9.68    1.55
   1  -1  12    7.87    1.35
   1  -1  12    9.02    0.79
  -1   1 -13   48.08    3.19
   1  -1  13   46.67    3.14
   1  -1  13   45.61    1.75
  -1   1 -14    9.60    1.69
   1  -1  14    3.83    1.08
  -1   1 -15    5.18    1.40
   1  -1  15   10.24    1.81
   1  -1  16    9.19    1.77
  -1   0  18    2.18    1.41
  -1   0  17    1.46    1.08
   1   0 -16    0.55    1.20
  -1   0  16    0.32    1.06
   1   0 -15   13.86    2.05
  -1   0  15   12.74    1.80
   1   0 -14  120.58    5.38
  -1   0  14  112.10    4.89
  -1   0  13   41.80    2.14
   1   0 -13   41.80    3.47
  -1   0  13   39.61    2.72
   1   0 -12   21.16    2.05
  -1   0  12   23.64    1.54
  -1   0  12   28.39    2.17
  -1   0  12   25.17    0.83
   1   0 -11  154.47    5.50
  -1   0  11  155.04    4.42
  -1   0  11  151.81    5.23
  -1   0  11  165.75    3.39
   1   0 -10  170.65    4.70
   1   0 -10  188.52    5.83
  -1   0  10  177.01    4.67
  -1   0  10  186.52    5.60
   1   0 -10  169.60    5.35
  -1   0  10  178.07    5.48
  -1   0  10  185.99    3.77
   1   0  -9  148.27    4.85
  -1   0   9  146.53    3.95
   1   0  -9  146.30    3.99
  -1   0   9  154.88    4.89
  -1   0   9  142.36    4.57
  -1   0   9  146.18    4.64
   1   0  -9  144.32    4.59
  -1   0   9  147.66    3.18
   1   0  -8  177.87    5.15
  -1   0   8  171.63    4.27
   1   0  -8  173.48    4.32
  -1   0   8  176.11    5.13
   1   0  -8  166.35    3.45
   1   0  -8  171.31    4.86
  -1   0   8  175.27    4.90
  -1   0   8  175.05    4.94
  -1   0   8  172.23    3.56
  -1   0   7   20.65    1.12
  -1   0   7   22.56    1.53
   1   0  -7   20.05    1.15
   1   0  -7   23.72    1.61
   1   0  -7   20.74    0.80
   1   0  -7   19.84    1.42
  -1   0   7   20.87    1.38
  -1   0   7   21.17    1.42
  -1   0   7   22.92    0.86
   1   0  -6  366.40    7.93
  -1   0   6  367.25    7.94
  -1   0   6  347.09    7.13
   1   0  -6  359.09    7.20
   1   0  -6  345.13    7.66
  -1   0   6  358.78    7.70
   1   0  -6  346.38    6.60
  -1   0   6  359.69    6.63
   1   0  -5   82.72    2.70
  -1   0   5   77.41    2.18
  -1   0   5   77.93    2.61
   1   0  -5   78.76    2.22
  -1   0   5   78.74    2.51
   1   0  -5   78.09    2.50
   1   0  -5   78.47    1.92
  -1   0   5   81.15    1.93
   1   0  -4   17.02    0.90
  -1   0   4   17.56    1.07
   1   0  -4   17.97    1.17
  -1   0   4   17.08    0.82
   1   0  -4   17.18    1.01
  -1   0   4   17.84    1.07
   1   0  -4   17.91    0.74
  -1   0   4   17.50    0.75
  -1   0   3  724.12   13.01
  -1   0   3  739.51   13.32
   1   0  -3  752.09   13.35
   1   0  -3  725.06   13.03
   1   0  -3  722.19   12.87
  -1   0   3  743.91   12.90
   1   0  -3  704.86   13.18
  -1   0   3  736.92   13.20
   1   0  -2    7.56    0.55
  -1   0   2    8.83    0.53
  -1   0   2    7.44    0.56
   1   0  -2    7.35    0.61
   1   0  -2    7.20    0.48
  -1   0   2    8.19    0.50
  -1   0   2    7.82    0.58
   1   0  -2    7.29    0.54
  -1   0   2    7.80    0.42
  -1   0   1    2.88    0.30
   1   0  -1    2.51    0.31
   1   0  -1    2.31    0.33
   1   0  -1    2.30    0.35
  -1   0   1    2.80    0.33
   1   0  -1    2.12    0.30
  -1   0   1    2.32    0.33
  -1   0   1    2.59    0.30
   1   0  -1    2.40    0.32
   1   0   0  412.05    6.92
  -1   0   0  403.33    6.75
  -1   0   0  409.73    6.77
   1   0   0  411.03    6.90
   1   0   0  399.97    6.76
   1   0   1    0.50    0.25
  -1   0  -1    0.01    0.23
  -1   0  -1    0.61    0.25
   1   0   1    0.85    0.33
  -1   0  -1    0.40    0.26
  -1   0  -1    0.78    0.33
   1   0   1    0.39    0.26
  -1   0  -2  247.28    4.76
   1   0   2  237.60    4.75
   1   0   2  237.35    4.56
  -1   0  -2  252.50    4.94
   1   0   2  247.12    4.92
   1   0   2  247.17    4.80
  -1   0  -2  250.59    4.80
   1   0   3  247.97    5.18
  -1   0  -3  258.03    5.21
   1   0   3  245.18    4.66
  -1   0  -3  256.28    5.35
   1   0   3  262.22    5.33
  -1   0  -3  252.66    5.03
   1   0   3  257.35    5.04
   1   0   4  357.65    7.31
  -1   0  -4  367.18    7.35
   1   0   4  353.45    6.43
  -1   0  -4  375.63    7.49
   1   0   4  367.68    7.44
  -1   0  -4  356.10    6.96
   1   0   4  364.30    6.96
   1   0   5  899.75   16.64
  -1   0  -5  904.01   16.65
   1   0   5  886.03   16.17
   1   0   5  889.72   16.75
  -1   0  -5  878.64   16.73
   1   0   5  892.59   16.74
   1   0   5  905.25   16.02
  -1   0  -5  872.69   16.02
  -1   0  -6  804.40   15.43
   1   0   6  801.21   15.44
   1   0   6  801.69   14.83
   1   0   6  816.10   15.56
   1   0   6  821.36   15.55
  -1   0  -6  777.43   14.61
   1   0   6  801.05   14.61
   1   0   7  415.35    9.11
  -1   0  -7  416.54    9.12
   1   0   7  408.32    8.40
   1   0   7  413.94    9.15
   1   0   7  418.12    9.19
   1   0   7  419.07    8.15
  -1   0  -7  393.95    8.11
  -1   0  -8  381.01    8.84
   1   0   8  388.66    8.88
   1   0   8  369.28    7.99
   1   0   8  379.23    8.88
   1   0   8  386.37    8.92
   1   0   8  374.43    7.67
   1   0   9   71.28    3.10
   1   0   9   70.04    2.55
  -1   0  -9   70.22    3.11
   1   0   9   72.94    3.18
   1   0   9   72.49    3.14
   1   0   9   69.69    2.28
  -1   0 -10   39.87    2.44
   1   0  10   35.78    1.84
   1   0  10   38.60    2.43
   1   0  10   38.66    1.65
   1   0  11  250.46    6.33
  -1   0 -11  256.23    7.45
   1   0  11  257.66    7.49
   1   0  11  264.84    5.88
   1   0  12   99.93    3.52
  -1   0 -12  101.84    4.46
   1   0  12  101.07    4.41
   1   0  12  110.07    3.15
   1   0  13   17.40    1.50
  -1   0 -13   18.60    2.06
   1   0  13   18.78    2.00
   1   0  13   19.11    1.18
  -1   0 -14    8.19    1.55
   1   0  14    5.31    1.35
  -1   0 -15    1.49    0.97
   1   0  15    0.33    1.04
  -1   0 -16   19.48    2.33
   1   0  16   32.83    2.97
   1   0  17    5.81    1.54
  -1  -1  17    5.90    1.52
  -1  -1  16    6.79    1.45
   1   1 -15    5.88    1.49
  -1  -1  15    5.87    1.46
   1   1 -14   57.68    3.70
  -1  -1  14   54.83    3.46
   1   1 -13   68.74    3.81
  -1  -1  13   62.11    3.52
  -1  -1  12   34.32    1.69
   1   1 -12   31.76    2.49
  -1  -1  12   35.60    2.53
   1   1 -11  105.25    4.42
  -1  -1  11  103.45    3.13
  -1  -1  11  102.35    4.25
   1   1 -10  189.06    5.97
  -1  -1  10  186.28    4.55
   1   1 -10  186.57    5.80
  -1  -1  10  179.26    5.73
  -1  -1   9   33.86    2.19
   1   1  -9   28.05    2.07
  -1  -1   9   30.52    1.40
   1   1  -9   31.55    2.04
  -1  -1   9   33.46    2.09
  -1  -1   9   30.80    2.03
   1   1  -8  364.84    7.60
  -1  -1   8  369.34    7.56
   1   1  -8  383.00    8.99
  -1  -1   8  400.18    9.09
  -1  -1   8  397.68    8.95
  -1  -1   8  372.46    8.79
   1   1  -8  371.78    8.83
   1   1  -7   30.33    1.87
  -1  -1   7   29.65    1.22
   1   1  -7   26.78    1.21
  -1  -1   7   28.49    1.77
  -1  -1   7   27.92    1.74
   1   1  -7   29.70    1.80
   1   1  -7   29.18    0.80
  -1  -1   6  186.76    4.04
  -1  -1   6  197.03    5.07
   1   1  -6  182.98    4.07
   1   1  -6  191.83    5.04
  -1  -1   6  183.28    4.91
   1   1  -6  184.21    4.98
   1   1  -6  188.60    3.62
   1   1  -5   12.32    1.15
  -1  -1   5   14.40    1.12
   1   1  -5   13.14    0.72
  -1  -1   5   13.53    0.71
   1   1  -5   14.78    1.13
  -1  -1   5   13.91    1.10
   1   1  -5   13.82    0.59
  -1  -1   4   67.30    2.25
   1   1  -4   73.93    2.40
   1   1  -4   65.84    1.70
  -1  -1   4   72.49    1.71
  -1  -1   4   71.00    2.33
   1   1  -4   66.62    2.27
   1   1  -4   66.12    1.63
   1   1  -3   53.19    1.32
   1   1  -3   54.43    1.83
  -1  -1   3   55.27    1.32
  -1  -1   3   49.76    1.74
   1   1  -3   49.05    1.77
  -1  -1   3   51.10    1.83
   1   1  -3   49.73    1.35
  -1  -1   2   59.31    1.70
   1   1  -2   60.15    1.72
   1   1  -2   59.12    1.35
  -1  -1   2   62.73    1.78
   1   1  -2   56.80    1.76
  -1  -1   1  786.39   13.93
   1   1  -1  804.04   13.93
   1   1  -1  800.35   14.10
  -1  -1   1  802.15   14.09
   1   1   0  164.09    3.33
  -1  -1   0  177.61    3.35
  -1  -1   0  163.22    3.23
   1   1   0  166.30    3.24
  -1  -1  -1  706.63   12.20
   1   1   1  700.22   12.22
   1   1   1  679.08   12.19
  -1  -1  -1  683.03   12.21
  -1  -1  -2  202.19    3.92
   1   1   2  196.29    3.90
  -1  -1  -2  205.86    4.09
   1   1   2  206.54    4.09
   1   1   2  197.59    4.06
  -1  -1  -2  197.34    4.06
   1   1   3  103.27    2.55
  -1  -1  -3  106.96    2.58
   1   1   3  107.68    2.66
  -1  -1  -3  107.21    2.68
  -1  -1  -3  105.30    2.55
   1   1   3  107.01    2.57
   1   1   4  189.80    4.34
   1   1   4  190.27    4.31
  -1  -1  -4  194.67    4.37
   1   1   4  199.20    4.45
  -1  -1  -4  197.72    4.45
   1   1   4  199.71    4.21
  -1  -1  -4  187.83    4.17
  -1  -1  -5  232.20    5.25
   1   1   5  227.90    5.05
   1   1   5  228.53    5.23
  -1  -1  -5  229.11    5.29
   1   1   5  224.24    5.25
  -1  -1  -5  220.24    4.84
   1   1   5  231.86    4.89
   1   1   6 1033.99   19.47
   1   1   6 1043.72   19.14
  -1  -1  -6 1040.27   19.47
   1   1   6 1060.87   19.42
   1   1   6 1044.20   19.52
  -1  -1  -6 1056.09   19.55
   1   1   6 1054.39   18.88
   1   1   7  156.42    4.11
  -1  -1  -7  155.23    4.43
   1   1   7  161.97    4.49
   1   1   7  156.87    3.12
   1   1   7  164.13    4.44
   1   1   7  154.51    4.44
  -1  -1  -7  156.70    4.47
   1   1   7  156.21    3.84
  -1  -1  -8  514.80   11.15
   1   1   8  512.30   10.61
   1   1   8  540.27   11.27
   1   1   8  517.13    9.11
   1   1   8  530.06   11.22
   1   1   8  533.13   11.15
   1   1   8  524.17   10.23
  -1  -1  -9   22.42    1.72
   1   1   9   20.04    1.36
   1   1   9   23.23    1.68
   1   1   9   22.95    1.71
   1   1   9   22.18    1.64
   1   1   9   18.58    1.15
   1   1  10  125.51    4.42
  -1  -1 -10  122.48    4.41
   1   1  10  118.36    3.80
   1   1  10  121.15    4.33
   1   1  10  129.01    4.45
   1   1  10  118.14    3.41
   1   1  11   16.00    1.32
  -1  -1 -11   17.57    1.77
   1   1  11   14.28    1.58
   1   1  11   17.26    1.15
   1   1  12    5.37    0.88
  -1  -1 -12    7.53    1.35
   1   1  12    5.30    1.10
   1   1  12    3.84    0.62
   1   1  13   18.14    1.56
  -1  -1 -13   19.61    2.05
   1   1  13   21.74    2.01
   1   1  13   19.67    1.27
  -1  -1 -14   14.26    1.84
   1   1  14   10.10    1.54
   1   1  14   10.60    0.99
  -1  -1 -15    2.57    1.22
   1   1  15   -0.11    0.92
  -1  -1 -16   11.01    1.86
   1   1  16    8.03    1.58
   1   1  17   12.14    1.92
   1   1  18   12.14    2.04
  -1  -2  16    2.03    1.14
   1   2 -15    3.01    1.32
  -1  -2  15    1.02    1.06
   1   2 -14   -0.15    1.04
  -1  -2  14   -0.78    1.14
   1   2 -13  161.86    6.26
  -1  -2  13  154.29    6.06
  -1  -2  12   85.74    2.57
   1   2 -12   87.47    4.27
  -1  -2  12   84.44    4.14
   1   2 -11  185.56    6.28
  -1  -2  11  182.35    4.27
  -1  -2  11  178.71    6.14
  -1  -2  10   37.34    1.45
   1   2 -10   33.17    2.36
  -1  -2  10   37.32    2.45
  -1  -2   9   27.59    1.15
   1   2  -9   28.48    2.09
   1   2  -9   26.34    1.99
  -1  -2   9   25.75    2.01
   1   2  -8  281.70    7.39
  -1  -2   8  280.17    5.67
  -1  -2   8  295.92    7.54
  -1  -2   8  278.36    7.38
   1   2  -8  288.68    7.46
  -1  -2   7   53.35    2.51
  -1  -2   7   48.71    1.45
   1   2  -7   48.45    2.42
   1   2  -7   46.21    2.40
  -1  -2   7   51.10    2.49
   1   2  -6 1153.59   21.16
  -1  -2   6 1113.81   19.33
  -1  -2   6 1150.83   21.19
  -1  -2   6 1119.28   21.14
   1   2  -6 1134.28   21.24
   1   2  -6 1089.57   19.20
  -1  -2   5  169.90    4.54
   1   2  -5  170.75    4.53
  -1  -2   5  165.52    3.24
  -1  -2   5  163.09    4.55
   1   2  -5  159.28    4.51
   1   2  -4  269.43    6.06
   1   2  -4  263.52    6.10
  -1  -2   4  264.71    6.13
   1   2  -3    1.00    0.71
  -1  -2   3    0.79    0.66
   1   2  -3    1.70    0.60
   1   2  -2  218.10    4.67
  -1  -2   2  207.89    4.75
   1   2  -2  218.16    4.75
  -1  -2   1  315.80    6.14
   1   2  -1  304.71    6.14
   1   2   0   10.10    0.63
  -1  -2   0    9.82    0.66
   1   2   1   38.96    1.21
   1   2   1   36.39    1.13
  -1  -2  -1   37.82    1.21
  -1  -2  -1   39.10    1.23
   1   2   2   65.57    1.85
   1   2   2   67.79    1.45
  -1  -2  -2   63.22    1.44
  -1  -2  -2   64.14    1.77
   1   2   2   66.82    1.76
   1   2   3 1671.68   29.79
  -1  -2  -3 1723.51   29.63
   1   2   3 1702.74   29.62
   1   2   3 1739.48   29.72
   1   2   3 1693.30   29.58
   1   2   4   87.58    2.46
   1   2   4   86.62    2.52
  -1  -2  -4   89.26    2.48
   1   2   4   87.02    2.43
  -1  -2  -4   86.87    2.48
   1   2   4   89.19    2.45
   1   2   5  767.59   14.26
   1   2   5  753.73   14.24
  -1  -2  -5  760.75   14.26
   1   2   5  750.92   14.20
  -1  -2  -5  744.66   14.18
   1   2   5  773.74   14.05
   1   2   6 1072.84   19.82
   1   2   6 1077.67   19.96
  -1  -2  -6 1077.17   19.94
   1   2   6 1078.15   19.05
  -1  -2  -6 1063.20   19.85
   1   2   6 1069.53   19.89
   1   2   6 1102.22   19.57
   1   2   7  216.43    5.44
  -1  -2  -7  210.10    5.39
   1   2   7  210.61    5.19
   1   2   7  209.47    4.40
   1   2   7  209.78    5.15
  -1  -2  -7  207.71    5.33
   1   2   7  207.87    5.32
   1   2   7  214.16    4.95
   1   2   8   70.63    2.67
  -1  -2  -8   74.48    2.93
   1   2   8   72.00    2.87
   1   2   8   73.08    1.96
   1   2   8   74.54    2.77
  -1  -2  -8   75.27    2.88
   1   2   8   77.79    2.91
   1   2   8   74.66    2.47
   1   2   9   -0.59    0.60
   1   2   9    0.27    0.44
  -1  -2  -9    0.00    0.66
   1   2   9    0.48    0.27
   1   2   9    0.75    0.64
   1   2   9    1.15    0.56
   1   2   9   -0.29    0.35
  -1  -2 -10  279.34    7.47
   1   2  10  265.16    6.90
   1   2  10  297.03    7.60
   1   2  10  291.90    5.44
   1   2  10  270.16    7.15
   1   2  10  290.40    7.43
   1   2  10  267.44    6.43
  -1  -2 -11  125.18    4.60
   1   2  11  127.98    4.17
   1   2  11  118.06    2.41
   1   2  11  125.71    4.41
   1   2  11  128.99    3.72
   1   2  12   70.67    3.11
  -1  -2 -12   71.09    3.53
   1   2  12   76.11    3.46
   1   2  12   75.98    2.75
   1   2  13    5.21    0.95
  -1  -2 -13    4.55    1.15
   1   2  13    4.49    1.01
   1   2  13    5.26    0.74
  -1  -2 -14    2.94    1.09
   1   2  14    1.19    0.94
   1   2  14    2.55    0.62
  -1  -2 -15   11.35    1.77
   1   2  15    8.99    1.47
  -1  -2 -16   10.50    1.68
   1   2  16   13.81    1.90
  -1  -2 -17   18.57    2.41
   1   2  17   17.00    2.09
   1   2  18   13.29    2.00
  -1  -3  15    2.21    1.26
   1   3 -14   10.34    1.81
  -1  -3  14   12.73    1.96
   1   3 -13   89.66    4.61
  -1  -3  13   85.25    4.52
   1   3 -12   20.91    2.15
  -1  -3  12   17.00    2.03
   1   3 -11  390.35   10.44
  -1  -3  11  384.26   10.40
  -1  -3  10   46.64    1.28
   1   3 -10   44.31    2.81
  -1  -3  10   42.97    2.79
   1   3  -9  252.10    7.30
  -1  -3   9  257.44    4.84
  -1  -3   9  252.48    7.36
   1   3  -8   46.40    2.57
  -1  -3   8   42.18    1.08
  -1  -3   8   42.65    2.53
   1   3  -8   45.47    2.58
   1   3  -7   11.33    1.35
  -1  -3   7   12.24    1.35
   1   3  -7   12.45    1.38
   1   3  -7   12.13    0.57
   1   3  -7   11.92    0.56
   1   3  -6   65.10    2.80
  -1  -3   6   64.22    2.84
   1   3  -6   72.26    2.97
   1   3  -6   68.80    1.79
   1   3  -5   42.58    2.10
  -1  -3   5   41.35    2.15
   1   3  -5   43.71    2.18
   1   3  -4  154.53    4.21
   1   3  -4  150.24    4.29
  -1  -3   4  154.13    4.29
   1   3  -4  148.39    2.93
   1   3  -3   66.23    2.37
   1   3  -3   58.48    2.33
  -1  -3   3   66.31    2.42
  -1  -3   2   56.83    2.10
   1   3  -2   57.64    2.05
   1   3  -1    3.28    0.34
   1   3  -1    3.38    0.57
  -1  -3   1    3.85    0.72
  -1  -3   0 1250.03   21.48
   1   3   0 1222.44   21.46
   1   3   0 1228.40   21.82
  -1  -3   0 1251.67   21.80
  -1  -3  -1  426.79    7.90
   1   3   1  420.56    7.89
  -1  -3  -1  412.66    7.82
   1   3   1  413.05    7.81
  -1  -3  -2   83.93    2.34
   1   3   2   83.10    2.32
  -1  -3  -2   85.70    2.00
   1   3   2   75.74    2.00
  -1  -3  -2   88.04    2.21
  -1  -3  -3  131.16    3.34
   1   3   3  130.63    3.27
  -1  -3  -3  124.68    2.82
   1   3   3  127.40    2.83
  -1  -3  -3  128.33    3.04
   1   3   3  130.19    3.04
   1   3   4   43.84    1.79
  -1  -3  -4   41.42    1.79
   1   3   4   45.76    1.50
  -1  -3  -4   47.10    1.65
   1   3   4   45.34    1.59
   1   3   4   44.87    1.69
  -1  -3  -5  487.47   10.11
   1   3   5  509.08   10.14
   1   3   5  501.79    9.99
  -1  -3  -5  510.68    9.82
   1   3   5  504.89    9.80
  -1  -3  -6  320.40    7.22
   1   3   6  329.59    7.21
   1   3   6  323.64    7.17
   1   3   6  324.99    6.68
  -1  -3  -6  323.60    6.97
   1   3   6  324.10    6.98
   1   3   7  289.41    6.83
  -1  -3  -7  290.19    6.81
   1   3   7  292.29    6.80
   1   3   7  286.18    6.11
   1   3   7  292.21    6.65
   1   3   7  295.93    6.38
  -1  -3  -7  290.11    6.63
  -1  -3  -7  288.23    6.82
   1   3   7  294.93    6.52
   1   3   8   54.90    2.47
   1   3   8   58.73    2.47
   1   3   8   57.34    1.91
   1   3   8   59.29    2.26
   1   3   8   56.97    2.40
  -1  -3  -8   53.40    2.34
  -1  -3  -8   55.64    2.50
   1   3   8   57.12    2.24
   1   3   9    1.40    0.60
   1   3   9    1.57    0.63
  -1  -3  -9    1.86    0.77
   1   3   9    1.10    0.31
   1   3   9    1.48    0.50
   1   3   9    1.70    0.62
  -1  -3  -9    1.57    0.74
   1   3   9    1.70    0.56
   1   3  10   85.63    3.47
   1   3  10   80.83    3.21
   1   3  10   80.00    2.33
  -1  -3 -10   79.85    3.27
   1   3  10   81.37    3.11
   1   3  10   81.76    3.27
   1   3  10   82.41    2.90
  -1  -3 -10   80.52    3.41
   1   3  11   22.21    1.66
  -1  -3 -11   18.30    1.73
   1   3  11   19.49    0.98
   1   3  11   20.60    1.63
   1   3  11   21.25    1.69
   1   3  11   18.98    1.37
   1   3  12   22.67    1.80
   1   3  12   22.45    0.97
   1   3  12   20.96    1.73
   1   3  12   21.03    1.49
  -1  -3 -12   24.86    2.08
  -1  -3 -13    6.18    1.28
   1   3  13    5.84    0.40
   1   3  13    5.19    1.01
   1   3  13    7.86    0.99
   1   3  14   42.19    2.72
  -1  -3 -14   44.44    3.05
   1   3  14   44.78    2.24
  -1  -3 -15   -1.17    1.26
   1   3  15    1.25    0.85
   1   3  15   -0.14    0.49
  -1  -3 -16   16.05    2.16
   1   3  16   10.75    1.59
  -1  -3 -17   17.20    2.21
   1   3  17   20.83    2.22
   1   3  18    0.23    1.00
   1   4 -14   40.05    3.24
  -1  -4  14   37.88    3.25
   1   4 -13   31.08    2.80
  -1  -4  13   30.00    2.86
   1   4 -12   58.82    3.68
  -1  -4  12   55.85    3.69
   1   4 -11   46.84    3.77
  -1  -4  11   45.64    3.10
   1   4 -10   90.52    4.19
  -1  -4  10   91.51    4.32
   1   4  -9  234.40    7.11
  -1  -4   9  235.56    7.23
   1   4  -8  434.86   10.47
  -1  -4   8  422.44   10.55
   1   4  -8  434.20    7.83
   1   4  -8  425.91    7.82
   1   4  -7   12.00    1.37
   1   4  -7   12.28    0.69
  -1  -4   7   11.22    1.38
   1   4  -7    9.98    1.36
   1   4  -6   55.27    2.66
   1   4  -6   56.08    1.74
  -1  -4   6   53.28    2.69
   1   4  -6   61.04    2.84
   1   4  -6   53.23    1.35
   1   4  -5   35.10    2.00
   1   4  -5   37.37    1.42
  -1  -4   5   35.41    2.11
   1   4  -5   35.68    2.08
   1   4  -5   37.42    1.13
   1   4  -4    1.49    0.76
  -1  -4   4   -0.44    0.69
   1   4  -4    0.75    0.59
   1   4  -4    0.13    0.26
  -1  -4   3   62.66    2.53
   1   4  -3   63.68    2.53
   1   4  -2   53.43    1.28
  -1  -4   2   57.64    2.22
   1   4  -2   53.94    2.14
   1   4  -1    0.34    0.29
  -1  -4   1    0.44    0.34
  -1  -4   1    0.21    0.59
   1   4  -1    0.34    0.51
  -1  -4   0  387.67    7.38
   1   4   0  376.73    7.34
   1   4   0  402.60    7.78
  -1  -4   0  388.93    7.74
  -1  -4  -1   68.27    2.01
   1   4   1   66.58    1.98
  -1  -4  -1   66.67    1.99
   1   4   1   65.69    1.95
  -1  -4  -2  355.90    7.19
   1   4   2  351.94    7.16
  -1  -4  -2  356.70    6.77
   1   4   2  348.23    6.77
  -1  -4  -3   56.09    2.05
   1   4   3   53.73    1.99
  -1  -4  -3   57.24    1.73
   1   4   3   51.30    1.52
  -1  -4  -3   54.28    1.79
  -1  -4  -4  276.59    6.14
   1   4   4  273.00    6.10
   1   4   4  266.97    5.57
  -1  -4  -4  263.14    5.57
  -1  -4  -4  269.72    5.65
   1   4   4  272.36    5.68
   1   4   5  194.87    4.98
  -1  -4  -5  192.99    4.99
   1   4   5  201.08    4.50
   1   4   5  198.62    4.77
  -1  -4  -5  204.72    4.58
   1   4   5  194.48    4.55
  -1  -4  -6  313.26    7.34
   1   4   6  322.09    7.35
   1   4   6  319.77    6.95
   1   4   6  324.53    6.84
  -1  -4  -6  327.15    6.90
   1   4   6  319.58    6.89
   1   4   6  328.40    7.28
   1   4   7   27.76    1.66
  -1  -4  -7   28.68    1.71
   1   4   7   26.91    1.60
   1   4   7   23.50    1.37
  -1  -4  -7   25.82    1.46
   1   4   7   29.97    1.51
   1   4   7   25.42    1.40
  -1  -4  -8  319.88    7.70
   1   4   8  331.08    7.76
   1   4   8  321.12    7.70
   1   4   8  314.84    6.97
  -1  -4  -8  310.47    7.27
   1   4   8  329.02    7.39
   1   4   8  330.86    6.98
  -1  -4  -9   34.17    2.05
   1   4   9   35.82    2.06
   1   4   9   36.98    2.11
   1   4   9   34.90    1.63
  -1  -4  -9   33.97    1.89
   1   4   9   39.85    1.85
   1   4   9   37.60    1.96
   1   4   9   38.76    1.96
   1   4  10   35.55    2.17
   1   4  10   37.88    2.19
   1   4  10   34.94    1.62
  -1  -4 -10   33.53    2.00
   1   4  10   36.27    2.04
   1   4  10   38.88    1.95
   1   4  10   35.78    1.95
   1   4  11    9.35    1.18
   1   4  11   10.11    0.87
   1   4  11    9.65    1.11
   1   4  11    9.52    1.04
  -1  -4 -11    9.64    1.19
   1   4  11    9.81    1.14
   1   4  12   28.71    2.03
   1   4  12   29.84    1.42
   1   4  12   29.96    1.95
   1   4  12   30.72    1.87
  -1  -4 -12   30.54    2.30
  -1  -4 -13    1.23    0.94
   1   4  13    1.23    0.37
   1   4  13   -0.11    0.59
   1   4  13    1.30    0.60
  -1  -4 -14   28.75    2.44
   1   4  14   22.96    1.09
   1   4  14   21.05    1.83
   1   4  14   21.23    1.63
   1   4  15    0.01    0.69
   1   4  15   -0.15    0.49
   1   4  16   21.96    2.04
   1   4  17    0.80    1.01
   1   4  18   62.56    3.78
   1   5 -13   21.56    2.45
  -1  -5  13   18.36    2.30
   1   5 -12   49.65    3.49
  -1  -5  12   49.19    3.53
   1   5 -11  136.73    5.66
  -1  -5  11  128.73    5.64
   1   5 -10  164.38    6.11
  -1  -5  10  168.79    6.30
   1   5  -9  103.47    4.39
  -1  -5   9   92.56    4.30
   1   5  -9   91.05    1.97
   1   5  -9   87.66    1.97
   1   5  -8  272.20    7.89
   1   5  -8  286.34    5.70
  -1  -5   8  276.23    8.05
   1   5  -7   -0.16    0.79
   1   5  -7    0.57    0.34
  -1  -5   7    0.27    0.82
   1   5  -7    0.10    0.20
   1   5  -6  172.87    5.40
   1   5  -6  170.88    4.09
  -1  -5   6  168.99    5.48
   1   5  -6  178.92    5.61
   1   5  -6  167.34    3.65
   1   5  -5    1.44    0.80
   1   5  -5    1.00    0.43
   1   5  -5    0.24    0.60
  -1  -5   5    0.81    0.76
   1   5  -5    1.71    0.37
  -1  -5   4    0.64    0.73
   1   5  -4    0.57    0.67
   1   5  -4   -0.17    0.38
  -1  -5   3    0.31    0.72
   1   5  -3   -0.28    0.56
   1   5  -3    0.17    0.39
  -1  -5   2    3.73    0.40
   1   5  -2    3.99    0.39
  -1  -5   2    5.04    0.90
   1   5  -2    5.15    0.85
   1   5  -1   45.83    1.45
  -1  -5   1   46.45    1.48
   1   5  -1   46.86    1.99
  -1  -5   1   45.99    1.96
  -1  -5   0   46.10    1.58
   1   5   0   42.57    1.53
  -1  -5   0   45.33    1.83
   1   5   0   46.03    1.83
   1   5   1   84.65    2.47
  -1  -5  -1   90.12    2.55
   1   5   1   84.89    2.50
  -1  -5  -1   84.72    2.49
   1   5   2    0.76    0.52
  -1  -5  -2    0.52    0.61
  -1  -5  -2    0.11    0.42
   1   5   2    0.27    0.36
   1   5   3   97.98    2.96
  -1  -5  -3   99.88    3.00
  -1  -5  -3   93.23    2.66
  -1  -5  -3   92.33    2.36
   1   5   3   94.64    2.38
  -1  -5  -3   95.20    2.65
   1   5   4   25.71    1.48
  -1  -5  -4   26.45    1.58
   1   5   4   26.38    1.54
  -1  -5  -4   25.03    1.25
  -1  -5  -4   26.70    1.27
   1   5   4   25.59    1.01
  -1  -5  -5  316.19    7.26
   1   5   5  318.86    7.29
   1   5   5  329.49    7.20
   1   5   5  318.92    6.72
  -1  -5  -5  313.63    6.70
  -1  -5  -5  323.33    6.64
   1   5   5  307.96    6.11
   1   5   5  315.52    6.65
  -1  -5  -6  388.48    8.66
   1   5   6  395.75    8.66
   1   5   6  379.65    8.34
   1   5   6  386.32    8.04
  -1  -5  -6  385.85    7.95
   1   5   6  378.02    7.97
  -1  -5  -7   48.97    2.36
   1   5   7   51.10    2.36
   1   5   7   47.15    2.10
   1   5   7   48.13    1.98
  -1  -5  -7   47.55    2.01
   1   5   7   45.92    1.95
   1   5   7   51.15    2.32
   1   5   8  626.54   12.88
  -1  -5  -8  601.66   12.81
   1   5   8  625.82   12.80
   1   5   8  591.76   12.14
   1   5   8  584.03   12.12
   1   5   8  606.76   12.16
  -1  -5  -8  600.88   12.09
   1   5   9    0.25    0.58
   1   5   9    0.18    0.46
  -1  -5  -9   -0.70    0.76
   1   5   9    0.63    0.53
   1   5   9    0.62    0.50
   1   5   9    1.15    0.46
   1   5   9    0.19    0.48
  -1  -5  -9    0.64    0.56
   1   5  10  110.79    4.09
   1   5  10  114.34    4.17
  -1  -5 -10  113.69    4.17
   1   5  10  110.64    3.79
   1   5  10  106.55    3.42
   1   5  10  108.52    3.41
  -1  -5 -10  108.37    3.73
   1   5  10  109.14    3.75
   1   5  10  116.04    3.88
   1   5  11   13.66    1.44
  -1  -5 -11   13.24    1.44
   1   5  11   13.46    1.31
   1   5  11   13.45    1.14
   1   5  11   11.72    1.14
   1   5  11   14.41    1.39
   1   5  11   13.13    1.29
  -1  -5 -11   12.86    1.32
   1   5  12   46.93    2.10
   1   5  12   46.23    2.34
   1   5  12   47.16    2.55
   1   5  12   49.95    2.52
   1   5  13   10.91    1.00
   1   5  13    9.98    1.22
   1   5  13    8.59    1.14
   1   5  14    7.05    0.78
   1   5  14    7.15    1.12
   1   5  14    8.15    1.15
   1   5  15    5.56    1.03
   1   5  15    3.07    0.79
   1   5  16    3.95    0.91
   1   5  16    2.61    0.73
   1   5  17    8.56    1.38
   1   5  18   72.25    4.26
  -1  -6  13   73.81    4.62
   1   6 -12    1.65    1.08
  -1  -6  12   -0.21    1.12
   1   6 -11  108.18    5.17
  -1  -6  11  115.89    5.49
   1   6 -10  112.05    5.04
  -1  -6  10  104.37    5.02
   1   6  -9  311.88    9.09
   1   6  -9  317.17    6.24
  -1  -6   9  308.47    9.22
   1   6  -8  215.00    6.89
   1   6  -8  230.85    4.92
  -1  -6   8  217.45    7.08
   1   6  -8  205.82    4.28
   1   6  -7   13.57    1.60
   1   6  -7   12.36    0.90
  -1  -6   7   12.31    1.56
   1   6  -7   11.52    0.73
   1   6  -6   75.71    3.46
   1   6  -6   74.10    2.50
  -1  -6   6   70.09    3.42
   1   6  -6   72.04    2.15
   1   6  -5   23.48    1.87
   1   6  -5   22.33    1.33
  -1  -6   5   22.11    1.84
   1   6  -5   21.09    1.79
   1   6  -5   21.62    1.10
   1   6  -4    7.41    1.11
  -1  -6   4    4.53    0.91
   1   6  -4    5.76    0.73
  -1  -6   3   19.12    1.57
   1   6  -3   16.35    1.43
   1   6  -3   20.20    1.30
   1   6  -2   72.76    1.96
  -1  -6   2   71.29    1.96
   1   6  -2   74.17    2.93
  -1  -6   2   76.82    2.92
   1   6  -2   79.39    2.75
   1   6  -1    5.84    0.57
  -1  -6   1    7.01    0.64
  -1  -6   1    6.92    0.96
   1   6  -1    5.84    0.87
   1   6  -1    8.94    0.96
  -1  -6   0   83.86    2.47
   1   6   0   80.98    2.44
   1   6   0   82.49    2.79
  -1  -6   0   85.58    2.81
   1   6   0   84.77    2.99
  -1  -6  -1   50.69    1.92
   1   6   1   45.81    1.84
   1   6   1   49.19    1.93
  -1  -6  -1   50.67    1.94
   1   6   1   54.40    2.29
  -1  -6  -2   34.06    1.66
   1   6   2   35.29    1.67
   1   6   2   38.14    1.95
   1   6   2   33.55    1.46
  -1  -6  -2   36.13    1.49
  -1  -6  -3  423.24    8.89
   1   6   3  411.64    8.83
  -1  -6  -3  417.60    8.62
   1   6   3  428.81    9.17
   1   6   3  411.67    8.12
  -1  -6  -3  411.00    8.08
  -1  -6  -3  427.68    8.46
   1   6   4  197.17    5.11
  -1  -6  -4  197.89    5.12
   1   6   4  201.92    5.27
  -1  -6  -4  196.21    4.76
   1   6   4  189.89    4.14
  -1  -6  -4  196.48    4.57
   1   6   5  726.07   14.10
  -1  -6  -5  695.51   14.04
   1   6   5  715.62   14.08
  -1  -6  -5  683.09   13.39
  -1  -6  -5  706.94   13.19
   1   6   5  684.72   12.58
  -1  -6  -6  185.27    5.22
   1   6   6  193.81    5.28
  -1  -6  -6  184.36    4.70
   1   6   6  188.66    4.73
   1   6   6  189.41    5.14
   1   6   6  180.74    3.90
  -1  -6  -6  186.99    4.50
   1   6   6  180.60    4.52
   1   6   7   91.63    3.46
  -1  -6  -7   90.00    3.45
   1   6   7   93.61    3.31
   1   6   7   95.36    3.08
  -1  -6  -7   91.60    2.87
   1   6   7   90.64    2.91
   1   6   8   44.08    2.37
  -1  -6  -8   36.90    2.23
   1   6   8   39.98    1.96
   1   6   8   37.99    2.03
   1   6   8   41.52    1.91
  -1  -6  -8   39.49    1.84
   1   6   8   43.68    2.27
   1   6   9   41.26    2.37
  -1  -6  -9   37.55    2.28
   1   6   9   40.36    2.29
   1   6   9   39.04    1.61
   1   6   9   41.63    2.02
  -1  -6  -9   40.78    1.96
   1   6   9   38.14    1.99
   1   6   9   39.08    2.06
  -1  -6 -10   80.78    3.56
   1   6  10   90.46    3.72
   1   6  10   85.28    3.17
   1   6  10   80.84    3.18
   1   6  10   84.58    3.15
  -1  -6 -10   82.12    3.09
   1   6  10   82.61    2.70
  -1  -6 -11    1.31    0.76
   1   6  11   -0.20    0.56
   1   6  11    0.64    0.53
   1   6  11    0.78    0.55
   1   6  11    1.68    0.71
  -1  -6 -11    2.25    0.72
  -1  -6 -12   13.70    1.58
   1   6  12   14.45    1.27
   1   6  12   16.94    1.56
   1   6  12   15.40    1.28
   1   6  12   15.95    1.48
   1   6  12   13.99    1.45
  -1  -6 -12   16.25    1.53
   1   6  13   65.52    2.72
   1   6  13   58.50    3.07
   1   6  13   63.15    2.74
   1   6  13   60.37    3.02
   1   6  14   17.68    1.38
   1   6  14   11.97    1.47
   1   6  14   16.27    1.49
   1   6  14   16.48    1.59
   1   6  15   33.16    1.81
   1   6  15   30.71    2.40
   1   6  15   31.24    2.12
   1   6  15   28.80    2.15
   1   6  16   42.78    3.00
   1   6  16   50.04    2.79
   1   6  16   53.90    2.95
   1   6  17   17.53    1.99
   1   6  18    8.79    1.53
   1   6  19   43.15    3.35
   1   7 -12   31.63    3.05
  -1  -7  12   35.47    3.25
   1   7 -11   73.34    4.37
  -1  -7  11   80.37    4.65
   1   7 -10   66.59    3.93
  -1  -7  10   66.35    4.04
   1   7  -9  140.54    5.73
  -1  -7   9  143.68    5.91
   1   7  -8  227.69    7.45
   1   7  -8  248.61    5.53
  -1  -7   8  244.20    7.79
   1   7  -8  222.65    4.88
   1   7  -7   19.53    2.00
   1   7  -7   22.38    1.35
  -1  -7   7   23.65    2.17
   1   7  -7   22.01    1.15
   1   7  -6   38.33    2.59
   1   7  -6   37.06    1.82
  -1  -7   6   40.66    2.67
   1   7  -6   36.81    1.60
   1   7  -5   33.69    2.35
   1   7  -5   32.22    1.75
  -1  -7   5   32.44    2.29
   1   7  -5   32.53    1.53
  -1  -7   4    0.66    0.84
   1   7  -4    2.23    0.83
   1   7  -4    1.23    0.57
   1   7  -3    1.23    0.65
  -1  -7   3    1.44    0.75
   1   7  -3    1.52    0.65
   1   7  -2   57.18    1.84
  -1  -7   2   62.02    1.90
  -1  -7   2   59.11    2.69
   1   7  -2   65.02    2.82
   1   7  -2   59.82    2.53
  -1  -7   1   39.76    1.58
   1   7  -1   36.98    1.52
   1   7  -1   39.41    2.08
  -1  -7   1   39.83    2.09
   1   7  -1   42.16    2.11
   1   7   0   57.98    2.12
  -1  -7   0   63.13    2.18
  -1  -7   0   61.84    2.46
   1   7   0   60.64    2.47
   1   7   0   60.98    2.59
   1   7   1  214.87    5.29
  -1  -7  -1  225.80    5.34
   1   7   1  222.47    5.41
  -1  -7  -1  218.21    5.36
   1   7   1  229.62    5.93
   1   7   2  108.20    3.38
  -1  -7  -2  107.43    3.35
  -1  -7  -2  110.66    3.12
   1   7   2  105.55    3.10
   1   7   2  114.62    3.78
   1   7   3   70.01    2.67
  -1  -7  -3   69.39    2.66
  -1  -7  -3   67.21    2.57
   1   7   3   75.71    2.99
  -1  -7  -3   70.19    2.20
   1   7   3   68.41    2.21
   1   7   4   83.31    3.06
  -1  -7  -4   78.01    2.99
  -1  -7  -4   81.32    2.81
   1   7   4   89.31    3.29
   1   7   4   78.43    2.29
  -1  -7  -4   80.72    2.27
  -1  -7  -4   83.69    2.62
  -1  -7  -5  441.98   10.01
   1   7   5  461.57   10.11
  -1  -7  -5  457.55    9.19
   1   7   5  450.12    8.58
  -1  -7  -5  456.68    9.58
   1   7   5  463.36   10.20
  -1  -7  -6  173.11    5.17
   1   7   6  176.52    5.20
   1   7   6  178.32    5.18
  -1  -7  -6  171.23    4.66
   1   7   6  173.61    3.72
  -1  -7  -6  173.40    4.35
  -1  -7  -7  673.68   14.28
   1   7   7  720.25   14.45
  -1  -7  -7  684.80   13.59
   1   7   7  678.66   13.56
   1   7   7  667.14   14.03
   1   7   7  667.54   12.20
  -1  -7  -7  680.24   13.11
   1   7   7  664.30   13.16
  -1  -7  -8   37.76    2.30
   1   7   8   41.67    2.38
   1   7   8   34.91    1.93
   1   7   8   34.18    2.06
  -1  -7  -8   36.96    1.77
   1   7   8   37.92    1.31
   1   7   8   34.26    1.73
  -1  -7  -9  160.93    5.32
   1   7   9  164.62    5.33
   1   7   9  164.23    4.80
   1   7   9  152.36    4.86
  -1  -7  -9  155.85    4.40
   1   7   9  159.35    3.72
   1   7   9  156.74    4.46
   1   7   9  169.04    5.30
  -1  -7 -10   74.80    3.55
   1   7  10   82.99    3.08
   1   7  10   81.57    2.46
  -1  -7 -10   78.49    2.96
   1   7  10   81.16    3.23
   1   7  10   76.37    3.21
  -1  -7 -11   24.12    2.05
  -1  -7 -11   28.44    1.81
   1   7  11   28.39    1.45
   1   7  11   27.61    1.81
   1   7  11   28.73    1.92
   1   7  11   29.08    1.97
  -1  -7 -12   25.82    2.19
   1   7  12   24.07    1.76
   1   7  12   22.92    1.80
   1   7  12   26.94    1.85
  -1  -7 -12   24.46    1.81
   1   7  12   25.05    1.49
  -1  -7 -13   17.26    1.86
   1   7  13   18.13    1.69
   1   7  13   18.27    1.55
   1   7  13   18.39    1.39
   1   7  13   16.80    1.72
  -1  -7 -13   18.10    1.59
   1   7  14    0.85    0.90
   1   7  14    0.95    0.70
   1   7  14    0.02    0.55
   1   7  14   -0.87    0.80
   1   7  15   47.98    2.98
   1   7  15   48.71    2.48
   1   7  15   45.08    2.38
   1   7  15   45.28    2.85
   1   7  16   73.19    3.90
   1   7  16   70.85    3.63
   1   7  17    5.28    1.25
   1   7  17    6.76    1.21
   1   7  18   55.23    3.58
   1   7  19    8.72    1.67
   1   8 -11   91.30    5.03
  -1  -8  11   85.93    5.02
   1   8 -10   83.96    4.65
  -1  -8  10   85.31    4.81
   1   8  -9   51.13    3.46
  -1  -8   9   46.08    3.37
   1   8  -8   90.29    4.53
   1   8  -8   94.54    3.11
  -1  -8   8   95.26    4.73
   1   8  -7    7.20    1.48
   1   8  -7    8.11    0.94
  -1  -8   7    7.63    1.38
   1   8  -7    7.48    0.80
   1   8  -6   64.99    3.52
   1   8  -6   62.39    2.62
  -1  -8   6   65.61    3.56
   1   8  -6   63.40    2.38
   1   8  -5   83.58    3.15
  -1  -8   5   85.14    3.91
   1   8  -5   81.47    2.83
  -1  -8   4  150.10    5.21
   1   8  -4  144.01    4.48
  -1  -8   3    1.65    0.37
  -1  -8   3    0.54    0.77
   1   8  -3    1.32    0.68
   1   8  -3    0.40    0.52
   1   8  -2   78.68    2.44
  -1  -8   2   89.11    2.54
  -1  -8   2   82.08    3.39
   1   8  -2   86.41    3.52
   1   8  -2   89.24    3.34
   1   8  -1   36.82    1.63
  -1  -8   1   38.63    1.66
  -1  -8   1   37.77    2.12
   1   8  -1   36.50    2.10
   1   8  -1   38.73    2.15
  -1  -8   0  140.76    3.85
   1   8   0  137.73    3.82
   1   8   0  139.71    4.31
  -1  -8   0  137.75    4.22
   1   8   0  136.30    4.46
   1   8   1    6.90    0.83
  -1  -8  -1    5.68    0.80
   1   8   1    6.25    0.87
  -1  -8  -1    7.78    0.90
   1   8   1    7.04    1.06
  -1  -8  -2  519.52   10.84
   1   8   2  513.46   10.85
  -1  -8  -2  522.71   10.50
   1   8   2  513.47   10.53
   1   8   2  510.45   11.43
   1   8   3   58.02    2.55
  -1  -8  -3   59.24    2.56
   1   8   3   63.66    2.88
   1   8   3   58.63    2.15
  -1  -8  -3   64.92    2.21
  -1  -8  -4  416.73    9.66
   1   8   4  430.94    9.73
  -1  -8  -4  435.06    9.49
   1   8   4  435.00   10.07
  -1  -8  -4  441.05    8.58
   1   8   4  421.43    8.57
  -1  -8  -4  438.26    9.03
  -1  -8  -5  151.86    4.75
   1   8   5  150.70    4.74
  -1  -8  -5  152.70    4.44
   1   8   5  156.57    4.93
   1   8   5  147.41    3.54
  -1  -8  -5  147.52    3.99
   1   8   6  174.54    5.26
  -1  -8  -6  167.92    5.19
   1   8   6  163.32    3.65
  -1  -8  -6  166.67    4.29
  -1  -8  -6  158.78    4.65
   1   8   6  167.64    5.22
  -1  -8  -7  126.69    4.57
   1   8   7  143.28    4.75
  -1  -8  -7  134.30    3.74
   1   8   7  133.81    2.98
  -1  -8  -7  130.42    4.14
   1   8   7  133.13    4.58
  -1  -8  -8  172.03    5.61
   1   8   8  180.35    5.52
   1   8   8  177.69    5.09
  -1  -8  -8  178.53    4.63
   1   8   8  173.52    3.67
  -1  -8  -9   49.16    2.83
   1   8   9   45.98    2.57
   1   8   9   51.20    2.50
   1   8   9   51.22    1.52
  -1  -8  -9   49.71    2.18
   1   8   9   52.24    1.54
   1   8   9   47.42    2.18
  -1  -8 -10   63.47    3.38
   1   8  10   72.42    3.11
   1   8  10   63.47    3.08
   1   8  10   69.71    1.98
   1   8  10   72.29    2.04
  -1  -8 -10   71.10    2.75
   1   8  10   65.14    2.72
  -1  -8 -11   13.37    1.62
   1   8  11   12.35    1.42
   1   8  11   13.75    1.46
   1   8  11   13.06    0.87
  -1  -8 -11   14.61    1.31
   1   8  11   11.25    1.17
  -1  -8 -12    0.91    0.91
   1   8  12    3.19    0.90
   1   8  12    0.12    0.65
   1   8  12    1.49    0.49
   1   8  12    0.73    0.55
  -1  -8 -12   -0.06    0.63
  -1  -8 -13   26.82    2.42
   1   8  13   23.33    1.87
   1   8  13   27.37    2.12
   1   8  13   29.25    1.51
  -1  -8 -13   24.91    1.87
   1   8  13   28.91    2.00
  -1  -8 -14   43.68    3.10
   1   8  14   51.22    2.74
   1   8  14   44.83    2.81
   1   8  14   49.43    2.14
   1   8  14   46.53    2.91
   1   8  15    1.96    0.83
   1   8  15    2.38    0.97
   1   8  15    2.23    0.90
   1   8  16   17.05    1.88
   1   8  16   16.51    1.85
   1   8  17    2.77    1.06
   1   8  17    1.39    0.86
   1   8  18   53.36    3.52
   1   8  19   23.44    2.52
   1   9 -10   35.91    3.22
  -1  -9  10   35.38    3.19
   1   9  -9   58.87    3.84
  -1  -9   9   51.56    3.74
   1   9  -8    9.85    1.70
  -1  -9   8    8.22    1.51
   1   9  -7   19.54    2.20
   1   9  -7   17.68    1.41
  -1  -9   7   17.13    2.04
   1   9  -6   77.41    4.06
   1   9  -6   78.25    3.14
  -1  -9   6   76.10    4.03
   1   9  -6   72.76    2.77
   1   9  -5    1.62    0.73
  -1  -9   5    2.62    1.03
   1   9  -5    1.08    0.58
   1   9  -4    0.48    0.53
  -1  -9   4    0.05    0.82
   1   9  -4   -0.20    0.53
  -1  -9   3   79.77    3.67
   1   9  -3   82.11    3.37
  -1  -9   2    0.97    0.44
   1   9  -2    1.55    0.75
  -1  -9   2    0.45    0.73
   1   9  -2    1.19    0.38
   1   9  -2    2.21    0.82
   1   9  -1   97.71    3.06
  -1  -9   1  101.02    3.12
   1   9  -1  103.33    3.91
  -1  -9   1   95.68    3.73
   1   9  -1  104.15    3.91
  -1  -9   0   20.77    1.37
   1   9   0   18.55    1.30
   1   9   0   23.03    1.69
  -1  -9   0   22.97    1.65
   1   9   0   20.02    1.67
  -1  -9  -1   56.16    2.38
   1   9   1   52.09    2.31
  -1  -9  -1   52.94    2.39
   1   9   1   51.69    2.42
   1   9   1   52.60    2.73
  -1  -9  -2   62.12    2.66
   1   9   2   65.48    2.71
  -1  -9  -2   63.73    2.52
   1   9   2   63.50    2.57
   1   9   2   66.96    3.11
  -1  -9  -3  104.65    3.69
   1   9   3  105.58    3.72
   1   9   3  100.44    3.97
   1   9   3   97.62    3.16
  -1  -9  -3  106.77    3.22
   1   9   4  529.40   11.70
  -1  -9  -4  518.41   11.60
  -1  -9  -4  550.99   11.60
   1   9   4  541.26   12.14
  -1  -9  -4  529.57   10.46
   1   9   4  513.62   10.46
  -1  -9  -4  536.04   10.92
   1   9   5  307.72    7.86
  -1  -9  -5  285.50    7.69
  -1  -9  -5  311.34    7.54
   1   9   5  304.70    8.06
   1   9   5  299.98    6.37
  -1  -9  -5  301.01    6.33
  -1  -9  -5  308.45    6.93
  -1  -9  -6   22.74    1.88
   1   9   6   25.07    1.93
   1   9   6   21.81    1.04
  -1  -9  -6   22.93    1.37
  -1  -9  -6   22.51    1.62
   1   9   6   22.90    1.88
  -1  -9  -7  121.90    4.57
  -1  -9  -7  119.34    3.59
   1   9   7  125.63    2.87
   1   9   7  127.97    4.65
  -1  -9  -7  125.53    4.17
  -1  -9  -8   33.74    2.37
   1   9   8   32.99    1.06
  -1  -9  -8   34.21    1.71
   1   9   8   37.66    2.43
  -1  -9  -8   33.44    2.05
  -1  -9  -9   11.94    1.48
   1   9   9   12.63    1.49
   1   9   9   16.58    1.52
   1   9   9   13.36    0.57
  -1  -9  -9   13.96    1.13
   1   9   9   12.52    0.58
  -1  -9 -10   63.39    3.45
   1   9  10   68.65    3.12
   1   9  10   62.68    3.19
   1   9  10   63.79    1.57
   1   9  10   61.84    1.54
  -1  -9 -10   60.29    2.53
   1   9  10   58.77    2.58
  -1  -9 -11    9.77    1.55
   1   9  11    9.16    1.29
   1   9  11    9.25    1.27
   1   9  11    8.37    0.53
   1   9  11    8.19    0.54
  -1  -9 -11    6.22    0.90
   1   9  11    7.30    0.96
  -1  -9 -12   14.56    1.80
   1   9  12   15.26    1.63
   1   9  12   15.36    1.65
   1   9  12   16.45    0.84
   1   9  12   14.80    0.79
   1   9  12   15.08    1.38
  -1  -9 -12   14.72    1.30
  -1  -9 -13   80.08    4.24
   1   9  13   79.39    3.73
   1   9  13   78.43    3.66
   1   9  13   79.42    2.31
  -1  -9 -13   79.83    3.33
   1   9  13   77.33    3.34
   1   9  14    5.31    1.09
   1   9  14    5.97    1.23
  -1  -9 -14    5.29    1.37
  -1  -9 -14    6.48    1.07
   1   9  15   32.60    2.37
   1   9  15   33.90    2.60
   1   9  15   33.58    2.68
   1   9  16    9.43    1.37
   1   9  16   11.33    1.69
   1   9  16    9.14    1.58
   1   9  17    9.64    1.62
   1   9  17   13.53    1.90
   1   9  18   39.71    3.06
   1  10  -9   72.45    4.49
  -1 -10   9   69.26    4.53
   1  10  -8    2.60    1.32
  -1 -10   8    0.34    0.94
   1  10  -7   48.49    3.50
  -1 -10   7   46.27    3.33
   1  10  -7   48.40    2.50
   1  10  -6   17.64    2.14
   1  10  -6   18.00    1.56
  -1 -10   6   17.14    2.05
   1  10  -5   -0.61    0.57
  -1 -10   5   -1.55    1.03
   1  10  -5    1.81    0.70
   1  10  -4    9.21    1.25
  -1 -10   4   12.83    1.74
   1  10  -4    7.84    1.07
  -1 -10   3   15.39    1.73
   1  10  -3   11.69    1.38
  -1 -10   2   55.26    2.12
   1  10  -2   47.42    2.02
  -1 -10   2   52.10    2.90
   1  10  -2   52.19    2.81
   1  10  -1   45.01    2.05
  -1 -10   1   49.80    2.16
   1  10  -1   48.23    2.68
  -1 -10   1   49.96    2.71
   1  10  -1   49.86    2.77
   1  10   0   47.12    2.22
  -1 -10   0   50.81    2.32
   1  10   0   54.98    2.75
  -1 -10   0   55.69    2.74
   1  10   0   50.52    2.81
  -1 -10  -1   54.48    2.49
   1  10   1   52.39    2.44
  -1 -10  -1   53.87    2.56
   1  10   1   56.90    2.64
   1  10   1   51.97    2.86
  -1 -10  -2   83.72    3.26
   1  10   2   77.76    3.22
   1  10   2   80.41    3.11
  -1 -10  -2   84.93    3.10
   1  10   2   80.43    3.63
  -1 -10  -3  188.02    5.53
   1  10   3  182.82    5.51
   1  10   3  190.60    6.07
   1  10   3  181.21    4.97
  -1 -10  -3  184.95    4.93
  -1 -10  -4  110.56    4.06
   1  10   4  107.01    4.05
   1  10   4  109.66    4.37
  -1 -10  -4  110.07    4.03
  -1 -10  -4  101.79    3.18
   1  10   4  103.57    3.26
  -1 -10  -4  105.78    3.51
  -1 -10  -5  177.92    5.67
   1  10   5  186.38    5.80
   1  10   5  189.43    6.07
  -1 -10  -5  178.37    5.47
  -1 -10  -5  176.50    4.38
   1  10   5  182.15    4.47
  -1 -10  -5  184.83    4.92
  -1 -10  -6   13.32    1.49
  -1 -10  -6   13.79    1.16
   1  10   6   14.92    0.93
   1  10   6   13.33    1.53
  -1 -10  -6   16.47    1.49
  -1 -10  -7  211.75    6.62
   1  10   7  211.76    6.69
  -1 -10  -7  206.44    6.08
   1  10   7  215.30    4.51
  -1 -10  -7  222.04    5.46
  -1 -10  -8    5.35    1.15
  -1 -10  -8    4.63    0.93
   1  10   8    6.17    1.19
   1  10   8    5.19    0.39
  -1 -10  -8    5.00    0.74
  -1 -10  -9   39.95    2.74
   1  10   9   46.24    2.85
  -1 -10  -9   44.94    2.55
  -1 -10  -9   43.62    2.04
   1  10  10    2.96    0.98
  -1 -10 -10    3.12    1.03
  -1 -10 -10    3.98    0.73
   1  10  11    2.54    0.95
   1  10  11    1.48    0.92
  -1 -10 -11    0.95    0.87
  -1 -10 -11    3.97    0.76
  -1 -10 -12   20.61    2.17
   1  10  12   23.54    2.12
   1  10  12   20.35    1.91
  -1 -10 -12   20.79    1.55
   1  10  12   19.11    1.56
  -1 -10 -13   40.30    3.07
   1  10  13   40.64    2.72
   1  10  13   41.20    2.79
  -1 -10 -13   46.27    2.41
   1  10  14    0.20    0.79
   1  10  14    2.02    1.01
  -1 -10 -14    1.90    1.24
  -1 -10 -14    1.18    0.72
   1  10  15    5.28    1.30
   1  10  15    6.10    1.23
  -1 -10 -15    7.98    1.67
   1  10  16   33.10    2.48
   1  10  16   26.94    2.44
   1  10  16   27.93    2.64
   1  10  17    9.00    1.63
   1  10  17    8.93    1.64
   1  10  18   13.38    1.99
   1  10  18   11.34    1.86
  -1 -11   8    1.12    1.21
   1  11  -7    7.15    1.60
  -1 -11   7    6.07    1.41
   1  11  -6    3.16    1.34
  -1 -11   6    6.23    1.48
   1  11  -6    4.77    1.04
  -1 -11   5   13.85    1.96
   1  11  -5   11.81    1.45
  -1 -11   4    3.12    1.18
   1  11  -4    2.75    0.86
  -1 -11   3   39.07    2.74
   1  11  -3   36.66    2.45
  -1 -11   2    1.92    0.58
  -1 -11   2    1.10    0.75
   1  11  -2    1.35    0.78
  -1 -11   1   10.27    1.08
  -1 -11   1    9.39    1.32
   1  11  -1    8.75    0.95
   1  11  -1   10.52    1.38
   1  11   0  198.84    5.64
  -1 -11   0  222.92    5.82
  -1 -11   0  213.79    6.31
   1  11   0  204.11    6.61
   1  11   1    0.32    0.59
  -1 -11  -1    0.45    0.59
   1  11   1   -0.38    0.59
  -1 -11  -1    0.25    0.61
   1  11   1    1.88    0.89
   1  11   2  168.60    5.27
  -1 -11  -2  171.60    5.28
  -1 -11  -2  170.20    5.06
   1  11   2  171.80    5.16
   1  11   2  168.89    5.90
  -1 -11  -3   64.83    3.06
   1  11   3   64.25    3.07
   1  11   3   64.10    3.44
  -1 -11  -3   68.23    2.75
   1  11   3   63.71    2.72
  -1 -11  -4  130.89    4.72
   1  11   4  134.01    5.20
  -1 -11  -4  129.84    3.89
   1  11   4  131.68    3.97
  -1 -11  -4  141.44    4.32
  -1 -11  -5   53.24    2.93
   1  11   5   52.97    3.15
  -1 -11  -5   51.49    2.07
   1  11   5   56.61    2.19
  -1 -11  -5   54.57    2.45
  -1 -11  -6    8.11    1.26
   1  11   6    8.67    1.38
   1  11   6    8.69    0.77
  -1 -11  -6    7.33    0.88
  -1 -11  -7   95.65    4.29
   1  11   7  109.33    4.66
  -1 -11  -7  108.53    3.49
   1  11   7  107.18    2.73
  -1 -11  -8    3.54    1.04
   1  11   8    2.41    0.96
   1  11   8    4.12    0.34
  -1 -11  -8    4.13    0.69
   1  11   9    0.75    0.78
  -1 -11  -9   -0.99    0.94
  -1 -11  -9    0.21    0.44
   1  11  10    3.93    1.16
  -1 -11 -10    2.52    1.10
  -1 -11 -10    2.92    0.65
   1  11  11    1.46    1.03
  -1 -11 -11    2.44    1.18
  -1 -11 -11    1.07    0.57
   1  11  12    6.09    1.29
  -1 -11 -12    6.87    1.49
  -1 -11 -12    6.66    0.97
  -1 -11 -13   68.68    4.11
  -1 -11 -13   60.11    2.77
   1  11  13   59.88    3.38
   1  11  13   52.51    3.33
   1  11  14   26.05    2.38
   1  11  14   24.29    2.26
  -1 -11 -14   29.46    2.78
   1  11  15   15.51    1.97
   1  11  15   17.67    2.05
  -1 -11 -15   15.54    2.15
   1  11  16  100.42    4.69
   1  11  16   98.68    4.78
   1  11  16   89.78    4.82
   1  11  17   -0.68    1.04
   1  11  17    4.43    1.47
   1  11  18   32.99    2.98
   1  11  18   25.87    2.76
   1  12  -6    2.82    1.35
  -1 -12   6    1.55    0.94
  -1 -12   5    1.06    1.33
   1  12  -5    0.35    0.68
  -1 -12   4    4.57    1.42
   1  12  -4    3.92    1.04
  -1 -12   3    0.68    0.84
   1  12  -3   -0.85    0.84
  -1 -12   2   46.16    2.99
   1  12  -2   38.34    2.71
  -1 -12   1  112.88    3.79
  -1 -12   1  115.79    4.68
   1  12  -1  111.86    4.77
  -1 -12   0   67.68    2.92
   1  12   0   54.83    2.87
  -1 -12   0   61.05    3.17
   1  12   0   58.91    3.38
   1  12   1   32.17    2.09
  -1 -12  -1   33.29    2.13
  -1 -12  -1   31.18    2.15
   1  12   1   37.67    2.70
   1  12   2   54.51    2.86
  -1 -12  -2   57.72    2.89
  -1 -12  -2   55.61    2.75
   1  12   2   59.64    2.85
   1  12   2   56.34    3.32
  -1 -12  -3   27.29    2.07
   1  12   3   31.76    2.55
   1  12   3   26.13    1.78
  -1 -12  -3   29.83    1.85
  -1 -12  -4   14.07    1.55
   1  12   4   13.12    1.70
  -1 -12  -4   13.65    1.19
   1  12   4   11.16    1.15
  -1 -12  -4   14.23    1.36
  -1 -12  -5   63.43    3.34
   1  12   5   65.11    3.70
   1  12   5   65.03    2.50
  -1 -12  -5   68.80    2.54
  -1 -12  -5   63.03    2.80
  -1 -12  -6   14.86    1.70
   1  12   6   17.65    2.02
   1  12   6   16.63    1.10
  -1 -12  -6   19.37    1.46
  -1 -12  -7    6.74    1.26
   1  12   7    7.35    1.40
   1  12   7    9.35    0.74
  -1 -12  -7   10.34    1.06
  -1 -12  -8   15.21    1.84
   1  12   8   18.75    2.07
  -1 -12  -8   16.24    1.30
   1  12   9   12.87    1.77
  -1 -12  -9   12.55    1.78
  -1 -12  -9   11.18    1.08
   1  12  10   -0.01    0.86
  -1 -12 -10    0.65    0.92
  -1 -12 -10    1.05    0.50
  -1 -12 -11   44.62    3.25
   1  12  11   42.89    3.10
  -1 -12 -11   43.32    2.14
   1  12  12    0.59    0.90
  -1 -12 -12    1.30    0.96
  -1 -12 -12    1.53    0.54
  -1 -12 -13   38.73    3.18
   1  12  13   41.68    3.11
  -1 -12 -14    3.68    1.43
   1  12  14    3.32    1.44
  -1 -12 -15   -0.10    1.13
   1  12  15   -0.61    1.06
   1  12  15    1.05    1.07
   1  12  16   25.89    2.51
   1  12  16   29.66    2.70
   1  12  17    2.20    1.10
  -1 -13   5    6.77    1.56
  -1 -13   4    0.89    1.08
   1  13  -4   -0.29    0.93
  -1 -13   3   67.64    3.95
   1  13  -3   65.19    3.68
  -1 -13   2   26.61    2.40
   1  13  -2   21.94    2.18
  -1 -13   1  167.13    4.93
  -1 -13   1  139.13    5.57
   1  13  -1  159.59    6.07
  -1 -13   0   12.47    1.40
  -1 -13   0   10.05    1.39
   1  13   0    9.92    1.63
  -1 -13  -1  106.36    4.09
  -1 -13  -1  102.95    4.24
   1  13   1  100.01    4.73
  -1 -13  -2   42.58    2.59
  -1 -13  -2   39.35    2.42
   1  13   2   38.61    2.95
  -1 -13  -3   34.48    2.39
   1  13   3   33.07    2.74
  -1 -13  -3   30.14    2.00
   1  13   3   31.84    2.13
  -1 -13  -4   -0.50    0.81
   1  13   4   -0.48    0.91
  -1 -13  -4   -0.30    0.48
  -1 -13  -4    2.43    0.80
  -1 -13  -5   22.47    2.07
   1  13   5   22.38    2.32
  -1 -13  -5   20.79    1.45
  -1 -13  -5   19.64    1.64
   1  13   6   14.75    1.93
  -1 -13  -6   12.41    1.68
  -1 -13  -6   13.86    1.34
  -1 -13  -7   60.00    3.62
   1  13   7   67.69    3.94
  -1 -13  -7   67.26    2.83
   1  13   8    1.54    1.07
  -1 -13  -8    1.91    1.05
  -1 -13  -8    0.49    0.51
  -1 -13  -9   29.38    2.61
  -1 -13  -9   28.40    1.71
   1  13   9   28.35    2.65
  -1 -13 -10    6.70    1.54
   1  13  10    6.53    1.44
  -1 -13 -11   19.87    2.40
   1  13  11   21.24    2.35
  -1 -13 -12   15.76    2.21
   1  13  12   15.24    2.02
  -1 -13 -13   39.84    3.35
   1  13  13   34.47    2.94
   1  13  14    4.67    1.36
   1  13  15   23.09    2.51
   1  13  16    1.42    1.13
  -1 -14   4    2.70    1.16
   1  14  -4    1.53    1.05
  -1 -14   3   33.72    2.89
   1  14  -3   35.74    2.88
  -1 -14   2    3.13    1.14
   1  14  -2    3.72    1.33
  -1 -14   1   27.14    2.39
   1  14  -1   22.25    2.38
  -1 -14   0    2.29    1.04
   1  14   0    2.99    1.19
  -1 -14  -1   17.98    1.68
  -1 -14  -1   18.45    1.84
   1  14   1   20.78    2.32
  -1 -14  -2   55.32    3.07
  -1 -14  -2   53.00    2.98
   1  14   2   53.72    3.58
  -1 -14  -3   14.69    1.68
   1  14   3   17.93    2.25
  -1 -14  -3   18.41    1.68
  -1 -14  -4   65.21    3.58
   1  14   4   66.46    4.05
  -1 -14  -4   64.11    2.91
  -1 -14  -4   62.80    3.13
   1  14   5   45.74    3.43
  -1 -14  -5   44.86    3.02
  -1 -14  -5   47.12    2.59
   1  14   6    4.92    1.51
  -1 -14  -6    5.70    1.28
  -1 -14  -6    3.76    0.79
  -1 -14  -7   31.41    2.65
  -1 -14  -7   30.85    1.93
   1  14   7   30.77    2.80
  -1 -14  -8   -0.44    1.01
   1  14   8    0.85    1.06
  -1 -14  -9   17.02    2.25
   1  14   9   13.18    1.95
  -1 -14 -10    3.74    1.30
   1  14  10    2.60    1.17
  -1 -14 -11   -0.97    1.04
   1  14  11    1.76    1.42
  -1 -14 -12    2.15    1.20
   1  14  12    0.50    0.99
   1  14  13    5.65    1.57
   1  14  14   14.91    2.12
  -1 -15   3   19.93    2.27
   1  15  -3   24.29    2.52
  -1 -15   2    8.54    1.56
   1  15  -2    9.57    1.88
  -1 -15   1   10.13    1.72
   1  15  -1    8.34    1.63
  -1 -15   0   16.43    2.01
   1  15   0   15.69    2.06
  -1 -15  -1    0.99    0.79
   1  15   1    1.09    1.11
  -1 -15  -2   28.32    2.29
  -1 -15  -2   27.41    2.20
   1  15   2   30.22    2.88
  -1 -15  -3    1.03    0.80
   1  15   3   -0.44    1.12
  -1 -15  -4   92.22    4.42
   1  15   4   90.85    4.95
  -1 -15  -5   38.19    3.03
   1  15   5   42.79    3.41
  -1 -15  -6   17.31    2.14
   1  15   6   24.66    2.69
  -1 -15  -7    2.86    1.21
   1  15   7    3.43    1.35
  -1 -15  -8    3.51    1.28
   1  15   8    2.02    1.26
  -1 -15  -9   15.37    2.07
   1  15   9    6.16    1.71
  -1 -15 -10    0.49    1.06
   1  15  10    1.96    1.31
  -1 -15 -11   10.65    1.99
  -1 -16  -4   37.75    2.94
  -1 -16  -5   28.11    2.67
  -1 -16  -6    7.51    1.69
  -1 -16  -7    0.09    0.94
  -1 -16  -8   -0.52    1.20
  -1 -16  -9    8.10    1.57
  -1 -17  -5   24.84    2.57
  -1 -17  -6    4.57    1.28
  -1 -17  -7   21.12    2.45
   2 -15  -7    0.41    1.15
   2 -15  -6   10.66    1.88
   2 -15  -5    0.50    1.02
   2 -15  -4    2.38    1.15
   2 -15  -3   -0.19    1.00
   2 -14  -9    0.82    0.94
   2 -14  -8   -2.23    1.27
   2 -14  -7    1.96    0.96
  -2  14   7    0.40    1.23
   2 -14  -6    3.97    1.39
  -2  14   6    0.90    1.04
   2 -14  -5    0.91    1.12
  -2  14   5    0.19    1.06
   2 -14  -4   -0.04    0.96
  -2  14   4    0.80    1.14
   2 -14  -3   15.67    2.04
  -2  14   3   22.84    2.62
   2 -14  -2    8.27    1.57
  -2  14   2    5.68    1.39
   2 -14  -1   40.25    2.91
  -2  14   1   42.09    3.39
  -2  14   0    8.19    1.70
  -2  14  -1   14.32    2.05
  -2  14  -2   -0.14    1.06
  -2  13  12    0.19    1.13
   2 -13 -11   12.86    2.08
  -2  13  11   13.77    2.14
   2 -13 -10    1.74    1.20
  -2  13  10    2.32    1.14
   2 -13  -9    1.86    1.04
  -2  13   9    4.00    1.29
   2 -13  -8    5.02    1.45
  -2  13   8    3.85    1.27
   2 -13  -7    5.98    1.45
  -2  13   7    4.60    1.36
   2 -13  -6   32.63    2.83
  -2  13   6   29.09    2.81
   2 -13  -5    2.08    1.05
  -2  13   5    3.58    1.27
   2 -13  -4   21.50    2.27
  -2  13   4   22.37    2.45
   2 -13  -3    3.67    1.21
  -2  13   3    1.95    1.21
   2 -13  -2   45.83    3.06
  -2  13   2   49.05    3.55
   2 -13  -1   10.93    1.57
   2 -13  -1    7.74    1.24
  -2  13   1    6.34    1.50
   2 -13   0    9.28    1.50
   2 -13   0    9.24    1.44
  -2  13   0    8.47    1.68
   2 -13   1  141.23    5.66
  -2  13  -1  149.52    6.22
   2 -13   2    0.14    1.04
  -2  13  -2    0.52    1.14
   2 -13   3   24.54    2.53
  -2  13  -3   23.88    2.44
   2 -13   4    0.40    1.00
  -2  12  15   15.90    2.19
  -2  12  14   10.02    1.87
  -2  12  13    3.55    1.29
   2 -12 -12   18.83    2.35
  -2  12  12   12.61    1.85
   2 -12 -11   23.08    2.54
  -2  12  11   18.29    2.24
   2 -12 -10   23.21    2.48
  -2  12  10   24.74    2.53
   2 -12  -9    0.08    0.97
  -2  12   9    0.69    1.10
   2 -12  -8   19.70    2.26
  -2  12   8   22.29    2.44
   2 -12  -7    0.36    0.90
  -2  12   7    2.32    1.36
   2 -12  -6    6.22    1.33
  -2  12   6    4.34    1.36
   2 -12  -5   49.56    3.27
  -2  12   5   44.05    3.24
   2 -12  -4   12.18    1.71
   2 -12  -4   13.21    1.10
  -2  12   4   10.98    1.74
   2 -12  -3    3.54    1.02
   2 -12  -3    3.09    0.72
  -2  12   3    3.28    1.15
   2 -12  -2   91.91    4.22
   2 -12  -2   96.70    3.74
  -2  12   2   93.63    4.72
   2 -12  -1    2.21    1.04
   2 -12  -1    2.03    0.72
  -2  12   1    0.34    0.91
   2 -12   0   48.46    2.91
   2 -12   0   42.94    2.76
  -2  12   0   42.41    3.09
   2 -12   1    9.67    1.30
   2 -12   1    8.25    1.39
  -2  12  -1   11.63    1.76
   2 -12   2  116.26    4.36
   2 -12   2  110.78    4.94
  -2  12  -2  100.37    4.86
   2 -12   3    2.69    1.17
  -2  12  -3    3.24    1.16
   2 -12   4    1.56    1.12
  -2  12  -4    2.85    1.13
   2 -12   5   18.23    2.25
  -2  11  16   59.55    3.84
  -2  11  15    4.13    1.46
  -2  11  15    9.38    1.74
   2 -11 -14   11.33    2.05
  -2  11  14    8.43    1.72
  -2  11  14    8.54    1.61
   2 -11 -13   35.22    3.12
  -2  11  13   34.39    2.98
  -2  11  13   29.29    2.69
   2 -11 -12   15.46    2.16
  -2  11  12   13.68    1.95
   2 -11 -11    0.44    1.24
  -2  11  11    0.49    1.01
   2 -11 -10    0.93    0.92
  -2  11  10   -0.12    1.02
   2 -11  -9   -0.54    0.91
  -2  11   9    0.04    0.96
   2 -11  -8   18.86    2.05
  -2  11   8   18.44    2.07
   2 -11  -7   24.28    2.30
  -2  11   7   24.90    2.39
   2 -11  -6    2.96    1.05
  -2  11   6    3.18    1.19
   2 -11  -5   29.39    2.41
  -2  11   5   28.10    2.49
   2 -11  -5   30.18    1.10
   2 -11  -5   26.15    1.23
   2 -11  -4   22.01    2.04
  -2  11   4   23.11    2.26
   2 -11  -4   21.75    1.33
   2 -11  -4   18.93    1.12
   2 -11  -3   23.64    2.08
   2 -11  -3   17.97    1.36
  -2  11   3   19.37    2.15
   2 -11  -2   38.69    2.61
   2 -11  -2   40.14    2.23
  -2  11   2   36.96    2.77
   2 -11  -1   60.08    3.19
   2 -11  -1   62.50    2.98
   2 -11  -1   56.69    2.60
  -2  11   1   60.78    3.53
   2 -11   0   78.90    3.60
   2 -11   0   82.95    3.71
   2 -11   0   84.07    3.41
  -2  11   0   77.83    4.05
   2 -11   1   18.07    1.61
   2 -11   1   18.55    1.82
  -2  11  -1   17.40    1.95
   2 -11   2   -0.03    0.66
   2 -11   2    1.00    0.89
  -2  11  -2    0.45    0.85
   2 -11   3   15.08    1.41
   2 -11   3   18.20    2.06
  -2  11  -3   15.86    1.82
   2 -11   4    0.42    0.90
  -2  11  -4    2.41    1.00
   2 -11   5   10.31    1.77
  -2  11  -5   12.23    1.59
  -2  11  -6    5.26    1.67
   2 -11   6    1.80    1.34
  -2  10  16   10.73    1.78
   2 -10 -15   71.24    4.52
  -2  10  15   68.56    3.99
  -2  10  15   67.09    4.20
   2 -10 -14   -1.37    0.92
  -2  10  14    0.84    0.88
  -2  10  14   -0.45    1.04
   2 -10 -13    4.53    1.34
  -2  10  13    7.26    1.56
  -2  10  13    7.96    1.48
   2 -10 -12   22.33    2.41
  -2  10  12   22.30    2.20
  -2  10  12   22.57    2.26
   2 -10 -11   52.47    3.52
  -2  10  11   53.02    3.36
  -2  10  11   49.30    3.29
   2 -10 -10    0.33    0.97
  -2  10  10    0.68    0.88
   2 -10  -9    5.32    1.31
  -2  10   9    5.12    1.14
   2 -10  -8   10.05    1.54
  -2  10   8    9.77    1.47
   2 -10  -7   18.19    1.94
  -2  10   7   13.51    1.72
   2 -10  -6    1.39    0.90
  -2  10   6    1.83    0.98
   2 -10  -5   48.70    2.96
  -2  10   5   50.60    3.13
   2 -10  -5   49.05    1.32
   2 -10  -5   51.77    1.65
   2 -10  -5   47.92    1.33
   2 -10  -4    6.55    1.26
  -2  10   4    6.24    1.28
   2 -10  -4    7.62    0.77
   2 -10  -4    6.92    0.60
   2 -10  -4    6.23    0.63
   2 -10  -3   50.69    2.90
   2 -10  -3   48.38    1.87
   2 -10  -3   52.51    2.21
  -2  10   3   40.43    2.79
   2 -10  -2   42.83    2.61
   2 -10  -2   40.82    2.14
   2 -10  -2   43.62    1.94
  -2  10   2   42.79    2.83
   2 -10  -1   64.86    3.19
   2 -10  -1   72.60    3.05
   2 -10  -1   63.02    2.61
  -2  10   1   65.49    3.50
   2 -10   0   46.01    2.59
   2 -10   0   40.21    2.19
   2 -10   0   50.70    2.69
  -2  10   0   43.01    2.82
   2 -10   1   26.71    1.92
   2 -10   1   23.35    1.75
   2 -10   1   21.15    1.86
  -2  10  -1   24.46    2.15
   2 -10   2    3.79    0.85
   2 -10   2    4.33    1.05
  -2  10  -2    4.43    1.07
   2 -10   3   28.52    1.87
   2 -10   3   27.24    2.38
  -2  10  -3   29.21    2.27
   2 -10   4    3.84    0.85
   2 -10   4    5.04    1.21
  -2  10  -4    3.35    0.91
   2 -10   5   88.60    4.53
  -2  10  -5   84.25    3.83
  -2  10  -6    0.84    1.03
   2 -10   6   -0.02    1.18
  -2  10  -6    0.29    0.76
  -2  10  -7    1.54    1.28
   2 -10   7   -0.90    1.15
   2  -9 -16    0.75    1.08
  -2   9  16   -0.75    0.92
  -2   9  16   -1.06    1.10
   2  -9 -15   19.77    2.40
  -2   9  15   22.83    2.22
  -2   9  15   22.79    2.46
   2  -9 -14   11.03    1.78
  -2   9  14   12.31    1.62
  -2   9  14   12.27    1.85
   2  -9 -13   23.83    2.48
  -2   9  13   25.86    2.45
  -2   9  13   24.15    2.20
   2  -9 -12   -1.20    1.13
  -2   9  12    0.85    0.84
  -2   9  12   -0.49    0.96
   2  -9 -11   46.30    3.22
  -2   9  11   49.74    3.11
  -2   9  11   54.35    3.33
   2  -9 -10    0.38    0.87
  -2   9  10    0.84    0.89
  -2   9  10    1.15    0.86
   2  -9  -9   20.70    2.08
  -2   9   9   17.32    1.86
  -2   9   9   18.10    1.90
   2  -9  -8    5.69    1.16
  -2   9   8    5.83    1.29
   2  -9  -7    2.29    1.01
  -2   9   7    2.44    0.95
   2  -9  -6   26.83    2.18
  -2   9   6   26.79    2.20
   2  -9  -5   21.33    1.92
  -2   9   5   21.47    2.00
   2  -9  -5   20.85    0.88
   2  -9  -4   87.65    3.84
  -2   9   4   86.77    3.95
   2  -9  -4   92.81    2.32
   2  -9  -4   92.78    2.68
   2  -9  -4   88.96    2.33
   2  -9  -3    8.53    1.26
  -2   9   3    9.18    1.35
   2  -9  -3    8.56    0.85
   2  -9  -3    9.11    0.72
  -2   9   2   46.37    2.66
   2  -9  -2   53.29    2.77
  -2   9   2   46.42    2.78
   2  -9  -2   46.35    2.18
   2  -9  -2   48.31    1.92
   2  -9  -1    7.29    1.16
  -2   9   1    7.65    1.23
   2  -9  -1    6.34    0.93
   2  -9  -1    5.69    0.75
   2  -9   0  105.14    3.93
  -2   9   0  103.66    4.25
   2  -9   0   95.41    3.41
   2  -9   0  110.55    3.92
   2  -9   1   13.87    1.37
  -2   9  -1   10.46    1.43
   2  -9   1   13.41    1.43
   2  -9   1   12.03    1.23
   2  -9   2   39.75    2.21
   2  -9   2   39.71    2.50
   2  -9   2   38.55    2.26
  -2   9  -2   33.61    2.32
   2  -9   3   51.32    2.46
   2  -9   3   51.63    3.03
  -2   9  -3   50.26    2.81
   2  -9   4    6.43    0.92
   2  -9   4    6.61    1.31
  -2   9  -4    4.79    0.98
   2  -9   5   40.24    1.98
   2  -9   5   36.84    2.77
  -2   9  -5   34.81    2.27
  -2   9  -6    2.28    1.26
   2  -9   6   -0.32    0.93
  -2   9  -6    0.50    0.64
  -2   9  -7    5.10    1.44
   2  -9   7    3.86    1.34
  -2   9  -7    2.99    0.82
  -2   9  -8    3.30    1.33
   2  -9   8    4.30    1.37
  -2   9  -9    3.16    1.36
   2  -9   9    0.47    1.16
   2  -8 -17    8.60    1.79
   2  -8 -16   17.03    2.24
  -2   8  16   14.03    1.98
   2  -8 -15    5.09    1.37
  -2   8  15    6.19    1.49
  -2   8  15    5.35    1.15
   2  -8 -14    7.89    1.63
  -2   8  14    9.11    1.61
  -2   8  14    9.20    1.41
   2  -8 -13   40.57    3.08
  -2   8  13   48.03    2.91
  -2   8  13   41.19    3.01
   2  -8 -12   10.92    1.66
  -2   8  12   11.57    1.66
  -2   8  12   11.60    1.52
   2  -8 -11    3.30    1.12
  -2   8  11    4.43    0.99
  -2   8  11    1.31    0.78
   2  -8 -10   -1.59    1.05
  -2   8  10    0.09    0.71
  -2   8  10   -0.18    0.88
   2  -8  -9    0.46    0.82
  -2   8   9   -0.48    0.79
  -2   8   9   -0.06    0.73
   2  -8  -8   -0.43    0.83
  -2   8   8   -0.70    0.80
  -2   8   8   -0.16    0.81
   2  -8  -7   32.24    2.33
  -2   8   7   30.62    2.21
   2  -8  -6    6.80    1.17
  -2   8   6    4.81    1.07
   2  -8  -5   49.24    2.73
  -2   8   5   47.66    2.74
   2  -8  -5   46.52    1.27
   2  -8  -4    8.96    1.28
  -2   8   4    8.24    1.22
  -2   8   4    8.99    1.28
   2  -8  -4    9.46    0.71
   2  -8  -4    9.92    0.52
   2  -8  -4    8.86    0.53
   2  -8  -3    7.30    1.17
  -2   8   3    8.48    1.24
  -2   8   3    7.66    1.20
   2  -8  -3    6.98    0.74
   2  -8  -3    6.81    0.56
  -2   8   2  123.12    4.31
   2  -8  -2  126.00    4.34
  -2   8   2  124.74    4.53
   2  -8  -2  114.21    3.17
   2  -8  -2  123.73    3.62
   2  -8  -1    9.21    1.19
   2  -8  -1   10.39    1.29
  -2   8   1   10.23    1.32
   2  -8  -1   10.10    1.05
   2  -8  -1    7.57    0.77
   2  -8   0  110.42    3.91
   2  -8   0  105.19    3.41
   2  -8   0  108.64    3.79
  -2   8   0  108.37    4.16
   2  -8   0  119.56    4.41
   2  -8   1   73.55    3.01
   2  -8   1   73.89    3.18
   2  -8   1   70.28    2.84
  -2   8  -1   69.23    3.22
   2  -8   1   75.68    3.41
   2  -8   2  119.47    3.97
   2  -8   2  120.81    4.43
   2  -8   2  114.88    4.03
  -2   8  -2  118.87    4.33
   2  -8   2  127.43    4.54
   2  -8   3   36.12    1.95
   2  -8   3   31.92    2.30
   2  -8   3   34.90    2.17
  -2   8  -3   32.28    2.11
   2  -8   4    0.65    0.55
   2  -8   4   -0.26    0.81
  -2   8  -4    1.78    0.74
   2  -8   5    0.09    0.51
   2  -8   5   -1.26    0.99
  -2   8  -5    1.19    0.74
   2  -8   6   10.23    0.99
  -2   8  -6   11.15    1.66
   2  -8   6   10.22    1.55
  -2   8  -6   10.09    1.14
  -2   8  -7    9.42    1.63
   2  -8   7   10.48    1.71
  -2   8  -7   12.09    1.24
  -2   8  -8    7.52    1.56
   2  -8   8   11.76    1.88
  -2   8  -9    8.40    1.66
   2  -8   9    6.27    1.45
  -2   8 -10    1.07    1.17
   2  -8  10    3.61    1.58
   2  -7 -18   14.61    2.23
  -2   7  17   16.45    2.22
   2  -7 -17   16.17    2.15
  -2   7  16   16.53    2.18
   2  -7 -16   14.64    2.06
  -2   7  15  118.34    5.38
  -2   7  15  114.08    4.49
   2  -7 -15  114.72    5.33
  -2   7  14    5.44    1.02
  -2   7  14    7.31    1.49
   2  -7 -14    7.15    1.42
  -2   7  13   82.00    4.15
  -2   7  13   76.91    3.55
   2  -7 -13   76.38    4.08
  -2   7  12   -0.42    0.87
  -2   7  12   -0.40    0.73
   2  -7 -12   -0.05    0.87
  -2   7  12    1.47    0.50
  -2   7  11    5.25    1.17
  -2   7  11    6.05    1.10
   2  -7 -11    3.73    1.05
  -2   7  11    4.38    0.60
  -2   7  10    2.76    0.90
  -2   7  10    1.60    0.80
   2  -7 -10    1.20    0.79
  -2   7  10    1.73    0.41
   2  -7  -9   17.30    1.74
  -2   7   9   17.33    1.70
  -2   7   9   17.07    1.65
   2  -7  -8   42.05    2.64
  -2   7   8   47.80    2.65
  -2   7   8   46.92    2.69
   2  -7  -7   40.02    2.49
   2  -7  -7   42.23    2.51
  -2   7   7   37.65    2.36
  -2   7   7   40.62    2.45
   2  -7  -6    1.91    0.83
  -2   7   6    0.64    0.60
  -2   7   6    1.20    0.68
   2  -7  -6    0.37    0.64
   2  -7  -6    1.51    0.68
   2  -7  -5  213.10    6.32
  -2   7   5  223.04    6.36
   2  -7  -5  232.54    6.39
  -2   7   5  217.62    6.35
   2  -7  -5  226.55    6.52
  -2   7   4   16.77    1.50
   2  -7  -4   15.65    1.52
   2  -7  -4   14.08    0.76
  -2   7   4   13.42    1.42
   2  -7  -4   15.89    1.51
   2  -7  -4   16.50    1.51
  -2   7   3   77.63    3.25
   2  -7  -3   78.30    3.26
   2  -7  -3   79.27    2.36
   2  -7  -3   76.57    1.98
  -2   7   3   73.96    3.26
   2  -7  -3   86.20    3.43
   2  -7  -3   83.05    3.46
   2  -7  -2   39.88    2.22
  -2   7   2   33.45    2.05
   2  -7  -2   34.46    1.36
   2  -7  -2   37.26    1.68
  -2   7   2   33.86    2.15
   2  -7  -2   40.36    2.27
   2  -7  -2   36.81    2.23
  -2   7   1   77.57    3.18
   2  -7  -1   87.00    3.30
   2  -7  -1   90.43    3.57
  -2   7   1   86.47    3.45
   2  -7  -1   76.77    2.49
   2  -7  -1   87.21    2.94
   2  -7   0  119.24    3.92
   2  -7   0  130.38    4.35
  -2   7   0  118.82    4.15
   2  -7   0  107.00    3.34
   2  -7   0  114.74    3.75
  -2   7   0  117.46    4.15
   2  -7   1  166.11    4.75
   2  -7   1  172.10    5.24
  -2   7  -1  163.81    5.06
   2  -7   1  152.48    4.47
   2  -7   1  163.33    4.91
  -2   7  -1  166.60    5.12
   2  -7   2    5.10    0.81
   2  -7   2    8.38    1.10
  -2   7  -2    5.86    0.96
   2  -7   2    6.46    1.11
  -2   7  -2    6.74    1.03
   2  -7   2    5.82    0.87
   2  -7   3  263.20    6.33
   2  -7   3  265.17    6.91
  -2   7  -3  247.66    6.64
   2  -7   3  253.51    7.13
   2  -7   3  241.90    6.67
  -2   7  -3  257.55    6.86
   2  -7   4    1.74    0.63
  -2   7  -4    1.34    0.55
   2  -7   4    1.57    0.70
   2  -7   4    1.49    0.91
  -2   7  -4    1.82    0.65
   2  -7   4    1.47    0.65
   2  -7   5   33.76    1.72
  -2   7  -5   34.79    1.98
   2  -7   5   34.42    2.51
  -2   7  -5   29.88    1.98
   2  -7   6    0.80    0.51
  -2   7  -6    1.78    1.02
  -2   7  -6    1.39    0.60
   2  -7   6    0.81    0.87
  -2   7  -6    2.09    0.79
  -2   7  -7    0.85    1.14
   2  -7   7    0.25    0.44
  -2   7  -7    0.32    0.48
   2  -7   7    0.58    0.91
  -2   7  -7    1.09    0.57
  -2   7  -8    2.82    1.17
   2  -7   8    2.96    1.16
  -2   7  -8    2.33    0.61
  -2   7  -9   23.13    2.37
   2  -7   9   16.20    2.11
  -2   7 -10   11.17    1.83
   2  -7  10   11.72    1.82
  -2   7 -11   40.10    3.29
   2  -7  11   47.54    3.69
   2  -6 -18   19.20    2.38
   2  -6 -17   31.65    2.90
  -2   6  17   40.93    3.27
   2  -6 -16    4.60    1.34
  -2   6  16    7.94    1.74
   2  -6 -15   35.47    2.84
  -2   6  15   31.94    2.78
  -2   6  15   32.69    2.15
   2  -6 -14   33.29    2.67
  -2   6  14   35.47    2.26
  -2   6  14   35.75    2.84
   2  -6 -13   31.45    2.52
  -2   6  13   33.88    2.16
  -2   6  13   33.17    2.60
  -2   6  13   30.43    1.84
  -2   6  13   28.32    1.36
   2  -6 -12   18.56    2.01
   2  -6 -12   11.73    1.42
  -2   6  12   17.26    1.57
  -2   6  12   17.12    1.87
  -2   6  12   14.27    0.84
  -2   6  12   14.03    1.16
   2  -6 -11   72.05    3.59
   2  -6 -11   71.06    3.30
  -2   6  11   71.86    3.55
  -2   6  11   69.21    3.15
  -2   6  11   72.97    2.50
  -2   6  11   67.91    1.81
  -2   6  10    0.24    0.67
   2  -6 -10    1.27    0.67
  -2   6  10    0.84    0.85
   2  -6 -10   -0.98    0.89
  -2   6  10    0.15    0.34
   2  -6  -9   64.37    3.21
  -2   6   9   66.23    3.20
   2  -6  -9   67.60    3.12
  -2   6   9   65.21    2.99
  -2   6   9   62.73    1.94
  -2   6   8   17.06    1.64
   2  -6  -8   17.53    1.54
  -2   6   8   16.92    1.50
   2  -6  -8   18.51    1.71
  -2   6   8   16.10    1.61
  -2   6   8   17.39    0.75
   2  -6  -7    0.63    0.70
  -2   6   7    1.32    0.70
   2  -6  -7    1.27    0.61
  -2   6   7    0.72    0.71
  -2   6   7    0.73    0.65
  -2   6   6    2.38    0.74
   2  -6  -6    1.97    0.82
  -2   6   6    0.48    0.70
   2  -6  -6    2.74    0.80
  -2   6   6    1.91    0.74
   2  -6  -6    2.55    0.76
  -2   6   5  116.56    4.11
   2  -6  -5  112.20    4.10
   2  -6  -5  123.88    4.13
   2  -6  -5  123.35    4.22
  -2   6   5  121.93    4.14
  -2   6   5  121.52    4.15
   2  -6  -4    8.84    1.17
  -2   6   4   10.03    1.15
   2  -6  -4    9.72    0.57
   2  -6  -4   10.39    1.20
   2  -6  -4   11.64    1.18
  -2   6   4    9.52    1.16
  -2   6   3  607.79   12.84
   2  -6  -3  618.20   12.90
   2  -6  -3  659.16   13.08
   2  -6  -3  634.21   13.13
  -2   6   3  598.10   12.93
   2  -6  -3  603.72   10.80
   2  -6  -3  616.66   11.43
   2  -6  -2    5.02    0.89
   2  -6  -2    5.43    0.94
  -2   6   2    3.85    0.77
  -2   6   2    4.57    0.91
   2  -6  -2    5.88    0.95
   2  -6  -2    5.60    0.68
   2  -6  -2    4.54    0.45
   2  -6  -1  162.03    4.72
  -2   6   1  158.85    4.74
  -2   6   1  161.13    4.88
   2  -6  -1  175.53    5.05
   2  -6  -1  174.59    4.36
   2  -6  -1  162.50    3.89
   2  -6   0  425.22    9.21
   2  -6   0  435.13    9.62
  -2   6   0  403.39    9.40
   2  -6   0  429.97    9.06
   2  -6   0  400.55    8.50
  -2   6   0  422.64    9.52
   2  -6   1  239.14    5.92
   2  -6   1  248.17    6.34
  -2   6  -1  235.29    6.19
   2  -6   1  224.41    5.62
   2  -6   1  239.66    6.11
  -2   6  -1  236.43    6.24
   2  -6   2   55.33    2.29
  -2   6  -2   51.95    2.42
   2  -6   2   58.83    2.60
   2  -6   2   50.58    2.27
   2  -6   2   55.24    2.61
  -2   6  -2   55.79    2.55
   2  -6   3   83.72    2.87
   2  -6   3   83.15    3.17
  -2   6  -3   81.14    3.05
   2  -6   3   80.10    3.14
   2  -6   3   82.02    3.40
  -2   6  -3   83.16    3.20
   2  -6   4    1.07    0.52
  -2   6  -4    2.02    0.68
   2  -6   4    1.09    0.55
   2  -6   4    2.40    0.95
   2  -6   4    2.38    0.80
  -2   6  -4    0.71    0.50
   2  -6   5   81.90    2.75
  -2   6  -5   75.16    2.88
   2  -6   5   80.55    3.04
   2  -6   5   86.45    3.80
  -2   6  -5   74.78    3.06
   2  -6   6   49.24    2.01
  -2   6  -6   51.33    2.95
  -2   6  -6   49.60    2.20
   2  -6   6   55.50    3.16
  -2   6  -6   45.14    2.34
   2  -6   7   32.49    1.55
  -2   6  -7   28.71    2.33
  -2   6  -7   28.52    1.61
   2  -6   7   29.62    2.45
  -2   6  -7   26.97    1.80
  -2   6  -8    1.04    0.94
   2  -6   8    0.37    0.41
  -2   6  -8    0.75    0.44
   2  -6   8    0.16    0.94
  -2   6  -8    0.77    0.50
  -2   6  -9   36.87    2.82
   2  -6   9   40.51    3.06
  -2   6 -10   20.48    2.28
   2  -6  10   20.71    2.40
  -2   6 -11   36.13    3.04
   2  -6  11   39.43    3.27
  -2   6 -12   30.12    2.90
   2  -5 -18   40.12    3.18
   2  -5 -17   35.91    2.95
  -2   5  17   44.34    3.42
   2  -5 -16  130.92    5.57
  -2   5  16  133.73    5.91
   2  -5 -15    6.76    1.47
  -2   5  15   10.24    1.19
  -2   5  15   14.07    1.93
   2  -5 -14  119.19    5.04
  -2   5  14  123.72    4.18
  -2   5  14  126.37    5.33
  -2   5  14  120.11    3.83
   2  -5 -13    3.15    0.99
  -2   5  13    4.50    0.86
  -2   5  13    6.71    1.37
  -2   5  13    3.90    0.69
  -2   5  13    4.54    0.85
   2  -5 -12    5.28    1.18
   2  -5 -12    5.00    0.91
  -2   5  12    7.75    1.09
  -2   5  12    6.73    1.34
  -2   5  12    6.50    0.71
  -2   5  12    5.12    0.88
   2  -5 -11   14.19    1.60
  -2   5  11   16.96    1.73
   2  -5 -11   15.90    1.49
  -2   5  11   16.15    1.44
  -2   5  11   18.06    1.27
  -2   5  11   15.82    0.98
   2  -5 -10    1.00    0.89
  -2   5  10    0.53    0.58
   2  -5 -10    0.56    0.52
  -2   5  10    0.14    0.77
  -2   5  10   -0.09    0.29
  -2   5  10    0.38    0.39
  -2   5   9   35.89    2.26
   2  -5  -9   34.87    2.29
  -2   5   9   40.69    2.17
  -2   5   9   34.22    2.24
   2  -5  -9   36.04    2.13
  -2   5   9   37.30    1.53
  -2   5   9   38.34    1.23
  -2   5   8    1.89    0.69
   2  -5  -8    2.32    0.70
  -2   5   8    2.31    0.86
  -2   5   8    2.13    0.78
   2  -5  -8   -0.26    0.72
  -2   5   8    1.25    0.58
  -2   5   8    1.60    0.37
   2  -5  -7   13.47    1.39
  -2   5   7   13.13    1.38
  -2   5   7   15.04    1.33
   2  -5  -7   15.29    1.34
  -2   5   7   14.70    1.42
  -2   5   7   15.38    0.69
  -2   5   7   16.46    1.49
   2  -5  -6  131.62    4.39
  -2   5   6  135.10    4.42
   2  -5  -6  135.97    4.35
  -2   5   6  137.00    4.29
  -2   5   6  135.08    4.35
   2  -5  -6  141.23    4.41
  -2   5   5   90.41    3.36
   2  -5  -5   89.02    3.37
   2  -5  -5   89.94    3.33
  -2   5   5   85.57    3.25
  -2   5   5   87.19    3.26
   2  -5  -5   91.88    3.31
  -2   5   4  447.15    9.94
   2  -5  -4  448.13    9.97
   2  -5  -4  449.21    8.15
   2  -5  -4  460.46    9.93
  -2   5   4  452.41    9.94
   2  -5  -4  460.13   10.03
  -2   5   4  457.89    9.92
  -2   5   3  159.91    4.66
   2  -5  -3  164.72    4.73
   2  -5  -3  164.21    3.57
   2  -5  -3  166.52    4.72
   2  -5  -3  168.31    4.81
  -2   5   3  162.50    4.73
  -2   5   2  149.45    4.41
   2  -5  -2  161.49    4.53
   2  -5  -2  150.94    3.21
   2  -5  -2  162.58    3.72
   2  -5  -2  163.17    4.63
  -2   5   2  155.54    4.56
   2  -5  -2  162.77    4.57
  -2   5   1  142.22    4.24
   2  -5  -1  150.09    4.26
   2  -5  -1  155.61    4.47
  -2   5   1  153.34    4.43
   2  -5  -1  152.30    4.43
   2  -5  -1  147.59    3.78
   2  -5  -1  145.07    3.38
   2  -5   0  566.38   11.33
   2  -5   0  566.48   11.59
  -2   5   0  537.08   11.45
   2  -5   0  534.75   10.58
   2  -5   0  566.09   11.11
  -2   5   0  557.87   11.56
   2  -5   1   45.31    2.02
  -2   5  -1   47.25    2.16
   2  -5   1   45.78    2.14
   2  -5   1   48.52    2.15
   2  -5   1   46.16    1.88
  -2   5  -1   43.67    2.13
   2  -5   2  124.03    3.64
  -2   5  -2  124.70    3.81
   2  -5   2  130.25    3.92
   2  -5   2  125.89    3.73
   2  -5   2  129.90    4.08
  -2   5  -2  132.67    4.01
   2  -5   3  200.28    4.99
   2  -5   3  206.13    5.30
  -2   5  -3  202.51    5.20
   2  -5   3  195.71    5.33
   2  -5   3  209.24    5.78
  -2   5  -3  198.73    5.35
  -2   5  -4    2.30    0.54
   2  -5   4    2.28    0.60
   2  -5   4    2.91    0.62
   2  -5   4    3.97    0.97
   2  -5   4    3.21    0.73
  -2   5  -4    2.94    0.68
   2  -5   5   25.12    1.39
   2  -5   5   24.45    1.49
  -2   5  -5   24.26    1.43
   2  -5   5   25.36    1.81
   2  -5   5   25.35    1.92
  -2   5  -5   23.60    1.57
   2  -5   6   43.06    1.86
  -2   5  -6   42.48    2.57
   2  -5   6   44.77    1.99
  -2   5  -6   43.07    1.90
   2  -5   6   48.44    2.84
  -2   5  -6   42.40    2.12
  -2   5  -7    1.61    0.91
   2  -5   7    1.06    0.53
  -2   5  -7    0.29    0.36
   2  -5   7    1.71    0.94
  -2   5  -7    1.65    0.62
  -2   5  -8    1.19    0.92
   2  -5   8    0.65    0.43
  -2   5  -8    0.20    0.35
   2  -5   8    0.36    0.87
  -2   5  -8    0.40    0.59
  -2   5  -9    4.93    1.28
   2  -5   9    3.10    0.54
  -2   5  -9    1.92    0.45
   2  -5   9    2.98    0.61
   2  -5   9    0.52    0.87
  -2   5  -9    2.63    0.74
  -2   5 -10   48.87    3.22
   2  -5  10   47.49    3.34
  -2   5 -11   27.87    2.66
   2  -5  11   30.64    2.85
  -2   5 -12   50.61    3.58
   2  -5  12   56.52    3.95
  -2   5 -13   67.13    4.23
   2  -4 -17    9.08    1.53
  -2   4  17    8.29    1.69
   2  -4 -16   68.64    3.82
  -2   4  16   72.84    4.28
   2  -4 -15    6.21    1.30
  -2   4  15    9.76    1.24
  -2   4  15    7.78    1.56
   2  -4 -14  239.91    7.50
  -2   4  14  253.71    8.10
  -2   4  14  251.71    6.30
  -2   4  14  247.20    6.61
   2  -4 -13    4.06    1.09
  -2   4  13    3.54    1.08
  -2   4  13    3.08    0.73
  -2   4  13    5.70    0.90
  -2   4  13    5.58    0.94
   2  -4 -12    0.68    0.77
   2  -4 -12    0.64    0.50
  -2   4  12    2.27    0.96
  -2   4  12    1.70    0.59
  -2   4  12    1.80    0.57
  -2   4  12    2.11    0.71
   2  -4 -11   20.24    1.79
   2  -4 -11   16.48    1.41
  -2   4  11   17.80    1.37
  -2   4  11   18.53    1.80
  -2   4  11   18.02    1.34
  -2   4  11   16.83    1.16
   2  -4 -10    0.01    0.68
  -2   4  10   -0.07    0.62
  -2   4  10    0.83    0.58
   2  -4 -10    0.88    0.55
  -2   4  10    1.09    0.80
  -2   4  10    0.10    0.40
  -2   4  10    0.35    0.43
   2  -4  -9    0.56    0.71
  -2   4   9    0.34    0.56
  -2   4   9   -0.01    0.58
  -2   4   9    0.56    0.53
   2  -4  -9    1.49    0.60
  -2   4   9    0.78    0.69
  -2   4   9    0.71    0.35
  -2   4   9    0.75    0.44
   2  -4  -8    6.33    1.02
  -2   4   8    4.89    0.89
  -2   4   8    7.42    1.06
  -2   4   8    7.18    0.93
   2  -4  -8    7.23    0.94
  -2   4   8    6.78    1.02
   2  -4  -8    5.89    0.53
  -2   4   8    5.82    0.55
  -2   4   8    6.74    0.65
  -2   4   7   11.51    1.21
   2  -4  -7    9.92    1.19
  -2   4   7   10.26    1.19
  -2   4   7   10.34    1.05
  -2   4   7   10.88    1.15
   2  -4  -7   11.81    1.11
  -2   4   7   10.34    0.68
   2  -4  -7   10.09    0.60
  -2   4   7    9.78    0.58
  -2   4   6   -0.28    0.62
  -2   4   6    0.63    0.60
   2  -4  -6    0.94    0.70
  -2   4   6    0.58    0.52
  -2   4   6    0.52    0.66
   2  -4  -6    0.90    0.52
   2  -4  -6    0.78    0.23
  -2   4   6    0.68    0.24
  -2   4   5  545.31   11.65
   2  -4  -5  574.78   11.76
   2  -4  -5  550.01    9.84
   2  -4  -5  562.78   11.59
  -2   4   5  585.69   11.60
   2  -4  -5  573.22   11.70
  -2   4   5  568.32   11.66
  -2   4   4   85.51    3.07
   2  -4  -4   91.31    3.15
   2  -4  -4   79.88    1.87
  -2   4   4   92.27    3.06
  -2   4   4   90.55    3.09
   2  -4  -4   94.29    3.11
   2  -4  -4   87.62    3.04
  -2   4   3  482.86   10.47
   2  -4  -3  518.65   10.60
  -2   4   3  507.36   10.55
   2  -4  -3  511.53   10.59
   2  -4  -3  510.28   10.51
  -2   4   3  511.76   10.52
  -2   4   2  331.00    7.49
   2  -4  -2  344.37    7.54
   2  -4  -2  328.97    6.04
  -2   4   2  351.66    7.61
   2  -4  -2  345.80    7.61
   2  -4  -2  343.64    7.54
   2  -4  -1  427.04    8.83
  -2   4   1  399.42    8.77
  -2   4   1  420.50    8.91
   2  -4  -1  415.07    8.92
   2  -4  -1  434.13    8.96
   2  -4  -1  409.72    7.74
   2  -4   0  708.36   13.36
  -2   4   0  679.17   13.44
   2  -4   0  697.67   13.51
   2  -4   0  702.74   13.11
   2  -4   0  667.22   12.62
  -2   4   0  676.19   13.49
   2  -4   1   18.55    1.22
  -2   4  -1   19.41    1.27
   2  -4   1   19.23    1.28
   2  -4   1   19.02    1.08
   2  -4   1   21.54    1.33
  -2   4  -1   18.60    1.29
   2  -4   2  166.25    4.28
   2  -4   2  170.62    4.45
  -2   4  -2  165.50    4.37
   2  -4   2  164.85    4.33
   2  -4   2  177.08    4.69
  -2   4  -2  169.33    4.55
   2  -4   3   25.59    1.39
   2  -4   3   27.30    1.46
  -2   4  -3   25.38    1.41
   2  -4   3   25.38    1.52
   2  -4   3   26.94    1.74
  -2   4  -3   26.35    1.54
  -2   4  -4    6.18    0.72
   2  -4   4    6.78    0.77
   2  -4   4    5.54    0.73
   2  -4   4    6.65    1.05
  -2   4  -4    4.90    0.75
   2  -4   4    5.83    0.85
  -2   4  -5   21.88    1.68
  -2   4  -5   23.93    1.29
   2  -4   5   22.53    1.30
   2  -4   5   27.74    1.93
   2  -4   5   25.52    1.72
  -2   4  -5   22.99    1.47
  -2   4  -6   -0.19    0.68
   2  -4   6   -0.27    0.45
  -2   4  -6    0.36    0.37
   2  -4   6   -0.17    0.71
  -2   4  -6   -0.07    0.47
   2  -4   6    0.42    0.58
  -2   4  -7   14.44    1.54
  -2   4  -7   15.12    0.98
   2  -4   7   14.95    1.74
  -2   4  -7   16.86    1.28
  -2   4  -8   -0.15    0.78
  -2   4  -8   -0.37    0.40
   2  -4   8    1.02    1.01
  -2   4  -8    0.57    0.55
   2  -4   9  213.01    5.10
  -2   4  -9  206.30    6.65
   2  -4   9  200.90    6.95
  -2   4  -9  204.70    5.47
  -2   4 -10   -0.86    0.95
   2  -4  10    0.23    0.42
  -2   4 -10    0.01    0.55
  -2   4 -11   80.79    4.23
   2  -4  11   79.87    4.36
  -2   4 -12   39.46    3.04
   2  -4  12   31.47    2.93
  -2   4 -13   90.99    4.88
   2  -4  13   98.53    5.23
  -2   4 -14   81.19    4.77
   2  -3 -16   21.35    2.09
  -2   3  16   25.40    2.14
   2  -3 -15   89.11    4.13
  -2   3  15   89.42    3.87
   2  -3 -14   36.47    2.51
  -2   3  14   41.34    1.89
  -2   3  14   39.59    2.37
  -2   3  14   39.37    1.94
   2  -3 -13   68.88    3.37
  -2   3  13   74.50    2.69
  -2   3  13   69.65    3.06
   2  -3 -12    4.19    0.97
  -2   3  12    3.69    0.67
   2  -3 -12    4.59    0.78
  -2   3  12    3.87    0.80
  -2   3  12    3.56    0.76
   2  -3 -11   15.87    1.54
  -2   3  11   17.48    1.60
  -2   3  11   20.03    1.50
  -2   3  11   16.01    1.27
   2  -3 -11   14.94    1.20
  -2   3  11   19.73    1.34
  -2   3  10   58.75    2.76
   2  -3 -10   52.46    2.63
  -2   3  10   53.62    2.21
   2  -3 -10   52.99    2.19
  -2   3  10   56.50    2.38
   2  -3 -10   50.18    2.24
  -2   3  10   56.77    2.30
   2  -3  -9   26.59    1.84
  -2   3   9   29.06    1.87
  -2   3   9   28.66    1.96
  -2   3   9   29.27    1.54
  -2   3   9   28.06    1.45
   2  -3  -9   28.83    1.46
   2  -3  -9   26.76    1.56
  -2   3   9   31.06    1.64
  -2   3   9   29.61    2.06
  -2   3   8   84.40    3.21
   2  -3  -8   83.29    3.21
  -2   3   8   85.00    3.33
   2  -3  -8   80.67    2.51
  -2   3   8   85.62    2.53
  -2   3   8   82.60    2.61
  -2   3   8   89.53    3.42
   2  -3  -8   84.36    2.92
  -2   3   8   86.05    2.90
   2  -3  -7   84.42    3.13
  -2   3   7   83.72    3.12
  -2   3   7   82.43    3.14
  -2   3   7   84.19    2.40
  -2   3   7   83.16    2.33
   2  -3  -7   81.64    2.35
   2  -3  -7   80.46    2.83
  -2   3   7   85.84    2.87
  -2   3   7   84.84    3.22
  -2   3   6   67.50    2.65
  -2   3   6   66.34    2.61
   2  -3  -6   65.34    2.63
  -2   3   6   63.46    2.61
  -2   3   6   70.99    2.50
   2  -3  -6   66.30    2.47
   2  -3  -6   61.84    1.83
  -2   3   6   65.12    1.83
  -2   3   6   66.58    1.85
   2  -3  -5  726.91   14.38
  -2   3   5  714.34   14.32
  -2   3   5  745.21   14.14
   2  -3  -5  730.76   14.16
  -2   3   5  740.37   14.34
  -2   3   5  743.96   12.87
   2  -3  -5  704.84   12.97
  -2   3   5  735.94   14.24
  -2   3   4   45.45    2.03
   2  -3  -4   48.99    2.14
   2  -3  -4   44.51    1.29
   2  -3  -4   50.28    2.06
   2  -3  -4   50.22    2.11
  -2   3   4   49.70    2.12
  -2   3   4   50.23    2.05
  -2   3   3  724.44   14.05
   2  -3  -3  740.14   14.12
   2  -3  -3  697.69   12.88
   2  -3  -3  744.83   14.07
  -2   3   3  750.28   14.06
  -2   3   3  751.53   14.09
   2  -3  -3  749.20   14.03
   2  -3  -2  508.28   10.11
  -2   3   2  496.20   10.08
   2  -3  -2  499.92   10.04
  -2   3   2  497.02   10.07
   2  -3  -2  504.28   10.11
  -2   3   2  490.34   10.06
   2  -3  -1  442.54    9.02
   2  -3  -1  449.15    9.10
   2  -3  -1  456.74    9.08
  -2   3   1  433.35    9.03
   2  -3  -1  436.97    8.01
  -2   3   1  443.00    9.08
   2  -3   0  411.24    8.35
   2  -3   0  408.34    8.40
  -2   3   0  404.64    8.37
   2  -3   0  402.33    7.68
  -2   3   0  398.59    8.42
   2  -3   1  124.24    3.36
  -2   3  -1  120.16    3.36
   2  -3   1  121.82    3.38
   2  -3   1  123.95    3.12
  -2   3  -1  123.83    3.50
   2  -3   2    3.48    0.61
  -2   3  -2    1.84    0.50
   2  -3   2    4.27    0.83
  -2   3  -2    1.42    0.57
   2  -3   2    2.56    0.59
   2  -3   3    0.73    0.43
  -2   3  -3    1.47    0.47
   2  -3   3    1.75    0.76
   2  -3   3    1.25    0.55
  -2   3  -3    0.42    0.52
   2  -3   4   20.62    1.14
  -2   3  -4   19.47    1.10
   2  -3   4   19.77    1.52
   2  -3   4   19.17    1.36
   2  -3   4   20.89    1.32
  -2   3  -4   18.06    1.23
  -2   3  -5   77.28    2.98
  -2   3  -5   73.71    2.29
   2  -3   5   75.41    2.33
   2  -3   5   76.61    3.15
   2  -3   5   72.11    2.90
   2  -3   5   74.56    2.61
  -2   3  -5   70.92    2.57
  -2   3  -6   55.13    2.62
   2  -3   6   59.24    1.96
  -2   3  -6   55.75    1.89
   2  -3   6   62.76    2.95
   2  -3   6   57.92    2.72
  -2   3  -6   55.05    2.23
   2  -3   6   59.36    2.29
  -2   3  -7   -0.01    0.72
  -2   3  -7    2.28    0.42
   2  -3   7    1.60    0.40
   2  -3   7    2.48    0.93
   2  -3   7    1.93    0.61
   2  -3   7    1.12    0.62
  -2   3  -7    1.12    0.46
  -2   3  -8   90.67    3.77
   2  -3   8   92.32    4.00
  -2   3  -8   83.51    2.97
   2  -3   8   92.39    3.05
  -2   3  -9   88.39    3.90
   2  -3   9   88.79    2.90
   2  -3   9   85.52    4.06
  -2   3  -9   84.65    3.01
  -2   3 -10   28.81    2.30
   2  -3  10   31.33    1.62
   2  -3  10   30.81    2.52
  -2   3 -10   28.44    1.64
  -2   3 -11  232.45    7.51
   2  -3  11  237.86    7.90
  -2   3 -12   69.60    3.94
   2  -3  12   71.85    4.14
  -2   3 -13  137.69    5.96
   2  -3  13  140.95    6.22
  -2   3 -14   67.00    4.21
   2  -3  14   64.79    4.27
  -2   2  17    7.82    1.50
  -2   2  16   77.98    3.99
   2  -2 -16   84.00    4.77
   2  -2 -15   17.23    1.79
   2  -2 -15   18.73    2.23
  -2   2  15   20.23    1.93
   2  -2 -14   25.02    1.96
   2  -2 -14   20.03    2.20
  -2   2  14   24.25    1.98
  -2   2  13   12.15    1.33
   2  -2 -13   13.90    1.47
   2  -2 -13    8.78    1.47
  -2   2  13    9.46    1.28
  -2   2  13   11.98    0.96
  -2   2  12    9.02    1.11
   2  -2 -12    9.16    1.20
   2  -2 -12    7.59    1.32
  -2   2  12   10.98    0.95
   2  -2 -12    8.59    0.84
  -2   2  12   10.49    1.19
  -2   2  12   10.86    1.29
  -2   2  12   10.93    0.94
   2  -2 -11   42.27    2.32
  -2   2  11   40.07    2.24
   2  -2 -11   38.68    1.79
  -2   2  11   41.62    1.81
  -2   2  11   44.36    2.33
   2  -2 -11   38.24    2.12
  -2   2  11   44.08    2.26
   2  -2 -11   37.90    2.53
   2  -2 -10  136.27    4.32
  -2   2  10  123.66    4.17
   2  -2 -10  122.79    3.61
  -2   2  10  132.29    3.64
  -2   2  10  129.01    4.00
  -2   2  10  139.46    4.23
   2  -2 -10  128.03    4.00
   2  -2 -10  129.64    4.68
  -2   2   9   47.42    2.53
  -2   2   9   43.68    2.20
   2  -2  -9   46.11    2.29
   2  -2  -9   46.82    1.94
  -2   2   9   48.94    1.95
  -2   2   9   46.30    2.12
   2  -2  -9   44.61    2.03
  -2   2   9   46.33    2.05
   2  -2  -9   49.01    2.55
  -2   2   8   94.40    3.27
  -2   2   8  101.77    3.61
   2  -2  -8   88.15    3.21
  -2   2   8   92.91    2.87
   2  -2  -8   89.14    2.87
   2  -2  -8   88.60    2.89
  -2   2   8   94.53    2.99
  -2   2   8   95.50    2.93
   2  -2  -8   94.28    3.51
  -2   2   7   44.50    2.07
   2  -2  -7   48.07    2.18
  -2   2   7   51.58    2.34
   2  -2  -7   47.43    1.92
  -2   2   7   49.44    1.93
  -2   2   7   47.67    1.85
  -2   2   7   48.46    1.83
   2  -2  -7   44.40    1.79
   2  -2  -7   51.02    2.35
  -2   2   6   61.41    2.39
   2  -2  -6   69.24    2.66
  -2   2   6   60.37    2.44
  -2   2   6   61.07    1.96
   2  -2  -6   64.14    2.05
  -2   2   6   59.44    1.95
   2  -2  -6   59.45    2.20
  -2   2   6   63.66    2.23
  -2   2   5   19.44    1.27
   2  -2  -5   20.09    1.32
  -2   2   5   17.99    1.21
   2  -2  -5   19.90    1.21
  -2   2   5   20.55    1.21
  -2   2   5   20.81    1.40
   2  -2  -5   17.73    0.92
  -2   2   5   17.90    0.92
  -2   2   4   81.55    2.69
   2  -2  -4   84.69    2.73
   2  -2  -4   85.75    2.64
  -2   2   4   87.71    2.64
  -2   2   4   82.81    2.75
   2  -2  -4   79.22    2.06
  -2   2   4   82.97    2.09
  -2   2   4   78.46    2.57
   2  -2  -3  248.74    5.67
  -2   2   3  249.21    5.64
  -2   2   3  253.31    5.59
  -2   2   3  261.81    5.68
   2  -2  -3  249.82    5.62
   2  -2  -3  254.15    5.61
   2  -2  -3  236.77    4.86
   2  -2  -2 9361.74  163.05
  -2   2   2 9570.61  163.02
   2  -2  -2 9675.03  163.00
  -2   2   2 9999.00  163.05
   2  -2  -2 9639.05  163.07
  -2   2   2 9490.87  163.07
  -2   2   2 9586.13  162.97
   2  -2  -1   73.56    2.36
  -2   2   1   73.51    2.34
   2  -2  -1   74.09    2.28
   2  -2  -1   76.44    2.38
   2  -2  -1   69.73    1.65
  -2   2   1   71.51    1.64
  -2   2   1   70.89    2.29
   2  -2   0  328.86    6.75
   2  -2   0  319.43    6.72
  -2   2   0  319.47    6.70
   2  -2   0  316.84    6.13
  -2   2   0  327.42    6.15
  -2   2   0  314.62    6.73
   2  -2   1   18.11    1.08
  -2   2  -1   17.20    1.08
  -2   2  -1   18.48    1.00
   2  -2   1   16.80    0.91
  -2   2  -1   17.39    1.10
   2  -2   1   17.53    1.21
   2  -2   2    5.75    0.66
  -2   2  -2    6.70    0.72
   2  -2   2    5.15    0.68
  -2   2  -2    6.15    0.79
   2  -2   2    6.10    0.82
  -2   2  -2    5.72    0.71
  -2   2  -3    1.29    0.45
   2  -2   3    1.12    0.41
   2  -2   3    0.53    0.55
   2  -2   3    0.71    0.50
  -2   2  -3    1.51    0.57
  -2   2  -4  116.89    3.49
   2  -2   4  121.08    3.03
  -2   2  -4  117.82    3.02
   2  -2   4  117.34    3.58
   2  -2   4  128.97    3.82
   2  -2   4  119.83    3.34
  -2   2  -4  114.77    3.32
  -2   2  -5  475.52   10.01
   2  -2   5  476.14    9.06
  -2   2  -5  460.49    9.04
   2  -2   5  468.44   10.15
   2  -2   5  481.82   10.36
   2  -2   5  486.44    9.63
  -2   2  -5  471.05    9.60
  -2   2  -6   90.18    3.24
  -2   2  -6   85.66    2.32
   2  -2   6   86.36    2.32
   2  -2   6   91.14    3.35
   2  -2   6   90.20    3.45
   2  -2   6   87.97    2.81
  -2   2  -6   84.64    2.79
  -2   2  -7    0.71    0.74
   2  -2   7    1.19    0.32
   2  -2   7    1.09    0.71
   2  -2   7    1.52    0.68
  -2   2  -7    1.55    0.50
   2  -2   7    0.67    0.46
  -2   2  -8  285.14    7.45
   2  -2   8  283.90    5.41
   2  -2   8  278.16    7.74
  -2   2  -8  272.28    6.49
   2  -2   8  282.43    6.50
   2  -2   9   36.49    1.81
  -2   2  -9   36.31    2.37
   2  -2   9   37.41    2.55
   2  -2   9   41.20    1.88
  -2   2  -9   39.01    1.89
  -2   2 -10   26.85    2.15
   2  -2  10   31.04    1.67
   2  -2  10   26.11    2.26
  -2   2 -10   26.55    1.59
   2  -2  10   28.57    1.59
  -2   2 -11   62.41    3.46
   2  -2  11   67.03    2.61
   2  -2  11   62.74    3.59
  -2   2 -11   62.49    2.55
   2  -2  11   66.59    2.53
  -2   2 -12  184.30    6.58
   2  -2  12  176.33    6.74
   2  -2  12  191.61    4.97
  -2   2 -13   88.44    4.53
   2  -2  13   91.39    4.75
  -2   2 -14  134.45    5.95
   2  -2  14  150.00    6.42
  -2   2 -15   26.76    2.68
   2  -2  15   23.62    2.58
  -2   1  18   36.78    3.07
  -2   1  17   46.02    3.31
  -2   1  16   80.34    4.19
   2  -1 -16   92.61    5.02
   2  -1 -15    2.85    1.10
  -2   1  15    1.66    0.95
   2  -1 -14   14.42    1.45
   2  -1 -14   14.55    1.91
  -2   1  14   13.54    1.63
   2  -1 -13    0.93    0.66
  -2   1  13   -0.16    0.56
   2  -1 -13   -0.34    0.85
  -2   1  13    0.98    0.76
  -2   1  13    0.10    0.32
  -2   1  12   50.25    2.44
   2  -1 -12   49.27    3.05
   2  -1 -12   49.29    2.50
   2  -1 -12   49.60    2.66
  -2   1  12   52.75    2.79
  -2   1  12   51.06    1.69
  -2   1  12   49.58    1.66
  -2   1  11    0.96    0.50
   2  -1 -11    1.18    0.61
   2  -1 -11    0.67    0.76
   2  -1 -11    0.63    0.37
   2  -1 -11    2.40    0.74
  -2   1  11    1.15    0.78
  -2   1  11    1.88    0.43
  -2   1  11    1.36    0.68
  -2   1  10   47.05    2.22
   2  -1 -10   49.78    2.76
   2  -1 -10   49.26    2.31
  -2   1  10   52.81    2.51
   2  -1 -10   45.37    2.31
  -2   1  10   45.70    2.34
  -2   1  10   48.77    1.82
   2  -1 -10   45.79    1.78
  -2   1   9   22.06    1.71
   2  -1  -9   20.35    1.69
   2  -1  -9   18.78    1.39
  -2   1   9   20.78    1.39
  -2   1   9   20.22    1.46
   2  -1  -9   20.37    1.44
  -2   1   9   18.11    1.38
   2  -1  -9   20.54    1.13
  -2   1   9   19.88    1.12
  -2   1   8  490.99   10.28
   2  -1  -8  507.15   10.96
   2  -1  -8  482.97   10.29
  -2   1   8  518.74   11.02
  -2   1   8  507.30   10.42
  -2   1   8  497.40   10.32
   2  -1  -8  480.32   10.32
   2  -1  -8  473.04    9.68
  -2   1   8  507.05    9.76
  -2   1   7    3.15    0.77
   2  -1  -7    3.36    0.71
  -2   1   7    4.00    0.66
   2  -1  -7    3.88    0.87
  -2   1   7    3.61    0.68
   2  -1  -7    3.08    0.55
  -2   1   7    3.64    0.55
   2  -1  -7    3.88    0.55
   2  -1  -6  393.83    8.40
  -2   1   6  370.90    7.99
   2  -1  -6  377.58    8.05
  -2   1   6  387.61    8.37
   2  -1  -6  374.74    7.72
  -2   1   6  394.00    7.77
  -2   1   6  382.41    7.84
   2  -1  -6  365.05    7.83
  -2   1   5  148.37    3.88
  -2   1   5  150.85    4.03
   2  -1  -5  148.82    3.93
   2  -1  -5  157.86    3.78
  -2   1   5  155.46    3.75
   2  -1  -5  147.46    3.68
  -2   1   5  153.42    3.66
   2  -1  -5  148.91    4.04
  -2   1   4   82.87    2.58
  -2   1   4   87.08    2.62
   2  -1  -4   88.36    2.68
   2  -1  -4   85.96    2.50
  -2   1   4   84.28    2.48
  -2   1   4   88.03    2.35
   2  -1  -4   87.69    2.35
   2  -1  -4   85.49    2.64
   2  -1  -3  183.98    4.33
  -2   1   3  181.18    4.15
  -2   1   3  178.85    4.30
  -2   1   3  188.98    4.26
   2  -1  -3  184.29    4.25
  -2   1   3  190.96    4.43
   2  -1  -3  177.80    3.91
  -2   1   3  186.88    3.93
  -2   1   3  183.58    4.10
   2  -1  -2 1730.00   29.83
   2  -1  -2 1707.87   29.75
  -2   1   2 1702.85   29.73
  -2   1   2 1714.94   29.77
   2  -1  -2 1713.01   29.76
   2  -1  -2 1658.79   29.33
  -2   1   2 1672.71   29.62
   2  -1  -1 1305.58   22.47
  -2   1   1 1296.38   22.31
  -2   1   1 1302.41   22.45
   2  -1  -1 1266.81   22.42
   2  -1  -1 1274.60   22.27
  -2   1   1 1268.53   21.71
   2  -1  -1 1172.95   21.70
   2  -1  -1 1290.52   22.38
  -2   1   1 1281.00   22.35
  -2   1   0   61.74    1.91
   2  -1   0   61.16    1.92
   2  -1   0   58.77    1.80
   2  -1   0   59.90    1.60
  -2   1   0   61.85    1.62
   2  -1   0   60.36    1.98
  -2   1   0   57.87    1.90
   2  -1   1  930.91   16.87
  -2   1  -1  932.16   16.88
  -2   1  -1  945.91   16.70
   2  -1   1  932.63   16.68
  -2   1  -1  933.15   17.00
   2  -1   1  952.15   17.02
   2  -1   2    5.90    0.63
  -2   1  -2    4.18    0.55
   2  -1   2    4.42    0.76
  -2   1  -2    4.22    0.63
  -2   1  -2    4.55    0.69
   2  -1   2    5.64    0.65
  -2   1  -3   67.44    2.18
   2  -1   3   68.40    1.99
  -2   1  -3   67.47    2.00
  -2   1  -3   73.20    2.36
   2  -1   3   70.84    2.31
  -2   1  -3   66.33    2.20
   2  -1   3   70.93    2.25
   2  -1   4    0.50    0.32
  -2   1  -4    0.69    0.36
  -2   1  -4    0.42    0.58
  -2   1  -4   -0.75    0.64
  -2   1  -4    0.33    0.43
   2  -1   4    0.23    0.52
   2  -1   4    0.57    0.54
  -2   1  -5   84.64    2.83
   2  -1   5   87.17    2.23
  -2   1  -5   81.29    2.22
  -2   1  -5   86.76    3.00
   2  -1   5   83.08    2.96
   2  -1   5   87.68    2.65
  -2   1  -5   85.25    2.65
  -2   1  -6   39.71    1.99
   2  -1   6   42.08    1.34
   2  -1   6   41.84    2.11
   2  -1   6   40.67    2.16
   2  -1   6   39.27    1.72
  -2   1  -6   39.53    1.74
  -2   1  -7    9.60    1.17
   2  -1   7    8.37    0.52
   2  -1   7    8.56    1.19
  -2   1  -7    7.28    0.79
   2  -1   7    9.11    0.90
   2  -1   7   10.59    1.19
  -2   1  -8   91.71    3.58
   2  -1   8  100.36    2.12
   2  -1   8  100.09    3.89
   2  -1   8  103.44    3.89
   2  -1   8   96.92    3.09
  -2   1  -8   91.79    3.03
   2  -1   9   59.83    2.42
  -2   1  -9   63.22    3.00
   2  -1   9   61.29    3.14
   2  -1   9   61.70    2.36
  -2   1  -9   57.34    2.31
   2  -1  10  228.40    5.90
  -2   1 -10  238.80    6.94
   2  -1  10  243.14    7.23
   2  -1  10  235.86    5.74
  -2   1 -10  230.18    5.76
   2  -1  11  146.31    4.37
  -2   1 -11  144.46    5.31
   2  -1  11  143.50    5.55
   2  -1  11  149.78    4.18
  -2   1 -11  141.69    4.17
  -2   1 -12   88.87    4.24
   2  -1  12   93.92    3.39
   2  -1  12   95.55    4.53
   2  -1  12   94.10    3.15
  -2   1 -13   46.35    3.17
   2  -1  13   46.88    3.30
   2  -1  13   51.84    2.21
  -2   1 -14   93.27    4.75
   2  -1  14   95.58    4.92
  -2   1 -15   17.32    2.24
   2  -1  15   13.50    1.98
   2  -1  16  104.05    5.52
  -2   0  18    1.13    1.24
  -2   0  17   64.79    4.04
   2   0 -16   48.01    3.66
  -2   0  16   47.25    3.33
   2   0 -15    0.38    1.07
  -2   0  15    1.50    0.88
   2   0 -14   27.17    2.54
  -2   0  14   29.02    2.39
  -2   0  13   23.24    1.61
   2   0 -13   24.22    2.33
  -2   0  13   25.31    2.16
   2   0 -12    3.41    0.73
  -2   0  12    3.43    0.70
   2   0 -12    1.77    0.90
  -2   0  12    1.63    0.83
  -2   0  11    0.07    0.55
   2   0 -11    1.28    0.58
   2   0 -11    1.42    0.77
   2   0 -11    0.45    0.26
   2   0 -11    2.83    0.85
  -2   0  11    0.55    0.68
  -2   0  11    0.78    0.19
  -2   0  11    0.43    0.18
  -2   0  10    0.80    0.44
   2   0 -10    1.73    0.62
   2   0 -10    0.55    0.72
   2   0 -10    0.85    0.33
   2   0 -10    0.68    0.58
  -2   0  10    1.44    0.65
  -2   0  10    0.77    0.27
  -2   0  10    1.04    0.28
  -2   0  10    0.86    0.50
  -2   0   9    0.90    0.70
  -2   0   9    0.14    0.40
   2   0  -9    0.33    0.41
   2   0  -9    0.14    0.67
   2   0  -9    0.47    0.31
   2   0  -9   -0.43    0.54
  -2   0   9    0.60    0.67
  -2   0   9    0.36    0.44
  -2   0   9    0.17    0.25
  -2   0   9    0.38    0.26
  -2   0   8   87.46    2.76
  -2   0   8   91.69    3.43
   2   0  -8   84.00    2.77
   2   0  -8   80.94    3.30
   2   0  -8   84.50    2.40
  -2   0   8   85.47    3.13
   2   0  -8   83.12    3.11
  -2   0   8   85.82    2.10
  -2   0   7  228.09    5.44
   2   0  -7  243.88    6.20
   2   0  -7  244.79    5.57
  -2   0   7  256.57    6.28
  -2   0   7  244.26    5.20
   2   0  -7  240.13    5.19
   2   0  -7  238.39    5.94
  -2   0   7  247.08    5.95
  -2   0   7  237.83    4.78
  -2   0   6  206.97    4.76
   2   0  -6  202.29    5.25
  -2   0   6  209.60    5.28
   2   0  -6  201.02    4.77
  -2   0   6  206.73    4.55
   2   0  -6  207.13    4.54
   2   0  -6  197.55    5.05
  -2   0   6  203.63    5.03
  -2   0   6  204.32    4.17
  -2   0   5  229.23    5.17
   2   0  -5  242.17    5.61
   2   0  -5  239.42    5.26
  -2   0   5  237.27    5.56
   2   0  -5  232.48    5.03
  -2   0   5  242.25    5.09
  -2   0   5  241.80    5.40
   2   0  -5  228.78    5.37
  -2   0   5  235.86    4.71
  -2   0   4  145.55    3.54
   2   0  -4  151.15    3.76
  -2   0   4  145.03    3.69
   2   0  -4  145.10    3.56
   2   0  -4  143.67    3.45
  -2   0   4  150.98    3.51
   2   0  -4  146.28    3.63
  -2   0   4  149.02    3.62
  -2   0   4  141.87    3.16
   2   0  -3  646.85   11.94
   2   0  -3  647.84   11.95
  -2   0   3  632.57   11.90
   2   0  -3  638.68   11.90
  -2   0   3  660.04   11.94
   2   0  -3  628.28   11.90
  -2   0   3  656.87   11.94
  -2   0   3  638.34   11.61
   2   0  -2  213.08    4.50
  -2   0   2  201.58    4.22
  -2   0   2  213.41    4.50
   2   0  -2  203.17    4.46
  -2   0   2  213.57    4.40
   2   0  -2  199.49    4.36
  -2   0   2  205.75    4.28
   2   0  -2  206.53    4.26
   2   0  -2  207.33    4.30
  -2   0   1   54.42    1.40
   2   0  -1   54.63    1.77
  -2   0   1   57.50    1.81
  -2   0   1   58.15    1.68
   2   0  -1   57.09    1.70
  -2   0   1   59.38    1.71
   2   0  -1   58.81    1.74
   2   0   0  795.84   14.50
  -2   0   0  807.57   14.20
  -2   0   0  801.01   14.52
   2   0   0  792.48   14.18
  -2   0   0  817.70   14.23
   2   0   0  795.19   14.21
  -2   0   0  815.90   14.48
   2   0   0  793.06   14.48
   2   0   1  295.34    5.94
  -2   0  -1  302.85    5.96
   2   0   1  297.61    5.85
  -2   0  -1  296.55    5.86
  -2   0  -1  295.81    6.01
   2   0   1  294.98    6.02
  -2   0  -2  318.96    6.09
  -2   0  -2  314.33    6.35
   2   0   2  321.94    6.35
  -2   0  -2  323.97    6.50
   2   0   2  324.65    6.48
  -2   0  -2  321.93    6.53
   2   0   2  330.65    6.56
   2   0   3    0.42    0.37
  -2   0  -3    1.32    0.53
  -2   0  -3    1.56    0.53
   2   0   3    1.36    0.63
  -2   0  -3    0.98    0.66
   2   0   3    0.45    0.49
   2   0   4    7.04    0.57
  -2   0  -4    5.91    0.73
   2   0   4    7.36    0.72
   2   0   4    7.93    0.84
  -2   0  -4    6.32    0.86
   2   0   4    6.32    0.76
  -2   0  -4    6.73    0.72
  -2   0  -5   25.82    1.41
   2   0   5   23.30    1.32
   2   0   5   23.51    0.97
   2   0   5   24.03    1.47
  -2   0  -5   23.97    1.53
   2   0   5   23.86    1.28
  -2   0  -5   22.71    1.25
  -2   0  -6   68.56    2.54
   2   0   6   66.98    2.52
   2   0   6   63.34    1.76
  -2   0  -6   70.90    2.73
   2   0   6   70.19    2.71
   2   0   6   67.45    2.30
  -2   0  -6   65.37    2.28
   2   0   7   60.47    2.57
  -2   0  -7   62.57    2.58
   2   0   7   61.54    1.63
  -2   0  -7   61.99    2.73
   2   0   7   68.80    2.83
   2   0   7   65.43    2.76
   2   0   7   64.51    2.29
  -2   0  -7   62.63    2.28
  -2   0  -8   10.98    1.22
   2   0   8   13.35    1.32
   2   0   8   13.19    1.11
   2   0   8   13.71    0.58
   2   0   8   15.81    1.49
   2   0   8   15.96    1.42
   2   0   8   12.79    1.04
  -2   0  -8   14.73    1.11
   2   0   9   57.41    2.76
   2   0   9   49.75    2.26
  -2   0  -9   50.07    2.61
   2   0   9   53.71    2.77
   2   0   9   51.96    2.73
  -2   0  -9   50.25    2.12
   2   0   9   51.40    2.13
   2   0  10  253.67    6.40
  -2   0 -10  257.97    7.17
   2   0  10  254.59    7.37
  -2   0 -10  240.30    6.06
   2   0  10  269.10    6.19
   2   0  11   90.23    3.34
  -2   0 -11   87.70    3.90
   2   0  11   92.38    4.11
   2   0  11   91.49    3.11
   2   0  12   76.38    3.17
  -2   0 -12   77.28    3.83
   2   0  12   85.80    4.13
   2   0  12   83.74    2.96
  -2   0 -13  158.20    5.98
   2   0  13  155.62    4.94
   2   0  13  159.98    6.11
   2   0  13  166.65    4.60
  -2   0 -14   47.31    3.25
   2   0  14   42.47    3.19
  -2   0 -15   45.19    3.35
   2   0  15   46.57    3.44
  -2   0 -16   77.30    4.54
   2   0  16   74.33    4.45
  -2  -1  17   72.54    4.40
  -2  -1  16   32.29    2.81
   2   1 -15   12.24    2.01
  -2  -1  15    7.90    1.58
   2   1 -14   13.07    1.92
  -2  -1  14   11.09    1.66
   2   1 -13    5.66    1.31
  -2  -1  13    5.42    1.25
  -2  -1  12   32.93    1.70
   2   1 -12   32.04    2.50
  -2  -1  12   28.56    2.31
   2   1 -11    6.68    0.86
   2   1 -11    7.68    1.33
  -2  -1  11    6.92    1.16
  -2  -1  11    9.13    0.88
  -2  -1  10   50.94    2.01
   2   1 -10   48.16    2.01
   2   1 -10   47.46    2.77
  -2  -1  10   47.83    2.67
   2   1 -10   47.27    2.66
   2   1 -10   48.40    1.42
  -2  -1   9   61.32    2.18
   2   1  -9   62.53    2.25
   2   1  -9   62.35    3.01
  -2  -1   9   69.16    3.15
  -2  -1   9   65.51    2.99
   2   1  -9   65.70    3.02
   2   1  -9   61.07    1.77
  -2  -1   8  210.71    4.85
   2   1  -8  209.24    5.92
  -2  -1   8  219.93    6.02
   2   1  -8  211.85    4.90
   2   1  -8  210.94    5.87
  -2  -1   8  205.51    5.77
   2   1  -8  204.29    4.44
   2   1  -7  136.72    3.46
   2   1  -7  137.85    4.28
  -2  -1   7  139.36    4.30
  -2  -1   7  139.13    3.44
   2   1  -7  132.42    4.20
  -2  -1   7  129.26    4.12
   2   1  -7  133.88    3.19
   2   1  -6   92.52    3.18
  -2  -1   6   94.79    2.56
   2   1  -6   92.20    2.56
  -2  -1   6   94.62    3.19
   2   1  -6   89.60    2.42
   2   1  -6   92.09    3.18
  -2  -1   6   96.40    3.19
  -2  -1   5  300.44    6.02
   2   1  -5  302.75    6.73
   2   1  -5  292.67    6.02
  -2  -1   5  310.24    6.73
   2   1  -5  289.69    5.96
   2   1  -5  284.33    6.66
  -2  -1   5  301.36    6.69
  -2  -1   5  294.06    5.37
   2   1  -4    2.65    0.50
  -2  -1   4    3.15    0.62
   2   1  -4    2.86    0.76
   2   1  -4    3.34    0.49
  -2  -1   4    2.50    0.66
   2   1  -4    1.81    0.57
  -2  -1   4    2.68    0.33
   2   1  -3  206.80    4.29
   2   1  -3  207.96    4.54
  -2  -1   3  202.65    4.49
   2   1  -3  207.72    4.40
   2   1  -3  200.00    4.64
  -2  -1   3  205.31    4.66
   2   1  -3  199.18    3.97
  -2  -1   3  201.33    3.97
  -2  -1   2   42.54    1.38
   2   1  -2   43.71    1.43
   2   1  -2   44.79    1.51
  -2  -1   2   46.03    1.65
   2   1  -2   40.66    1.56
  -2  -1   2   42.43    1.27
   2   1  -2   43.32    1.29
   2   1  -1  681.92   12.04
  -2  -1   1  676.51   12.03
   2   1  -1  696.22   12.54
  -2  -1   1  691.08   12.55
   2   1  -1  691.61   12.55
  -2  -1   1  683.53   12.29
   2   1  -1  692.75   12.30
   2   1   0  543.47   10.26
  -2  -1   0  554.33    9.81
   2   1   0  561.76   10.27
  -2  -1   0  542.27   10.15
   2   1   0  550.53   10.16
  -2  -1   0  566.19   10.18
   2   1   1    4.40    0.31
   2   1   1    4.31    0.64
  -2  -1  -1    4.16    0.57
  -2  -1  -1    4.58    0.62
   2   1   1    5.04    0.59
   2   1   2   10.47    0.53
  -2  -1  -2   10.56    0.54
   2   1   2   11.31    0.79
  -2  -1  -2    8.97    0.77
   2   1   2   11.63    0.89
  -2  -1  -2   10.87    0.85
  -2  -1  -3   12.65    0.76
   2   1   3   12.40    0.73
  -2  -1  -3   11.82    0.88
   2   1   3   12.80    0.98
  -2  -1  -3   12.35    0.98
   2   1   3    9.58    0.84
  -2  -1  -4   53.01    1.80
   2   1   4   53.08    1.78
   2   1   4   57.43    2.07
  -2  -1  -4   57.60    2.09
   2   1   4   55.72    1.96
  -2  -1  -4   53.56    1.92
  -2  -1  -5   48.30    1.86
   2   1   5   47.04    1.82
   2   1   5   49.17    2.04
  -2  -1  -5   44.32    1.99
   2   1   5   48.24    1.86
  -2  -1  -5   44.82    1.80
  -2  -1  -6  206.54    5.01
   2   1   6  200.58    4.98
   2   1   6  190.46    4.20
   2   1   6  211.94    5.30
  -2  -1  -6  207.71    5.26
   2   1   6  203.42    4.83
  -2  -1  -6  202.29    4.85
   2   1   7    1.54    0.33
   2   1   7    0.79    0.41
   2   1   7    1.66    0.56
  -2  -1  -7    2.34    0.69
  -2  -1  -7    1.98    0.54
   2   1   7    1.75    0.58
   2   1   7    1.41    0.58
  -2  -1  -7    1.05    0.67
   2   1   8  124.18    3.77
   2   1   8  125.99    4.01
  -2  -1  -8  123.04    3.96
   2   1   8  116.10    2.71
   2   1   8  127.13    4.18
  -2  -1  -8  121.63    4.10
   2   1   8  126.58    4.11
  -2  -1  -8  121.48    3.56
   2   1   8  122.47    3.55
   2   1   9    3.57    0.91
   2   1   9    1.55    0.63
  -2  -1  -9    1.84    0.77
   2   1   9    2.01    0.27
   2   1   9    1.04    0.64
   2   1   9    2.39    0.65
   2   1   9    2.12    0.64
  -2  -1  -9    2.43    0.85
  -2  -1 -10  257.79    7.10
   2   1  10  263.64    6.66
   2   1  10  256.85    7.11
   2   1  10  260.31    7.25
   2   1  10  261.06    6.27
  -2  -1 -11   76.49    3.54
   2   1  11   78.00    3.16
   2   1  11   77.16    3.60
   2   1  11   83.48    2.96
  -2  -1 -12  200.90    6.50
   2   1  12  189.84    5.68
   2   1  12  202.41    6.58
   2   1  12  205.27    5.37
  -2  -1 -13  189.55    6.54
   2   1  13  186.17    5.69
   2   1  13  181.81    6.49
   2   1  13  194.37    5.23
  -2  -1 -14   41.58    3.06
   2   1  14   47.62    3.21
   2   1  14   48.00    2.27
  -2  -1 -15   53.93    3.61
   2   1  15   55.49    3.58
  -2  -1 -16   16.04    2.16
   2   1  16   12.06    1.91
   2   1  17   21.54    2.49
  -2  -2  16   48.36    3.61
   2   2 -15    8.50    1.81
  -2  -2  15    6.86    1.65
   2   2 -14   24.54    2.51
  -2  -2  14   17.74    2.15
   2   2 -13    6.77    1.57
  -2  -2  13    4.30    1.20
   2   2 -12    9.07    1.53
  -2  -2  12   12.30    1.68
   2   2 -11    4.02    1.13
  -2  -2  11    3.70    0.97
  -2  -2  11    3.83    0.54
   2   2 -10    8.05    1.32
  -2  -2  10    7.56    1.30
  -2  -2  10    7.34    0.67
   2   2  -9   39.50    1.56
  -2  -2   9   42.95    1.56
   2   2  -9   41.29    2.51
   2   2  -9   42.78    2.50
  -2  -2   9   37.33    2.36
   2   2  -9   40.16    1.24
   2   2  -8  243.94    5.23
   2   2  -8  245.42    6.74
  -2  -2   8  266.41    6.91
  -2  -2   8  248.43    5.21
   2   2  -8  249.60    6.82
  -2  -2   8  237.86    6.63
   2   2  -8  242.63    4.98
   2   2  -7   50.58    1.65
   2   2  -7   52.34    2.53
  -2  -2   7   61.48    2.70
  -2  -2   7   51.07    2.55
   2   2  -7   54.21    2.60
   2   2  -7   53.91    1.64
   2   2  -6   80.94    3.01
   2   2  -6   78.26    2.10
  -2  -2   6   85.81    3.07
   2   2  -6   79.50    3.07
  -2  -2   6   79.09    3.03
   2   2  -6   78.92    2.18
   2   2  -5  278.22    6.43
   2   2  -5  270.78    5.37
  -2  -2   5  280.81    6.44
   2   2  -5  261.01    6.53
  -2  -2   5  271.44    6.51
   2   2  -5  271.37    5.58
   2   2  -4  313.99    5.98
  -2  -2   4  315.12    6.85
   2   2  -4  315.46    6.84
   2   2  -4  311.93    6.28
   2   2  -4  295.90    6.97
  -2  -2   4  318.03    7.01
   2   2  -3  165.57    3.99
   2   2  -3  168.72    3.45
  -2  -2   3  163.68    3.97
  -2  -2   3  164.46    4.18
   2   2  -3  165.15    4.18
   2   2  -3  165.92    3.21
  -2  -2   3  160.35    3.22
   2   2  -2  592.59   10.94
  -2  -2   2  605.60   11.29
   2   2  -2  597.03   11.28
  -2  -2   2  592.00   10.52
   2   2  -2  570.99   10.48
   2   2  -1   13.51    0.75
  -2  -2   1   13.03    0.97
   2   2  -1   13.14    0.89
   2   2  -1   12.13    0.73
  -2  -2   1   13.63    0.73
  -2  -2   0 1225.79   21.64
   2   2   0 1249.79   21.65
  -2  -2   0 1200.21   21.44
   2   2   0 1219.89   21.43
   2   2   1    6.60    0.67
   2   2   1    5.40    0.62
  -2  -2  -1    6.65    0.76
   2   2   1    6.06    0.71
  -2  -2  -1    6.52    0.63
  -2  -2  -2  488.84    9.45
   2   2   2  500.24    8.85
  -2  -2  -2  486.86    9.47
   2   2   2  489.31    9.44
   2   2   2  504.46    9.50
   2   2   3    2.29    0.43
  -2  -2  -3    1.97    0.66
   2   2   3    2.66    0.55
  -2  -2  -3    1.78    0.57
   2   2   3    2.65    0.72
   2   2   4   26.36    1.19
   2   2   4   27.34    1.36
  -2  -2  -4   26.97    1.44
  -2  -2  -4   26.44    1.34
  -2  -2  -4   27.11    1.23
   2   2   4   26.56    1.41
   2   2   5    5.49    0.70
  -2  -2  -5    4.27    0.68
  -2  -2  -5    6.12    0.89
   2   2   5    6.19    0.82
  -2  -2  -5    5.19    0.72
   2   2   5    5.44    0.80
  -2  -2  -6  712.51   13.76
   2   2   6  713.88   13.78
   2   2   6  730.10   13.96
  -2  -2  -6  715.44   14.02
   2   2   6  702.09   14.01
   2   2   6  744.12   13.78
  -2  -2  -6  697.63   13.70
   2   2   7   61.25    2.42
  -2  -2  -7   62.36    2.44
   2   2   7   57.50    2.37
   2   2   7   61.23    2.54
  -2  -2  -7   58.35    2.49
   2   2   7   60.26    2.29
  -2  -2  -8  217.10    5.78
   2   2   8  227.21    5.79
   2   2   8  224.70    5.88
   2   2   8  228.54    6.03
  -2  -2  -8  226.40    6.03
   2   2   8  223.84    5.51
   2   2   9   17.82    1.41
  -2  -2  -9   18.18    1.57
   2   2   9   21.19    1.61
   2   2   9   21.58    1.70
  -2  -2  -9   20.22    1.67
   2   2   9   18.66    1.48
   2   2   9   18.62    1.33
   2   2  10  195.46    5.54
   2   2  10  206.29    5.91
  -2  -2 -10  189.27    5.74
   2   2  10  187.13    4.06
   2   2  10  198.09    4.11
  -2  -2 -10  188.99    5.85
   2   2  10  199.47    5.82
   2   2  10  198.14    5.94
   2   2  10  200.00    5.21
  -2  -2 -11   48.75    2.75
   2   2  11   51.43    2.57
   2   2  11   54.87    1.37
   2   2  11   49.77    1.34
   2   2  11   50.51    2.79
   2   2  11   48.90    2.27
  -2  -2 -12  168.04    5.77
   2   2  12  171.70    5.35
   2   2  12  166.68    5.73
   2   2  12  173.93    4.92
  -2  -2 -13  171.47    6.10
   2   2  13  175.67    5.58
   2   2  13  172.86    6.06
   2   2  13  179.48    5.08
  -2  -2 -14  125.09    5.28
   2   2  14  123.95    5.17
   2   2  14  126.96    4.13
  -2  -2 -15    3.41    1.19
   2   2  15    1.39    0.86
   2   2  15    4.25    0.83
  -2  -2 -16   16.32    2.06
   2   2  16   18.44    2.22
  -2  -2 -17    4.52    1.30
   2   2  17    6.15    1.48
   2   2  18    8.63    1.55
  -2  -3  15    1.63    1.21
   2   3 -14   44.08    3.41
  -2  -3  14   48.94    3.45
   2   3 -13    9.25    1.60
  -2  -3  13    8.88    1.62
   2   3 -12    6.76    1.46
  -2  -3  12    6.90    1.35
   2   3 -11   42.43    2.88
  -2  -3  11   43.02    2.87
   2   3 -10    5.88    1.29
  -2  -3  10    3.95    1.01
   2   3  -9    8.56    1.31
  -2  -3   9    5.42    1.17
   2   3  -9    6.14    0.42
   2   3  -8   39.30    2.37
   2   3  -8   37.90    2.41
  -2  -3   8   37.29    2.34
   2   3  -8   37.14    1.28
   2   3  -7   48.31    2.47
   2   3  -7   45.53    2.49
  -2  -3   7   47.85    2.52
   2   3  -7   42.56    1.49
   2   3  -6   22.86    0.76
   2   3  -6   24.11    1.66
   2   3  -6   21.07    1.66
  -2  -3   6   19.88    1.60
   2   3  -6   20.12    1.02
   2   3  -5  520.22   10.64
   2   3  -5  498.08    8.90
   2   3  -5  500.70   10.79
  -2  -3   5  503.48   10.75
   2   3  -4  442.65    7.93
   2   3  -4  447.55    9.30
   2   3  -4  443.70    9.56
  -2  -3   4  447.39    9.51
   2   3  -3  411.16    8.40
   2   3  -3  406.42    8.67
  -2  -3   3  409.04    8.62
   2   3  -3  403.19    7.38
   2   3  -2  196.21    4.49
  -2  -3   2  203.54    4.74
   2   3  -2  187.86    4.71
   2   3  -2  190.30    3.94
   2   3  -1  183.37    4.40
  -2  -3   1  185.47    4.43
   2   3  -1  189.08    3.98
  -2  -3   0  210.40    4.78
   2   3   0  218.84    4.77
   2   3   0  213.74    4.56
  -2  -3  -1    1.23    0.56
   2   3   1    1.18    0.50
   2   3   1    2.33    0.67
   2   3   2  180.56    4.04
   2   3   2  178.06    4.13
   2   3   2  176.79    4.19
  -2  -3  -2  173.50    4.13
   2   3   3   23.34    0.70
  -2  -3  -3   20.02    1.23
   2   3   3   22.14    1.33
   2   3   3   23.02    1.24
   2   3   4  131.56    3.59
   2   3   4  127.49    3.18
   2   3   4  126.18    2.74
   2   3   4  130.14    3.44
  -2  -3  -4  128.20    3.43
   2   3   4  132.32    3.54
   2   3   5    7.20    0.84
   2   3   5    6.89    0.75
   2   3   5    8.08    0.92
   2   3   5    6.52    0.78
  -2  -3  -5    8.09    0.94
   2   3   6   70.53    2.62
   2   3   6   68.27    2.43
   2   3   6   67.04    2.50
  -2  -3  -6   70.98    2.58
  -2  -3  -6   71.53    2.47
   2   3   6   68.87    2.50
   2   3   7  187.74    5.03
   2   3   7  181.11    4.84
  -2  -3  -7  186.75    4.98
   2   3   7  184.35    4.96
  -2  -3  -7  183.00    4.84
   2   3   7  188.63    4.84
   2   3   8   78.43    3.01
   2   3   8   72.46    2.86
  -2  -3  -8   74.39    2.93
   2   3   8   77.93    2.98
   2   3   8   78.74    2.81
  -2  -3  -8   72.02    2.86
   2   3   9   74.32    3.04
   2   3   9   82.01    3.20
   2   3   9   79.23    2.40
  -2  -3  -9   74.61    3.12
   2   3   9   76.65    3.12
   2   3   9   80.47    3.06
  -2  -3  -9   73.57    3.06
   2   3   9   77.89    2.88
   2   3  10    4.72    0.88
  -2  -3 -10    4.18    0.96
   2   3  10    4.56    0.83
   2   3  10    4.92    0.57
   2   3  10    4.48    0.89
   2   3  10    4.79    0.82
  -2  -3 -10    4.45    1.02
   2   3  10    5.13    0.90
   2   3  11  564.13   12.40
   2   3  11  566.84   10.64
   2   3  11  558.32   12.45
  -2  -3 -11  532.11   12.55
   2   3  11  565.00   11.90
  -2  -3 -11  560.95   12.68
   2   3  12   -0.23    0.54
  -2  -3 -12    0.36    0.95
   2   3  12    0.62    0.31
   2   3  12   -0.47    0.75
   2   3  12    0.52    0.52
   2   3  13   96.82    2.11
   2   3  13   87.66    2.10
   2   3  13   98.54    4.18
   2   3  13  100.41    3.61
  -2  -3 -13   95.12    4.27
   2   3  14   61.64    3.39
   2   3  14   67.15    2.93
  -2  -3 -14   56.95    3.45
   2   3  15   78.14    4.07
  -2  -3 -15   84.59    4.40
   2   3  15   87.14    3.43
   2   3  16   72.33    4.09
  -2  -3 -16   81.02    4.50
  -2  -3 -17   -1.07    1.03
   2   3  17   -1.17    1.19
   2   3  18   43.95    3.35
   2   4 -14   10.75    1.88
  -2  -4  14    9.29    1.74
   2   4 -13    7.84    1.61
  -2  -4  13    7.93    1.77
   2   4 -12    1.14    1.07
  -2  -4  12    2.33    1.12
   2   4 -11   33.79    2.66
  -2  -4  11   30.71    2.55
   2   4 -10   69.99    3.67
  -2  -4  10   69.88    3.71
   2   4  -9   15.66    1.73
  -2  -4   9   16.54    1.76
   2   4  -9   18.04    0.83
   2   4  -9   18.26    0.79
   2   4  -8   44.40    2.63
  -2  -4   8   41.95    2.61
   2   4  -8   44.01    1.50
   2   4  -7  191.86    5.75
   2   4  -7  194.43    6.04
  -2  -4   7  184.29    5.79
   2   4  -6  123.07    4.18
   2   4  -6  131.10    4.49
  -2  -4   6  118.78    4.25
   2   4  -5  357.10    8.23
   2   4  -5  359.71    8.56
  -2  -4   5  339.58    8.33
   2   4  -4  146.31    4.26
  -2  -4   4  138.50    4.32
   2   4  -4  151.85    4.50
   2   4  -4  148.13    3.05
   2   4  -3 1239.53   21.64
   2   4  -3 1309.90   23.25
   2   4  -3 1272.26   23.54
  -2  -4   3 1244.79   23.40
   2   4  -3 1290.91   22.03
   2   4  -2  209.65    5.21
  -2  -4   2  201.75    5.10
   2   4  -1  336.95    7.30
  -2  -4   1  344.44    7.30
   2   4   0  183.56    3.98
  -2  -4   0  179.58    4.36
   2   4   0  175.35    4.30
   2   4   1  234.57    5.07
  -2  -4  -1  239.06    5.20
   2   4   1  232.17    5.16
   2   4   2  297.17    6.26
   2   4   2  290.02    6.09
  -2  -4  -2  294.67    6.10
  -2  -4  -2  289.11    6.26
   2   4   3   23.75    1.36
  -2  -4  -3   24.98    0.90
   2   4   3   24.94    1.20
  -2  -4  -3   25.09    1.38
   2   4   3   23.29    1.29
   2   4   4    1.31    0.39
   2   4   4    1.28    0.59
   2   4   4    0.80    0.52
   2   4   4    1.28    0.74
  -2  -4  -4    0.54    0.63
   2   4   5  425.40    8.96
   2   4   5  412.41    7.92
   2   4   5  416.09    8.66
  -2  -4  -5  422.09    8.65
   2   4   5  412.76    8.52
   2   4   5  422.98    8.84
   2   4   6   39.08    1.97
   2   4   6   37.52    1.77
   2   4   6   37.48    1.47
  -2  -4  -6   36.53    1.80
   2   4   6   35.55    1.76
   2   4   6   40.73    1.91
   2   4   7  271.21    6.66
   2   4   7  262.27    6.36
  -2  -4  -7  265.11    6.38
   2   4   7  268.42    6.43
   2   4   7  269.87    6.46
   2   4   8  130.55    4.22
   2   4   8  132.25    4.11
   2   4   8  139.59    4.17
  -2  -4  -8  122.59    3.98
   2   4   8  132.63    4.04
   2   4   9  142.08    4.58
   2   4   9  149.50    4.59
   2   4   9  138.63    3.84
  -2  -4  -9  136.79    4.41
   2   4   9  147.46    4.53
   2   4   9  141.22    4.33
   2   4  10   75.90    3.23
   2   4  10   72.31    3.16
   2   4  10   71.01    2.47
  -2  -4 -10   70.70    3.09
   2   4  10   73.53    3.14
   2   4  10   66.65    2.80
   2   4  10   72.42    2.94
  -2  -4 -10   69.32    3.12
   2   4  11   46.75    2.57
   2   4  11   46.47    1.88
  -2  -4 -11   43.37    2.51
   2   4  11   47.02    2.43
  -2  -4 -11   44.49    2.58
   2   4  11   45.23    2.33
   2   4  12  194.43    4.67
  -2  -4 -12  186.59    6.04
   2   4  12  201.87    5.95
   2   4  12  191.22    5.60
  -2  -4 -12  193.86    6.21
   2   4  13  116.83    3.11
   2   4  13  111.21    4.35
   2   4  13  108.24    4.01
  -2  -4 -13  116.55    4.76
  -2  -4 -14   23.47    2.20
   2   4  14   27.87    1.18
   2   4  14   25.98    2.11
   2   4  14   22.38    1.75
   2   4  15   76.13    3.83
  -2  -4 -15   77.76    4.20
   2   4  15   79.45    3.41
  -2  -4 -16   11.24    1.73
   2   4  16    8.27    1.38
   2   4  16    8.87    1.17
   2   4  17   27.14    2.49
   2   4  18    0.34    1.07
  -2  -5  14    0.43    1.17
   2   5 -13   -0.78    1.17
  -2  -5  13   -0.11    1.10
   2   5 -12    0.41    1.00
  -2  -5  12   -1.00    0.97
   2   5 -11    5.91    1.36
  -2  -5  11    7.21    1.55
   2   5 -10   52.20    3.27
  -2  -5  10   49.44    3.23
   2   5  -9   -0.09    0.92
  -2  -5   9    1.05    0.76
   2   5  -9    0.03    0.26
   2   5  -9    0.05    0.30
   2   5  -8  249.74    7.40
  -2  -5   8  251.32    7.56
   2   5  -8  260.08    5.59
   2   5  -7   22.44    1.87
  -2  -5   7   21.63    1.91
   2   5  -6  670.29   14.36
   2   5  -6  690.92   14.85
  -2  -5   6  669.07   14.57
   2   5  -5  112.02    3.90
   2   5  -5  113.66    4.10
  -2  -5   5  106.04    3.94
   2   5  -5  106.78    2.45
   2   5  -4  130.45    4.16
   2   5  -4  138.52    4.42
  -2  -5   4  126.57    4.26
   2   5  -3  438.40    7.78
  -2  -5   3  429.74    9.65
   2   5  -3  456.83    9.84
   2   5  -2  323.50    6.21
   2   5  -2  331.92    7.63
  -2  -5   2  343.38    7.59
   2   5  -1  743.78   13.53
   2   5  -1  745.30   14.62
  -2  -5   1  762.08   14.54
   2   5   0   39.26    1.49
  -2  -5   0   38.26    1.75
   2   5   0   43.38    1.84
   2   5   1    6.87    0.72
   2   5   1    6.89    0.76
  -2  -5  -1    6.74    0.83
   2   5   2   -0.35    0.49
  -2  -5  -2    0.07    0.52
   2   5   2    0.25    0.45
   2   5   3    0.39    0.51
  -2  -5  -3    0.01    0.35
   2   5   3    0.44    0.41
  -2  -5  -3    0.63    0.56
   2   5   4   31.83    1.65
  -2  -5  -4   29.59    1.18
   2   5   4   29.61    1.33
  -2  -5  -4   27.82    1.46
   2   5   4   28.68    1.48
   2   5   5    1.50    0.35
   2   5   5    1.97    0.64
  -2  -5  -5    2.07    0.67
   2   5   5    1.55    0.54
   2   5   6  188.73    5.14
   2   5   6  185.53    4.28
  -2  -5  -6  182.44    4.73
   2   5   6  189.90    4.87
   2   5   6  183.46    4.78
   2   5   7   80.98    2.92
   2   5   7   79.89    3.11
   2   5   7   78.27    2.47
  -2  -5  -7   75.42    2.78
   2   5   7   76.12    2.82
   2   5   7   77.03    2.95
   2   5   8  208.07    5.59
   2   5   8  205.29    5.76
   2   5   8  205.66    5.01
   2   5   8  203.29    5.45
  -2  -5  -8  197.79    5.36
   2   5   8  209.47    5.60
   2   5   9    3.09    0.66
   2   5   9    4.58    0.76
   2   5   9    3.75    0.82
   2   5   9    2.91    0.69
   2   5   9    2.88    0.68
  -2  -5  -9    3.93    0.83
   2   5   9    4.61    0.89
   2   5  10  302.45    7.85
   2   5  10  309.07    7.81
   2   5  10  289.19    6.92
   2   5  10  300.05    7.57
  -2  -5 -10  289.27    7.46
   2   5  10  300.17    7.51
   2   5  11   48.36    2.14
   2   5  11   51.57    2.65
  -2  -5 -11   46.38    2.56
   2   5  11   46.86    2.34
   2   5  11   43.10    2.37
   2   5  12   37.00    1.84
   2   5  12   39.37    2.26
  -2  -5 -12   40.85    2.51
   2   5  12   38.55    2.29
   2   5  13  264.61    6.16
  -2  -5 -13  245.48    7.42
   2   5  13  262.09    7.19
   2   5  13  259.09    7.12
   2   5  14   79.24    2.63
   2   5  14   78.69    3.57
   2   5  14   74.33    3.39
   2   5  15   73.98    3.62
   2   5  15   75.92    3.47
   2   5  16    9.47    1.37
   2   5  16   10.56    1.35
   2   5  17    5.09    1.23
   2   5  18   10.24    1.65
   2   6 -13    3.93    1.42
  -2  -6  13    4.89    1.53
   2   6 -12   10.78    1.81
  -2  -6  12    9.43    1.72
   2   6 -11   20.72    2.25
  -2  -6  11   20.20    2.36
   2   6 -10   36.78    2.83
  -2  -6  10   37.87    2.94
   2   6  -9  163.48    6.04
  -2  -6   9  158.63    6.14
   2   6  -9  162.51    3.93
   2   6  -9  169.61    3.97
   2   6  -8   89.43    4.08
  -2  -6   8   87.82    4.17
   2   6  -8   90.90    2.77
   2   6  -7   30.27    2.23
   2   6  -7   32.40    1.58
  -2  -6   7   27.44    2.26
   2   6  -6  128.64    4.62
   2   6  -6  130.08    3.66
  -2  -6   6  119.49    4.65
   2   6  -6  121.71    2.81
   2   6  -6  123.93    2.78
   2   6  -5   80.91    3.42
  -2  -6   5   78.00    3.48
   2   6  -5   79.60    3.53
   2   6  -4  567.73   12.24
   2   6  -4  591.32   12.59
  -2  -6   4  530.99   12.25
   2   6  -3  499.73    8.87
   2   6  -3  517.49   11.14
  -2  -6   3  475.94   10.91
   2   6  -2  779.88   14.11
   2   6  -2  818.49   15.91
  -2  -6   2  794.13   15.71
   2   6  -1   28.65    1.20
   2   6  -1   27.48    1.72
  -2  -6   1   30.73    1.73
   2   6   0  117.87    3.10
   2   6   0  121.06    3.63
  -2  -6   0  115.47    3.55
   2   6   1    6.24    0.72
  -2  -6  -1    6.32    0.83
   2   6   2    1.40    0.53
   2   6   2    2.01    0.58
  -2  -6  -2    1.58    0.57
   2   6   3    4.19    0.74
  -2  -6  -3    4.19    0.81
  -2  -6  -3    4.40    0.66
   2   6   3    4.22    0.60
  -2  -6  -3    5.02    0.84
  -2  -6  -4    8.35    1.00
   2   6   4    7.60    0.92
  -2  -6  -4    8.44    0.71
   2   6   4    7.30    0.70
  -2  -6  -4    8.05    0.90
  -2  -6  -5  257.49    6.34
   2   6   5  259.39    6.33
  -2  -6  -5  240.41    5.42
   2   6   5  255.62    5.46
  -2  -6  -5  251.46    5.88
   2   6   5  243.06    5.88
   2   6   6   36.60    2.02
  -2  -6  -6   36.03    2.03
   2   6   6   36.80    1.56
  -2  -6  -6   34.16    1.73
   2   6   6   35.36    1.48
   2   6   6   34.41    1.75
   2   6   7  106.37    3.76
   2   6   7  104.35    3.03
  -2  -6  -7   99.83    3.29
   2   6   7  103.90    3.53
   2   6   7  103.50    3.38
   2   6   8  118.08    4.10
   2   6   8  113.55    3.85
   2   6   8  108.15    3.67
   2   6   8  106.99    3.25
  -2  -6  -8  109.03    3.58
   2   6   8  106.47    3.59
   2   6   9    7.07    0.95
   2   6   9    7.71    0.93
   2   6   9    7.17    1.07
   2   6   9    7.73    1.08
   2   6   9    7.09    0.96
  -2  -6  -9    9.24    1.09
   2   6   9    7.07    1.07
   2   6  10  282.15    7.40
   2   6  10  270.21    6.79
   2   6  10  259.45    6.59
   2   6  10  282.37    7.12
  -2  -6 -10  257.28    6.88
   2   6  10  279.52    7.25
   2   6  11  177.58    5.12
   2   6  11  185.65    5.29
   2   6  11  189.11    5.60
  -2  -6 -11  172.15    5.41
   2   6  11  184.85    5.08
   2   6  11  183.05    5.61
   2   6  12  168.05    4.78
   2   6  12  155.97    4.99
  -2  -6 -12  151.70    5.17
   2   6  12  159.23    4.84
   2   6  12  161.21    5.28
   2   6  13   74.52    2.89
   2   6  13   70.30    3.26
  -2  -6 -13   67.44    3.37
   2   6  13   70.19    3.11
   2   6  13   67.08    3.28
   2   6  14   25.19    1.59
   2   6  14   23.33    1.97
  -2  -6 -14   22.85    2.08
   2   6  14   24.81    1.91
   2   6  14   25.91    2.05
   2   6  15   54.54    3.16
   2   6  15   62.65    3.16
   2   6  15   55.27    3.08
   2   6  16   26.06    2.24
   2   6  16   28.03    2.17
   2   6  16   27.44    2.22
   2   6  17   -0.69    0.77
   2   6  17    0.63    0.81
   2   6  17   -0.70    0.70
   2   6  18   87.14    4.49
   2   6  19   21.97    2.40
   2   7 -12    8.34    1.85
  -2  -7  12    5.86    1.45
   2   7 -11   55.33    3.79
  -2  -7  11   52.34    3.70
   2   7 -10    1.12    1.06
  -2  -7  10    4.50    1.46
   2   7  -9  198.52    6.99
  -2  -7   9  192.79    7.12
   2   7  -9  201.76    4.78
   2   7  -8  135.78    5.38
   2   7  -8  136.05    3.82
  -2  -7   8  131.45    5.44
   2   7  -7   69.48    3.57
   2   7  -7   77.45    2.72
  -2  -7   7   68.22    3.71
   2   7  -7   66.18    1.80
   2   7  -7   72.61    1.87
   2   7  -6   37.40    2.51
   2   7  -6   38.30    1.89
  -2  -7   6   36.74    2.55
   2   7  -6   34.76    1.36
   2   7  -5  264.22    7.42
  -2  -7   5  256.27    7.42
   2   7  -5  268.46    6.50
   2   7  -4  135.11    4.73
  -2  -7   4  116.91    4.39
   2   7  -3  356.46    6.69
   2   7  -3  390.22    9.10
  -2  -7   3  364.31    8.83
   2   7  -2  112.61    2.80
   2   7  -2  117.97    4.11
  -2  -7   2  118.50    4.01
   2   7  -1  114.49    3.01
   2   7  -1  114.08    3.89
  -2  -7   1  115.33    3.83
   2   7   0   19.85    1.14
   2   7   0   20.13    1.43
  -2  -7   0   17.65    1.34
   2   7   1    0.28    0.43
   2   7   1    0.19    0.49
  -2  -7  -1    0.82    0.63
   2   7   2    6.68    0.82
  -2  -7  -2    6.95    0.86
   2   7   2    7.90    0.85
  -2  -7  -2    9.10    0.91
   2   7   3   10.22    1.03
  -2  -7  -3   10.49    1.06
  -2  -7  -3   12.65    0.99
   2   7   3   12.12    0.94
  -2  -7  -3   12.18    1.11
  -2  -7  -4   38.27    2.03
   2   7   4   40.15    2.01
  -2  -7  -4   38.77    1.69
   2   7   4   39.32    1.63
  -2  -7  -4   35.04    1.78
   2   7   5  379.11    8.55
  -2  -7  -5  358.06    8.43
  -2  -7  -5  355.17    7.63
  -2  -7  -5  360.34    7.93
   2   7   5  362.91    7.43
  -2  -7  -6    1.35    0.75
   2   7   6    1.90    0.67
  -2  -7  -6    0.93    0.41
   2   7   6    2.37    0.50
  -2  -7  -6    0.82    0.57
   2   7   7   63.52    2.89
  -2  -7  -7   53.35    2.71
   2   7   7   60.69    2.28
   2   7   7   59.71    2.73
   2   7   7   57.32    2.00
  -2  -7  -7   56.46    2.36
   2   7   7   58.01    2.42
   2   7   8    6.29    0.98
   2   7   8    3.11    0.60
   2   7   8    3.59    0.88
  -2  -7  -8    4.19    0.93
   2   7   8    3.44    0.82
  -2  -7  -8    3.99    0.78
   2   7   8    5.57    0.88
   2   7   9   83.30    3.57
   2   7   9   81.03    3.27
   2   7   9   78.20    2.86
  -2  -7  -9   76.37    3.03
   2   7   9   76.80    3.06
   2   7   9   82.89    3.41
   2   7  10   39.80    2.24
   2   7  10   40.13    2.05
  -2  -7 -10   38.66    2.17
   2   7  10   36.10    2.11
   2   7  10   37.74    2.34
   2   7  11  441.25   10.27
   2   7  11  443.94   10.10
   2   7  11  464.54   10.51
   2   7  11  453.37    9.65
  -2  -7 -11  449.52   10.38
   2   7  11  460.07   10.83
   2   7  12  257.82    6.89
   2   7  12  262.66    6.98
  -2  -7 -12  253.34    7.13
   2   7  12  272.00    6.62
   2   7  12  258.31    7.41
   2   7  13  119.44    4.41
   2   7  13  130.01    4.31
  -2  -7 -13  119.07    4.58
   2   7  13  130.74    4.23
   2   7  13  122.93    4.75
   2   7  14    5.80    1.01
   2   7  14    3.45    0.82
   2   7  14    3.49    0.78
   2   7  14    2.98    0.87
  -2  -7 -14    4.26    1.16
   2   7  15   42.94    2.25
   2   7  15   37.95    2.56
   2   7  15   41.03    2.41
   2   7  15   39.94    2.68
   2   7  16   24.45    2.15
   2   7  16   28.30    2.15
   2   7  16   24.03    2.16
   2   7  17   -0.34    0.84
   2   7  17    1.36    0.90
   2   7  18   13.89    1.84
   2   7  19   19.09    2.21
   2   8 -11   34.68    3.07
  -2  -8  11   38.86    3.36
   2   8 -10   35.39    2.99
  -2  -8  10   37.98    3.19
   2   8  -9   22.95    2.41
  -2  -8   9   30.71    2.80
   2   8  -8  102.23    4.83
   2   8  -8  115.15    3.59
  -2  -8   8  111.96    5.12
   2   8  -7   18.18    2.02
   2   8  -7   18.76    1.38
  -2  -8   7   21.20    2.14
   2   8  -7   16.39    0.91
   2   8  -6  336.69    9.37
   2   8  -6  358.23    8.19
  -2  -8   6  328.80    9.45
   2   8  -6  342.61    7.19
   2   8  -5   23.45    2.08
  -2  -8   5   23.19    2.07
   2   8  -5   25.71    1.70
  -2  -8   4  221.51    6.77
   2   8  -4  230.51    6.13
   2   8  -3  235.64    4.76
  -2  -8   3  236.05    6.78
   2   8  -3  254.80    7.06
   2   8  -3  236.87    6.33
   2   8  -2    4.53    0.53
  -2  -8   2    4.36    0.97
   2   8  -2    5.28    0.94
   2   8  -2    6.19    0.95
   2   8  -1  233.62    5.34
  -2  -8   1  233.02    6.34
   2   8  -1  249.36    6.54
   2   8   0   16.04    1.08
   2   8   0   17.44    1.41
  -2  -8   0   15.40    1.35
  -2  -8  -1  173.52    4.58
   2   8   1  166.69    4.52
   2   8   1  176.36    4.88
  -2  -8  -1  178.95    4.87
   2   8   2   11.80    1.08
  -2  -8  -2   11.90    1.08
   2   8   2   10.13    1.02
  -2  -8  -2   11.55    1.04
   2   8   3   55.50    2.43
  -2  -8  -3   57.22    2.45
   2   8   3   53.20    2.17
  -2  -8  -3   53.44    2.14
  -2  -8  -4   30.20    1.84
   2   8   4   34.61    1.95
  -2  -8  -4   30.64    1.64
  -2  -8  -4   31.53    1.53
   2   8   4   30.09    1.51
  -2  -8  -4   32.97    1.79
   2   8   5  177.26    5.18
  -2  -8  -5  172.81    5.14
   2   8   5  176.22    5.34
  -2  -8  -5  168.83    4.54
   2   8   5  170.25    4.21
  -2  -8  -5  169.20    4.66
   2   8   6   16.65    1.48
  -2  -8  -6   17.42    1.55
  -2  -8  -6   16.46    1.19
   2   8   6   19.52    1.65
  -2  -8  -6   15.76    1.25
   2   8   6   17.24    1.04
   2   8   7    9.99    1.21
  -2  -8  -7    9.95    1.30
   2   8   7   10.22    1.27
  -2  -8  -7   10.08    0.99
   2   8   7   11.60    0.85
  -2  -8  -7   10.72    1.05
  -2  -8  -8  294.58    8.03
   2   8   8  312.39    8.15
   2   8   8  314.69    7.20
   2   8   8  302.59    7.91
   2   8   8  303.29    6.48
  -2  -8  -8  297.95    7.21
   2   8   8  304.29    7.36
  -2  -8  -9  117.75    4.49
   2   8   9  116.16    3.73
   2   8   9  105.20    4.09
  -2  -8  -9  110.63    3.75
   2   8   9  110.71    3.13
   2   8   9  109.93    3.80
  -2  -8 -10  259.39    7.61
   2   8  10  260.52    6.66
   2   8  10  267.73    7.23
  -2  -8 -10  264.00    6.78
   2   8  10  256.86    6.82
   2   8  11  134.22    4.71
   2   8  11  133.59    4.42
  -2  -8 -11  137.15    4.54
   2   8  11  141.29    4.63
   2   8  12  114.43    4.29
   2   8  12  117.71    4.19
  -2  -8 -12  110.91    4.18
   2   8  12  119.68    3.66
   2   8  12  116.67    4.64
   2   8  13  165.80    5.37
   2   8  13  166.14    5.38
  -2  -8 -13  155.36    5.36
   2   8  13  171.57    4.82
   2   8  13  163.31    5.79
   2   8  14   47.36    2.71
   2   8  14   41.58    2.47
   2   8  14   49.53    2.41
  -2  -8 -14   39.03    2.61
   2   8  14   49.35    3.03
   2   8  15  105.17    4.43
   2   8  15  115.42    4.25
  -2  -8 -15  106.55    4.55
   2   8  15  111.85    4.00
   2   8  15  109.41    4.79
   2   8  16    3.19    0.93
   2   8  16    2.54    0.96
   2   8  17    4.53    1.06
   2   8  17    5.13    1.23
   2   8  18    3.75    1.00
   2   9 -10  110.79    5.49
  -2  -9  10   98.18    5.36
   2   9  -9   21.00    2.41
  -2  -9   9   23.02    2.57
   2   9  -8   76.32    4.25
  -2  -9   8   66.55    4.08
   2   9  -7   25.92    2.39
   2   9  -7   29.89    1.86
  -2  -9   7   28.79    2.59
   2   9  -6  149.39    5.80
   2   9  -6  148.48    4.72
  -2  -9   6  144.02    5.73
   2   9  -6  148.90    4.02
   2   9  -5  128.61    5.23
   2   9  -5  145.50    4.64
  -2  -9   5  135.47    5.32
   2   9  -5  133.77    3.92
  -2  -9   4    8.20    1.34
   2   9  -4    7.66    1.08
   2   9  -3   30.46    1.18
  -2  -9   3   31.53    2.26
   2   9  -3   29.58    1.99
   2   9  -2  125.60    3.31
  -2  -9   2  132.82    4.68
   2   9  -2  130.43    4.49
   2   9  -1   55.65    2.11
   2   9  -1   63.11    2.97
  -2  -9   1   52.88    2.82
   2   9  -1   63.21    2.95
   2   9   0    7.18    0.82
  -2  -9   0    9.13    1.18
   2   9   0    8.46    1.10
   2   9   0    7.05    1.06
  -2  -9  -1    4.40    0.78
   2   9   1    2.86    0.65
  -2  -9  -1    2.98    0.73
   2   9   1    4.18    0.83
   2   9   1    3.61    0.89
  -2  -9  -2  175.05    4.91
   2   9   2  172.10    4.90
   2   9   2  178.04    4.92
  -2  -9  -2  170.40    4.82
   2   9   2  174.48    5.49
  -2  -9  -3  252.40    6.58
   2   9   3  261.48    6.66
   2   9   3  266.86    7.22
   2   9   3  257.98    6.26
  -2  -9  -3  255.44    6.20
   2   9   4   13.54    1.34
  -2  -9  -4   16.43    1.46
   2   9   4   14.12    1.49
  -2  -9  -4   16.00    1.30
   2   9   4   14.57    1.12
  -2  -9  -4   13.28    1.06
  -2  -9  -4   15.01    1.29
  -2  -9  -5  168.52    5.23
   2   9   5  170.50    5.25
   2   9   5  176.73    5.54
  -2  -9  -5  167.16    4.74
   2   9   5  166.73    4.31
  -2  -9  -5  164.87    4.72
  -2  -9  -6   47.23    2.59
   2   9   6   44.76    2.50
   2   9   6   46.48    1.82
  -2  -9  -6   44.18    2.13
   2   9   6   45.75    2.64
  -2  -9  -6   44.22    2.14
  -2  -9  -7   37.69    2.41
  -2  -9  -7   38.04    1.97
   2   9   7   35.99    1.54
   2   9   7   39.43    2.43
  -2  -9  -7   34.56    1.90
  -2  -9  -8   53.80    2.96
   2   9   8   49.83    2.81
  -2  -9  -8   49.53    2.50
   2   9   8   54.19    1.90
  -2  -9  -8   54.68    2.43
  -2  -9  -9    7.10    1.21
   2   9   9    7.63    1.25
   2   9   9    7.27    0.70
  -2  -9  -9    7.45    1.02
  -2  -9 -10  343.26    9.40
   2   9  10  341.09    9.00
   2   9  10  351.42    8.41
  -2  -9 -10  343.14    8.30
   2   9  10  350.88    7.28
   2   9  10  344.78    8.41
  -2  -9 -11   36.82    2.67
   2   9  11   35.58    2.40
   2   9  11   33.82    2.09
  -2  -9 -11   36.49    2.15
   2   9  11   35.80    1.60
   2   9  11   34.32    2.12
   2   9  12  221.93    6.77
   2   9  12  220.11    6.38
   2   9  12  217.94    5.33
  -2  -9 -12  219.16    6.34
   2   9  12  237.65    5.48
   2   9  12  218.76    6.42
   2   9  13   49.84    2.75
   2   9  13   54.70    3.02
   2   9  13   57.33    2.32
  -2  -9 -13   51.49    2.81
   2   9  13   58.01    3.36
   2   9  14    8.23    1.21
   2   9  14    7.40    1.24
   2   9  14    8.64    1.01
   2   9  14   10.24    1.65
  -2  -9 -14    8.53    1.30
   2   9  15   29.51    2.27
   2   9  15   33.50    2.34
  -2  -9 -15   30.76    2.35
   2   9  15   30.87    2.60
   2   9  16    1.56    0.96
   2   9  16    0.74    0.65
   2   9  16    1.80    1.02
   2   9  17   -0.08    0.81
   2   9  17   -0.18    0.95
   2   9  18    1.86    1.12
   2   9  18    0.16    0.94
   2  10  -9   70.89    4.41
  -2 -10   9   77.29    4.64
   2  10  -8   29.79    2.73
  -2 -10   8   32.15    2.90
   2  10  -7   26.24    2.57
  -2 -10   7   23.36    2.43
   2  10  -7   28.66    1.94
   2  10  -6   30.22    2.66
  -2 -10   6   33.94    2.77
   2  10  -6   35.08    2.19
   2  10  -5   31.60    2.65
  -2 -10   5   30.69    2.52
   2  10  -5   31.22    2.09
  -2 -10   4  367.48   10.03
   2  10  -4  371.41    9.28
  -2 -10   3   21.15    1.97
   2  10  -3   15.57    1.56
   2  10  -2  107.80    3.09
  -2 -10   2  110.96    4.38
   2  10  -2  109.36    4.26
   2  10  -1    1.74    0.48
  -2 -10   1    1.71    0.81
   2  10  -1    1.33    0.79
   2  10   0   12.50    1.10
  -2 -10   0   14.47    1.41
   2  10   0   14.53    1.43
   2  10   0   13.49    1.54
  -2 -10  -1   25.01    1.62
   2  10   1   20.88    1.49
   2  10   1   24.90    1.82
  -2 -10  -1   24.28    1.74
   2  10   1   26.01    2.02
  -2 -10  -2   31.28    1.87
   2  10   2   27.61    1.80
   2  10   2   24.30    1.69
  -2 -10  -2   29.61    1.82
   2  10   2   29.66    2.20
  -2 -10  -3   37.30    2.18
   2  10   3   37.33    2.18
   2  10   3   40.94    2.60
   2  10   3   41.21    2.08
  -2 -10  -3   41.70    2.04
  -2 -10  -4    5.45    0.94
   2  10   4    6.21    1.01
   2  10   4    6.12    1.18
  -2 -10  -4    5.53    0.92
   2  10   4    5.74    0.84
  -2 -10  -4    5.76    0.80
  -2 -10  -4    5.17    0.90
   2  10   5  206.88    6.14
  -2 -10  -5  201.08    6.06
   2  10   5  208.43    6.48
  -2 -10  -5  199.55    5.63
   2  10   5  201.01    5.11
  -2 -10  -5  201.56    5.08
  -2 -10  -5  208.18    5.61
  -2 -10  -6   50.64    2.77
   2  10   6   50.30    2.01
  -2 -10  -6   47.73    2.31
   2  10   6   50.24    2.91
  -2 -10  -6   48.58    2.41
  -2 -10  -7  141.79    5.14
   2  10   7  147.63    3.81
  -2 -10  -7  151.58    4.50
   2  10   7  155.42    5.43
  -2 -10  -7  139.20    4.48
  -2 -10  -8   42.47    2.70
   2  10   8   43.64    2.73
  -2 -10  -8   42.08    2.26
  -2 -10  -8   43.02    2.17
   2  10   8   41.14    1.65
  -2 -10  -9    8.41    1.33
   2  10   9   10.91    1.45
   2  10   9   10.13    0.77
  -2 -10  -9   10.27    1.15
  -2 -10 -10   76.25    3.86
   2  10  10   72.34    3.63
  -2 -10 -10   72.26    3.06
   2  10  10   75.55    2.28
  -2 -10 -11   73.02    3.88
   2  10  11   68.09    3.55
   2  10  11   71.97    3.23
   2  10  11   75.49    2.28
  -2 -10 -11   68.78    3.07
   2  10  11   70.58    3.13
   2  10  12  111.81    4.65
   2  10  12  112.56    4.27
  -2 -10 -12  109.45    4.07
   2  10  12  112.24    3.10
   2  10  12  106.16    4.10
   2  10  13   89.20    4.09
   2  10  13   85.58    3.77
  -2 -10 -13   82.97    3.61
   2  10  14   11.22    1.52
   2  10  14   12.01    1.45
   2  10  14   13.51    1.83
  -2 -10 -14   14.86    1.59
   2  10  15    5.43    1.08
   2  10  15    5.21    1.14
  -2 -10 -15    5.44    1.21
   2  10  15    3.79    1.29
   2  10  16    4.99    1.20
   2  10  16    3.16    1.00
  -2 -10 -16    5.67    1.25
   2  10  16    3.76    1.33
   2  10  17    9.25    1.48
   2  10  17   11.76    1.84
   2  10  18    1.63    1.09
   2  11  -8    8.68    1.84
  -2 -11   8   11.40    1.88
   2  11  -7   43.56    3.41
  -2 -11   7   37.55    3.17
   2  11  -6   33.20    2.87
  -2 -11   6   37.78    3.09
   2  11  -6   35.06    2.32
   2  11  -5   15.25    2.00
  -2 -11   5   15.08    1.94
   2  11  -5   16.32    1.64
  -2 -11   4   83.63    4.24
   2  11  -4   89.02    3.89
  -2 -11   3   91.93    4.28
   2  11  -3   89.97    3.97
   2  11  -2   63.69    2.30
  -2 -11   2   56.69    3.21
   2  11  -2   58.08    3.15
   2  11  -1    3.11    0.62
  -2 -11   1    2.89    0.94
   2  11  -1    3.77    1.07
   2  11   0    4.07    0.76
  -2 -11   0    3.94    1.02
   2  11   0    5.49    1.19
  -2 -11  -1   26.28    1.76
   2  11   1   24.86    1.71
   2  11   1   24.27    1.89
  -2 -11  -1   22.53    1.77
   2  11   1   22.00    2.00
  -2 -11  -2   49.32    2.50
   2  11   2   49.62    2.53
   2  11   2   52.29    2.63
  -2 -11  -2   48.83    2.51
   2  11   2   52.77    3.03
   2  11   3    4.41    0.87
  -2 -11  -3    5.13    0.96
   2  11   3    5.12    1.15
  -2 -11  -3    7.50    0.99
   2  11   3    3.96    0.79
  -2 -11  -4   13.35    1.45
   2  11   4   16.23    1.53
   2  11   4   11.94    1.57
  -2 -11  -4   15.18    1.49
   2  11   4   15.41    1.31
  -2 -11  -4   13.62    1.21
  -2 -11  -4   14.13    1.39
  -2 -11  -5   55.06    2.92
   2  11   5   47.94    2.98
  -2 -11  -5   45.44    2.51
   2  11   5   49.48    2.20
  -2 -11  -5   50.72    2.19
  -2 -11  -5   49.49    2.47
  -2 -11  -6   13.97    1.56
  -2 -11  -6   16.64    1.50
   2  11   6   17.73    1.88
   2  11   6   16.02    1.18
  -2 -11  -6   15.38    1.39
  -2 -11  -7  128.97    5.01
   2  11   7  138.87    3.72
  -2 -11  -7  132.48    4.30
   2  11   7  135.64    5.28
  -2 -11  -7  134.65    4.57
  -2 -11  -8   29.91    2.38
   2  11   8   31.50    1.44
  -2 -11  -8   31.78    1.91
   2  11   8   32.07    2.47
  -2 -11  -8   30.31    2.04
  -2 -11  -9   91.75    4.34
   2  11   9  100.13    2.72
  -2 -11  -9   93.20    3.50
   2  11   9   95.36    4.39
  -2 -11  -9   94.50    3.81
  -2 -11 -10  116.98    5.03
  -2 -11 -10  116.04    4.02
   2  11  10  113.86    2.89
   2  11  10  107.87    4.73
  -2 -11 -11   50.68    3.30
   2  11  11   45.79    3.04
  -2 -11 -11   50.86    2.57
   2  11  12    3.46    1.20
  -2 -11 -12    5.33    1.43
  -2 -11 -12    2.28    0.69
   2  11  13   60.22    3.20
   2  11  13   59.76    3.52
  -2 -11 -13   59.29    2.96
   2  11  14   21.75    2.07
   2  11  14   22.11    2.19
  -2 -11 -14   23.55    1.93
   2  11  14   20.11    2.29
   2  11  15   20.86    2.04
   2  11  15   21.41    2.16
   2  11  15   21.04    2.39
  -2 -11 -15   19.57    1.86
   2  11  16    0.18    0.89
   2  11  16    3.11    1.32
   2  11  16    4.66    1.32
   2  11  17   -0.47    0.92
   2  11  17    0.69    1.09
   2  11  18   -0.21    1.32
  -2 -12   7    7.21    1.65
   2  12  -6   72.65    4.45
  -2 -12   6   73.85    4.43
   2  12  -5   28.15    2.80
  -2 -12   5   30.80    2.74
   2  12  -5   27.63    2.23
  -2 -12   4  112.07    5.14
   2  12  -4  110.84    4.64
  -2 -12   3   61.98    3.64
   2  12  -3   62.33    3.39
  -2 -12   2    6.73    1.33
   2  12  -2    7.61    1.25
  -2 -12   1   28.02    2.23
   2  12  -1   25.46    2.19
   2  12   0    0.62    0.53
  -2 -12   0   -0.12    0.79
   2  12   0    0.86    0.88
   2  12   1   15.28    1.43
  -2 -12  -1   16.91    1.65
   2  12   1   14.94    1.75
  -2 -12  -2   71.20    3.15
   2  12   2   62.54    3.02
  -2 -12  -2   64.53    3.03
   2  12   2   69.30    3.19
   2  12   2   63.63    3.57
   2  12   3    0.87    0.63
  -2 -12  -3   -0.18    0.73
   2  12   3    0.71    0.84
  -2 -12  -3    0.51    0.59
   2  12   3    0.85    0.65
  -2 -12  -4    6.73    1.20
   2  12   4    4.24    1.16
  -2 -12  -4    4.58    0.85
   2  12   4    4.18    0.82
  -2 -12  -4    3.90    0.90
  -2 -12  -5   37.68    2.51
   2  12   5   45.21    3.02
   2  12   5   40.09    2.07
  -2 -12  -5   43.69    2.11
  -2 -12  -5   41.62    2.38
  -2 -12  -6   21.83    1.99
   2  12   6   20.90    2.11
   2  12   6   20.51    1.41
  -2 -12  -6   23.26    1.75
  -2 -12  -7   55.81    3.24
  -2 -12  -7   55.33    2.66
   2  12   7   56.21    2.19
   2  12   7   57.86    3.45
  -2 -12  -8   96.72    4.45
   2  12   8  106.30    4.78
   2  12   8   92.18    2.82
  -2 -12  -8  101.34    3.69
   2  12   9   15.40    1.92
  -2 -12  -9   16.22    1.94
  -2 -12  -9   14.09    1.37
  -2 -12 -10  168.50    6.43
   2  12  10  164.67    6.33
  -2 -12 -10  175.90    5.26
   2  12  11    1.79    1.04
  -2 -12 -11    3.03    1.20
  -2 -12 -11    2.20    0.80
   2  12  12   15.89    2.01
  -2 -12 -12   10.03    1.69
  -2 -12 -12   10.49    1.25
   2  12  13    5.18    1.28
  -2 -12 -13    4.02    0.93
   2  12  14   19.69    2.30
  -2 -12 -14   22.52    1.86
   2  12  15   14.95    1.97
   2  12  15   14.17    2.00
   2  12  16    0.50    1.05
   2  12  16    3.36    1.24
   2  12  16    1.23    1.01
  -2 -13   5   10.74    1.68
   2  13  -5   10.10    1.50
  -2 -13   4  111.74    5.33
   2  13  -4  112.68    4.91
  -2 -13   3   20.08    2.27
   2  13  -3   19.60    2.05
  -2 -13   2   10.50    1.67
   2  13  -2   10.23    1.63
  -2 -13   1   15.98    1.80
   2  13  -1   20.26    2.09
  -2 -13   0    1.77    0.81
   2  13   0    1.99    1.01
  -2 -13  -1    3.19    1.04
   2  13   1    4.01    1.10
  -2 -13  -2   -0.38    0.66
  -2 -13  -2   -0.75    0.88
   2  13   2   -0.85    1.06
  -2 -13  -3   24.37    1.97
   2  13   3   22.83    2.26
   2  13   3   23.40    1.85
  -2 -13  -3   22.85    1.78
  -2 -13  -4   15.18    1.64
   2  13   4   13.49    1.77
   2  13   4   12.20    1.37
  -2 -13  -4   14.38    1.39
  -2 -13  -4   12.50    1.47
  -2 -13  -5   43.17    2.76
   2  13   5   43.24    3.09
  -2 -13  -5   39.36    2.08
   2  13   5   35.70    2.09
  -2 -13  -5   38.28    2.38
   2  13   6   10.79    1.76
  -2 -13  -6   10.42    1.59
  -2 -13  -6    9.00    1.23
  -2 -13  -7  125.12    5.21
  -2 -13  -7  130.17    4.46
   2  13   7  134.19    5.67
  -2 -13  -8   30.62    2.57
   2  13   8   31.91    2.73
  -2 -13  -8   32.69    2.07
   2  13   9    5.58    1.42
  -2 -13  -9    4.56    1.32
  -2 -13  -9    6.48    1.01
  -2 -13 -10  161.51    6.39
   2  13  10  152.12    6.28
  -2 -13 -10  152.83    4.90
   2  13  11   23.24    2.44
  -2 -13 -11   13.98    2.02
  -2 -13 -11   17.10    1.54
  -2 -13 -12   45.17    3.47
   2  13  12   40.76    3.18
  -2 -13 -12   44.32    2.48
   2  13  13    2.41    1.14
   2  13  14   28.66    2.76
   2  13  15    3.18    1.24
   2  13  15    5.25    1.63
   2  13  16    4.29    1.29
  -2 -14   4   52.81    3.72
   2  14  -4   47.26    3.23
  -2 -14   3   15.00    2.04
   2  14  -3   16.57    1.99
  -2 -14   2    0.30    0.99
   2  14  -2    0.99    0.94
  -2 -14   1   74.60    4.04
   2  14  -1   69.55    4.02
  -2 -14   0    9.68    1.73
   2  14   0    8.67    1.67
  -2 -14  -1    1.28    0.81
   2  14   1    0.07    1.17
  -2 -14  -2    4.77    1.04
   2  14   2    5.84    1.45
  -2 -14  -3   56.05    3.12
   2  14   3   51.09    3.51
  -2 -14  -3   49.38    2.76
  -2 -14  -4   17.59    1.86
   2  14   4   16.64    2.10
  -2 -14  -4   15.68    1.54
  -2 -14  -4   17.92    1.79
  -2 -14  -5   85.28    4.11
   2  14   5   85.10    4.61
  -2 -14  -5   89.61    3.42
  -2 -14  -5   85.56    3.78
   2  14   6    3.38    1.23
  -2 -14  -6    1.06    0.85
  -2 -14  -6    2.64    0.84
  -2 -14  -7   32.11    2.66
  -2 -14  -7   35.04    2.25
   2  14   7   30.46    2.77
  -2 -14  -8   43.58    3.14
   2  14   8   49.49    3.56
  -2 -14  -8   43.62    2.48
   2  14   9   -0.08    1.18
  -2 -14  -9   -2.15    1.27
  -2 -14  -9    0.68    0.71
  -2 -14 -10   32.51    2.96
  -2 -14 -10   38.61    2.28
   2  14  10   40.37    3.24
  -2 -14 -11   13.33    2.01
   2  14  11   18.71    2.37
  -2 -14 -12   52.70    3.82
   2  14  12   56.70    3.87
   2  14  13   24.59    2.62
   2  14  14   12.27    2.05
   2  14  15   36.67    3.17
   2  15  -3   17.26    2.13
  -2 -15   3   15.72    2.06
   2  15  -2    1.63    1.11
  -2 -15   2    2.63    1.39
   2  15  -1   24.54    2.56
  -2 -15   1   21.23    2.28
   2  15   0   35.07    3.02
  -2 -15   0   35.34    2.74
   2  15   1   20.17    2.45
  -2 -15  -1   21.37    2.11
   2  15   2   15.18    2.08
  -2 -15  -2   15.61    1.76
   2  15   3    4.78    1.47
  -2 -15  -3    6.46    1.21
   2  15   4   70.17    4.31
  -2 -15  -4   67.53    3.69
  -2 -15  -4   55.88    3.31
   2  15   5   43.72    3.45
  -2 -15  -5   46.53    3.14
  -2 -15  -5   41.81    2.72
   2  15   6    1.59    1.19
  -2 -15  -6   -0.35    1.10
  -2 -15  -6    0.32    0.63
   2  15   7   14.73    2.10
  -2 -15  -7   10.92    1.70
  -2 -15  -7   11.03    1.39
  -2 -15  -8    2.71    1.22
   2  15   8   -0.19    1.02
  -2 -15  -9  129.46    5.89
   2  15   9  135.96    6.25
  -2 -15 -10    2.13    1.15
   2  15  10    4.82    1.49
  -2 -15 -11   52.99    3.83
   2  15  11   46.57    3.66
   2  15  12    8.41    1.81
   2  16  -2    4.76    1.56
  -2 -16   2    5.69    1.65
   2  16  -1    4.21    1.28
  -2 -16   1    5.14    1.43
   2  16   0    1.28    1.20
  -2 -16   0    1.74    0.98
   2  16   1    1.72    1.11
   2  16   2   33.76    3.18
   2  16   3    9.50    2.01
  -2 -16  -3    4.58    1.24
   2  16   4    8.65    1.80
   2  16   5   18.05    2.34
  -2 -16  -6    1.50    1.02
  -2 -16  -7   14.43    2.05
  -2 -16  -8   34.85    3.05
  -2 -16  -9   11.45    1.88
  -2 -16 -10   22.66    2.62
   3 -15  -4    4.42    1.38
   3 -15  -3    4.70    1.57
   3 -14  -7    5.13    1.54
   3 -14  -6    7.84    1.70
   3 -14  -5    1.62    1.06
   3 -14  -4    0.24    1.09
   3 -14  -3   -0.34    1.02
   3 -14  -2    3.97    1.23
   3 -13  -9    2.67    1.27
   3 -13  -8   25.83    2.70
  -3  13   8   21.41    2.49
   3 -13  -7    2.35    1.04
  -3  13   7    2.77    1.32
   3 -13  -6    3.05    1.34
  -3  13   6    4.72    1.43
   3 -13  -5   10.61    1.93
  -3  13   5   10.48    1.82
   3 -13  -4   -0.63    0.91
  -3  13   4    0.24    1.17
   3 -13  -3    4.26    1.34
  -3  13   3    2.97    1.23
   3 -13  -2    1.20    1.00
  -3  13   2    1.26    1.27
   3 -13  -1    2.39    1.10
  -3  13   1   -0.52    1.02
   3 -13   0    0.87    0.94
  -3  13   0    0.15    0.99
  -3  13  -1    9.58    1.74
   3 -13   2   -0.03    0.96
  -3  13  -2   -0.57    1.10
   3 -13   3   45.68    3.42
  -3  13  -3   46.34    3.49
  -3  12  12    0.41    1.20
   3 -12 -11    5.10    1.55
  -3  12  11    3.43    1.28
   3 -12 -10    0.36    1.12
  -3  12  10    0.63    0.94
   3 -12  -9    9.09    1.72
  -3  12   9    7.87    1.66
   3 -12  -8   16.90    2.13
  -3  12   8   15.96    2.22
   3 -12  -7   42.29    3.26
  -3  12   7   42.17    3.30
   3 -12  -6    0.75    1.02
  -3  12   6    1.02    1.14
   3 -12  -5   11.69    1.87
  -3  12   5   14.00    2.04
   3 -12  -4    0.47    0.96
  -3  12   4    2.01    1.31
   3 -12  -3   12.78    1.74
  -3  12   3   11.48    1.83
   3 -12  -2    0.03    0.97
   3 -12  -2    1.06    0.70
  -3  12   2    1.68    1.10
   3 -12  -1    2.82    1.14
   3 -12  -1    0.82    0.65
  -3  12   1    1.67    1.10
   3 -12   0    3.75    1.22
   3 -12   0    4.00    1.02
  -3  12   0    3.30    1.19
   3 -12   1    1.03    0.86
   3 -12   1    0.45    0.94
  -3  12  -1    0.14    1.04
   3 -12   2    4.06    1.30
  -3  12  -2    2.09    1.00
   3 -12   3   26.09    2.56
  -3  12  -3   21.45    2.33
   3 -12   4    8.29    1.72
  -3  12  -4    8.94    1.64
   3 -12   5    7.39    1.60
  -3  11  15    1.08    1.22
  -3  11  14   -0.56    1.00
  -3  11  13    6.11    1.42
   3 -11 -12    3.68    1.38
  -3  11  12    5.90    1.51
   3 -11 -11   11.16    1.91
  -3  11  11   11.31    1.88
   3 -11 -10   20.16    2.41
  -3  11  10   19.61    2.21
   3 -11  -9    2.86    1.37
  -3  11   9    3.99    1.41
   3 -11  -8   35.60    2.89
  -3  11   8   36.16    2.97
   3 -11  -7    2.10    1.12
  -3  11   7    2.16    1.12
   3 -11  -6   34.31    2.78
  -3  11   6   33.82    2.84
   3 -11  -5   15.07    1.88
  -3  11   5   18.88    2.18
   3 -11  -4    1.62    0.98
   3 -11  -4    3.13    0.62
  -3  11   4    2.82    1.20
   3 -11  -3   -0.26    0.86
   3 -11  -3   -0.30    0.47
  -3  11   3    0.54    0.92
   3 -11  -2    1.83    0.99
   3 -11  -2    1.24    0.68
  -3  11   2    0.79    1.03
   3 -11  -1    6.80    1.36
   3 -11  -1    5.73    1.05
  -3  11   1    4.35    1.19
   3 -11   0    3.92    0.97
   3 -11   0    6.52    1.20
  -3  11   0    4.50    1.18
   3 -11   1    1.48    0.76
   3 -11   1    4.25    1.11
  -3  11  -1    3.84    1.30
   3 -11   2    8.16    1.29
   3 -11   2    7.99    1.77
  -3  11  -2    8.99    1.49
   3 -11   3   11.35    1.45
   3 -11   3    6.54    1.32
  -3  11  -3    6.56    1.38
   3 -11   4  113.90    5.33
  -3  11  -4  109.44    4.91
   3 -11   5    1.65    1.15
  -3  11  -5    0.18    0.97
   3 -11   6   91.21    5.06
  -3  10  16   39.68    3.15
  -3  10  15   41.29    3.22
   3 -10 -14   11.68    2.04
  -3  10  14   11.33    1.79
  -3  10  14   11.32    1.87
   3 -10 -13   31.83    2.99
  -3  10  13   26.55    2.72
  -3  10  13   30.58    2.73
   3 -10 -12    0.91    1.08
  -3  10  12    1.23    0.99
  -3  10  12   -0.82    0.99
   3 -10 -11   24.48    2.61
  -3  10  11   25.66    2.49
   3 -10 -10   41.80    3.18
  -3  10  10   37.08    2.92
   3 -10  -9    4.95    1.32
  -3  10   9    3.89    1.22
   3 -10  -8   28.27    2.51
  -3  10   8   21.69    2.25
   3 -10  -7   -1.80    0.99
  -3  10   7   -1.55    1.20
   3 -10  -6   34.23    2.67
  -3  10   6   39.49    2.84
   3 -10  -5   14.41    1.80
  -3  10   5   15.71    1.85
   3 -10  -5   18.84    1.01
   3 -10  -4   14.30    1.72
  -3  10   4   14.44    1.80
   3 -10  -4   12.36    1.00
   3 -10  -3    1.26    0.84
   3 -10  -3    2.60    0.64
  -3  10   3    2.02    0.93
   3 -10  -2    5.04    1.18
  -3  10   2    2.43    1.01
   3 -10  -2    2.96    0.78
   3 -10  -1    1.34    0.91
  -3  10   1    0.21    0.87
   3 -10  -1    0.16    0.62
   3 -10  -1   -0.69    0.58
   3 -10   0   44.32    2.71
   3 -10   0   45.34    2.66
   3 -10   0   41.52    2.17
  -3  10   0   40.85    2.85
   3 -10   1  124.71    4.67
   3 -10   1  117.09    4.66
  -3  10  -1  121.62    5.00
   3 -10   2    7.78    1.23
   3 -10   2    6.25    1.25
  -3  10  -2    6.25    1.36
   3 -10   3   20.04    1.72
   3 -10   3   15.80    1.89
  -3  10  -3   17.20    1.87
   3 -10   4   25.75    1.96
   3 -10   4   23.93    2.36
  -3  10  -4   26.67    2.26
   3 -10   5   95.03    4.83
  -3  10  -5   87.49    4.10
  -3  10  -6   25.32    2.62
   3 -10   6   25.54    2.67
  -3  10  -7    5.05    1.42
   3 -10   7    7.33    1.61
  -3   9  16   -0.45    0.96
   3  -9 -15    2.02    1.22
  -3   9  15    1.30    0.97
  -3   9  15    2.20    1.25
   3  -9 -14    1.67    1.06
  -3   9  14    3.16    1.10
  -3   9  14    0.68    1.10
   3  -9 -13   40.56    3.19
  -3   9  13   39.78    3.17
  -3   9  13   40.36    2.94
   3  -9 -12   12.47    1.92
  -3   9  12   10.23    1.62
  -3   9  12   11.30    1.71
   3  -9 -11   21.09    2.31
  -3   9  11   18.37    2.05
  -3   9  11   22.10    2.27
   3  -9 -10   12.77    1.84
  -3   9  10    9.97    1.63
  -3   9  10    9.18    1.54
   3  -9  -9   71.11    4.55
  -3   9   9   65.33    3.64
   3  -9  -8   55.48    3.38
  -3   9   8   53.12    3.25
   3  -9  -7   42.28    2.91
  -3   9   7   42.50    2.90
   3  -9  -6   18.98    2.00
  -3   9   6   17.75    1.91
   3  -9  -5    0.69    0.86
   3  -9  -5    0.22    0.27
  -3   9   5    0.87    0.85
   3  -9  -4    0.19    0.87
   3  -9  -4   -0.08    0.39
  -3   9   4   -0.83    0.98
   3  -9  -3   14.40    1.62
   3  -9  -3   17.10    0.88
   3  -9  -3   15.85    1.21
  -3   9   3   15.81    1.78
   3  -9  -2   35.05    2.39
  -3   9   2   33.93    2.47
   3  -9  -2   35.22    1.95
   3  -9  -2   34.02    1.51
   3  -9  -1    1.12    0.90
  -3   9   1    0.73    0.84
   3  -9  -1    0.62    0.61
   3  -9  -1    0.80    0.52
   3  -9   0    2.51    0.89
  -3   9   0    1.23    0.85
   3  -9   0    2.30    0.79
   3  -9   0    1.92    0.56
   3  -9   1   19.35    1.72
  -3   9  -1   17.10    1.80
   3  -9   1   20.75    1.56
   3  -9   1   19.50    1.79
   3  -9   2    0.35    0.63
  -3   9  -2   -0.93    0.82
   3  -9   2    0.65    0.76
   3  -9   2   -0.07    0.58
   3  -9   3   67.12    3.10
   3  -9   3   62.30    3.48
  -3   9  -3   61.91    3.27
   3  -9   4    3.89    0.97
   3  -9   4    4.60    1.33
  -3   9  -4    4.18    1.03
   3  -9   5  107.67    3.91
   3  -9   5  108.51    5.02
  -3   9  -5  105.76    4.34
  -3   9  -6   51.83    3.56
   3  -9   6   52.79    3.61
  -3   9  -6   50.89    2.84
  -3   9  -7   14.51    2.09
   3  -9   7   15.70    2.20
  -3   9  -8    6.27    1.55
   3  -9   8    6.31    1.36
   3  -8 -16   15.54    2.30
   3  -8 -15   11.42    1.85
  -3   8  15    8.68    1.72
  -3   8  15   10.61    1.61
   3  -8 -14   15.24    2.13
  -3   8  14   13.31    1.91
  -3   8  14   15.87    1.80
   3  -8 -13   30.05    2.74
  -3   8  13   30.20    2.70
  -3   8  13   31.13    2.48
   3  -8 -12   48.52    3.38
  -3   8  12   55.35    3.27
  -3   8  12   55.84    3.52
   3  -8 -11   37.28    2.91
  -3   8  11   35.07    2.80
  -3   8  11   39.19    2.69
   3  -8 -10   81.73    4.20
  -3   8  10   86.55    4.05
  -3   8  10   83.71    4.16
   3  -8  -9   12.57    1.67
  -3   8   9   13.00    1.64
  -3   8   9   14.43    1.74
   3  -8  -8   33.61    2.61
  -3   8   8   35.57    2.52
  -3   8   8   39.96    2.69
   3  -8  -7   13.83    1.68
  -3   8   7   11.91    1.57
   3  -8  -6    2.32    0.99
  -3   8   6    2.24    1.05
   3  -8  -5   45.57    2.80
   3  -8  -5   47.66    1.53
  -3   8   5   46.99    2.85
   3  -8  -4    1.62    0.91
   3  -8  -4    0.57    0.32
  -3   8   4    1.36    0.92
   3  -8  -3   34.37    2.37
  -3   8   3   32.95    2.37
   3  -8  -3   32.42    1.13
   3  -8  -3   36.65    1.72
   3  -8  -2    0.20    0.68
  -3   8   2    0.24    0.68
   3  -8  -2    0.26    0.57
   3  -8  -2    0.31    0.30
   3  -8  -1    8.23    1.19
  -3   8   1    9.48    1.36
   3  -8  -1    9.35    1.08
   3  -8  -1    8.65    0.81
   3  -8   0   21.73    1.78
   3  -8   0   22.39    1.42
   3  -8   0   24.37    1.78
  -3   8   0   21.06    1.87
   3  -8   1   88.39    3.58
  -3   8  -1   83.53    3.70
   3  -8   1   83.18    3.55
   3  -8   1   76.67    3.01
   3  -8   2    7.93    1.12
  -3   8  -2    7.30    1.16
   3  -8   2    5.28    1.09
   3  -8   2    4.39    0.78
   3  -8   3   26.65    1.88
   3  -8   3   27.15    1.93
   3  -8   3   23.18    2.04
  -3   8  -3   21.48    1.82
   3  -8   4   33.02    2.02
   3  -8   4   32.40    2.52
  -3   8  -4   29.63    2.14
   3  -8   5   23.86    1.72
   3  -8   5   21.22    2.16
  -3   8  -5   20.50    1.78
  -3   8  -6   93.24    4.56
   3  -8   6   99.95    3.55
   3  -8   6   88.74    4.56
  -3   8  -6   92.26    3.77
  -3   8  -7   11.04    1.82
   3  -8   7   12.25    1.88
  -3   8  -7   13.31    1.40
  -3   8  -8   60.64    3.86
   3  -8   8   65.12    4.12
  -3   8  -9   16.90    2.27
   3  -8   9   20.08    2.48
   3  -7 -17    2.46    1.35
   3  -7 -16   48.41    3.57
  -3   7  16   45.96    3.55
   3  -7 -15    2.02    1.13
  -3   7  15    1.89    0.92
  -3   7  15    4.16    1.44
   3  -7 -14   16.43    2.00
  -3   7  14   14.10    1.65
  -3   7  14   17.71    2.18
   3  -7 -13   38.38    3.01
  -3   7  13   40.99    3.08
  -3   7  13   43.85    2.79
   3  -7 -12   26.42    2.42
  -3   7  12   31.31    2.34
  -3   7  12   24.47    2.36
   3  -7 -11  101.19    4.66
  -3   7  11  108.51    4.73
  -3   7  11   97.04    4.20
   3  -7 -10   75.52    3.85
  -3   7  10   73.03    3.73
  -3   7  10   72.41    3.54
   3  -7  -9   30.45    2.40
  -3   7   9   28.49    2.21
  -3   7   9   28.84    2.33
   3  -7  -8   99.98    4.30
  -3   7   8   95.73    4.16
  -3   7   8   91.00    3.96
   3  -7  -7    1.79    0.86
  -3   7   7    0.94    0.67
  -3   7   7    0.84    0.83
   3  -7  -6   26.18    2.11
  -3   7   6   22.97    1.92
   3  -7  -5    3.46    0.92
   3  -7  -5    3.68    0.39
   3  -7  -5    4.94    0.48
  -3   7   5    4.51    1.04
   3  -7  -4   52.79    2.82
  -3   7   4   52.46    2.82
   3  -7  -4   52.86    1.81
   3  -7  -3    3.73    0.94
  -3   7   3    3.00    0.89
  -3   7   3    2.93    0.87
   3  -7  -3    2.74    0.55
   3  -7  -3    2.63    0.31
   3  -7  -2    0.27    0.70
  -3   7   2    0.61    0.69
   3  -7  -2    1.02    0.55
   3  -7  -2    0.59    0.32
   3  -7  -1    4.48    0.98
  -3   7   1    6.23    1.11
   3  -7  -1    6.16    1.04
   3  -7  -1    8.17    0.99
   3  -7  -1    7.27    0.70
   3  -7   0   55.70    2.72
   3  -7   0   55.77    2.54
   3  -7   0   49.48    2.06
   3  -7   0   56.35    2.89
  -3   7   0   50.64    2.72
   3  -7   1   46.30    2.41
   3  -7   1   44.11    2.52
  -3   7  -1   40.44    2.38
   3  -7   1   45.39    2.41
   3  -7   1   37.66    1.93
   3  -7   2    4.68    0.92
  -3   7  -2    4.83    0.90
   3  -7   2    6.24    1.04
   3  -7   2    4.06    0.87
   3  -7   2    5.30    0.87
   3  -7   3   56.67    2.64
   3  -7   3   54.57    2.94
   3  -7   3   48.73    2.51
   3  -7   3   58.51    2.89
  -3   7  -3   51.73    2.70
   3  -7   4   35.24    2.02
   3  -7   4   33.14    2.46
   3  -7   4   35.76    2.28
  -3   7  -4   30.91    2.03
   3  -7   5   41.99    2.19
   3  -7   5   40.01    2.88
   3  -7   5   38.27    2.33
  -3   7  -5   39.17    2.28
   3  -7   6  178.69    5.02
  -3   7  -6  177.03    6.26
   3  -7   6  172.10    6.34
  -3   7  -6  169.07    5.19
   3  -7   6  164.73    5.28
  -3   7  -7    0.14    1.03
   3  -7   7    1.02    0.54
   3  -7   7    4.81    1.38
  -3   7  -7    4.16    0.88
  -3   7  -8  123.53    5.44
   3  -7   8  135.82    5.89
  -3   7  -8  127.62    4.16
  -3   7  -9   15.42    2.17
   3  -7   9   17.85    2.27
  -3   7 -10   15.29    2.22
   3  -7  10   17.44    2.35
  -3   7 -11    7.19    1.67
   3  -6 -18    3.34    1.34
   3  -6 -17    0.94    1.08
   3  -6 -16    0.92    1.09
  -3   6  16   -1.38    0.97
   3  -6 -15   48.42    3.42
  -3   6  15   50.24    3.53
  -3   6  15   53.34    2.92
   3  -6 -14   13.51    1.93
  -3   6  14   13.78    1.56
  -3   6  14   14.82    1.98
   3  -6 -13   88.74    4.40
  -3   6  13   90.69    3.89
  -3   6  13   89.26    4.44
   3  -6 -12    3.02    1.04
  -3   6  12    3.87    1.15
  -3   6  12    4.70    1.03
   3  -6 -11  166.17    6.03
  -3   6  11  170.41    4.10
  -3   6  11  175.02    5.65
  -3   6  11  171.95    6.11
   3  -6 -10   46.38    2.93
  -3   6  10   48.46    2.98
  -3   6  10   48.13    2.71
  -3   6  10   51.84    1.59
  -3   6   9   71.66    3.47
  -3   6   9   73.89    3.30
   3  -6  -9   72.84    3.53
   3  -6  -8   57.89    3.13
  -3   6   8   63.45    3.20
  -3   6   8   69.36    3.19
   3  -6  -7   20.04    1.83
  -3   6   7   18.83    1.68
  -3   6   7   17.47    1.67
   3  -6  -7   18.15    1.66
   3  -6  -6   25.63    2.02
   3  -6  -6   23.71    0.71
   3  -6  -6   20.61    0.68
   3  -6  -6   25.86    1.93
  -3   6   6   24.43    1.86
  -3   6   6   24.52    1.93
  -3   6   5   40.46    2.40
   3  -6  -5   40.14    2.41
   3  -6  -5   35.62    1.20
   3  -6  -5   41.41    1.32
   3  -6  -5   43.40    2.47
  -3   6   5   35.19    2.25
   3  -6  -5   43.09    2.39
   3  -6  -4    2.56    0.85
  -3   6   4    2.93    0.89
   3  -6  -4    3.89    0.87
  -3   6   4    3.55    0.92
   3  -6  -4    2.54    0.69
   3  -6  -4    2.95    0.46
  -3   6   3  101.11    3.88
   3  -6  -3  104.52    3.93
   3  -6  -3  110.94    4.08
  -3   6   3   99.93    3.87
   3  -6  -3  110.41    3.98
   3  -6  -3  108.31    2.97
  -3   6   3  108.83    4.01
   3  -6  -2    3.01    0.79
  -3   6   2    2.76    0.83
   3  -6  -2    2.75    0.85
   3  -6  -2    3.95    0.83
   3  -6  -2    2.60    0.55
  -3   6   2    3.34    0.91
   3  -6  -2    2.46    0.34
   3  -6  -1    0.67    0.66
  -3   6   1    0.13    0.63
   3  -6  -1    0.14    0.55
   3  -6  -1    1.54    0.75
   3  -6  -1    0.68    0.49
  -3   6   1    1.56    0.75
   3  -6  -1    0.86    0.33
   3  -6   0   32.69    2.01
   3  -6   0   34.15    2.09
  -3   6   0   30.49    2.00
   3  -6   0   34.64    1.88
   3  -6   0   31.57    1.51
  -3   6   0   34.74    2.13
   3  -6   1   69.79    2.92
   3  -6   1   73.76    3.15
  -3   6  -1   68.03    2.98
   3  -6   1   68.60    2.90
   3  -6   1   65.72    2.51
  -3   6  -1   76.13    3.23
   3  -6   2  103.65    3.59
   3  -6   2  101.77    3.78
  -3   6  -2   98.29    3.66
   3  -6   2   94.28    3.33
   3  -6   2  102.77    3.83
  -3   6  -2   99.61    3.82
   3  -6   3  132.81    4.18
   3  -6   3  136.76    4.46
  -3   6  -3  128.25    4.28
   3  -6   3  130.78    4.64
   3  -6   3  120.03    4.12
  -3   6  -3  134.08    4.54
   3  -6   4    9.38    1.10
   3  -6   4    9.88    1.15
  -3   6  -4    8.91    1.10
   3  -6   4   10.62    1.42
   3  -6   4   11.18    1.24
  -3   6  -4    8.78    1.16
   3  -6   5  104.30    3.58
   3  -6   5  105.10    3.81
  -3   6  -5   99.98    3.64
   3  -6   5  105.47    4.48
  -3   6  -5  110.08    4.07
   3  -6   6   83.03    3.08
  -3   6  -6   80.21    3.82
   3  -6   6   77.63    3.19
  -3   6  -6   81.63    3.15
   3  -6   6   83.32    4.06
  -3   6  -6   81.24    3.47
   3  -6   7  186.68    5.05
  -3   6  -7  173.96    6.17
   3  -6   7  183.82    5.22
  -3   6  -7  179.31    5.07
   3  -6   7  179.22    6.54
  -3   6  -7  171.59    5.53
   3  -6   8  213.18    5.47
  -3   6  -8  198.44    6.88
   3  -6   8  201.67    7.30
  -3   6  -8  200.04    5.41
  -3   6  -9    0.92    0.96
   3  -6   9    0.41    1.12
  -3   6 -10    8.32    1.50
   3  -6  10    8.67    1.72
  -3   6 -11    6.87    1.76
   3  -6  11   10.38    2.06
  -3   6 -12   -0.66    1.10
   3  -5 -17    6.66    1.50
   3  -5 -16   18.12    2.11
  -3   5  16   17.87    2.23
   3  -5 -15   19.90    2.20
  -3   5  15   20.87    1.80
  -3   5  15   20.24    2.30
   3  -5 -14   26.96    2.43
  -3   5  14   29.90    2.65
  -3   5  14   29.32    2.08
   3  -5 -13   90.74    4.34
  -3   5  13   92.21    3.03
  -3   5  13   90.97    4.46
  -3   5  13   99.33    3.88
   3  -5 -12   13.89    1.68
  -3   5  12   15.69    1.23
  -3   5  12   15.04    1.05
   3  -5 -12   12.13    1.44
  -3   5  12   14.16    1.48
  -3   5  12   14.62    1.76
   3  -5 -11   40.83    2.73
  -3   5  11   43.54    1.68
  -3   5  11   46.67    1.94
  -3   5  11   40.11    2.72
   3  -5 -11   44.43    2.57
  -3   5  11   43.55    2.47
   3  -5 -10  152.00    5.39
  -3   5  10  154.76    3.83
   3  -5 -10  148.55    5.07
  -3   5  10  158.90    5.05
  -3   5  10  150.23    5.40
   3  -5  -9   89.75    3.90
  -3   5   9   93.42    3.99
   3  -5  -9   93.07    3.75
  -3   5   9   91.94    3.64
  -3   5   9   91.77    2.44
   3  -5  -9   93.20    2.36
   3  -5  -8   97.30    3.98
  -3   5   8   94.54    3.71
  -3   5   8   95.82    3.96
   3  -5  -8   96.40    3.80
  -3   5   8   99.46    2.25
   3  -5  -8  100.70    2.35
  -3   5   8  104.38    4.00
  -3   5   7   25.80    1.90
   3  -5  -7   24.95    1.91
   3  -5  -7   24.44    1.81
  -3   5   7   25.04    1.79
  -3   5   7   26.09    1.92
   3  -5  -7   22.83    0.85
  -3   5   7   24.99    1.80
   3  -5  -6    2.35    0.85
   3  -5  -6    2.31    0.30
  -3   5   6    2.08    0.77
   3  -5  -6    3.42    0.81
  -3   5   6    2.34    0.87
  -3   5   6    4.66    1.19
   3  -5  -6    2.36    0.75
   3  -5  -5   17.37    1.55
  -3   5   5   17.85    1.57
   3  -5  -5   16.08    0.77
   3  -5  -5   20.51    1.63
   3  -5  -5   18.71    1.57
  -3   5   5   16.99    1.55
  -3   5   5   19.47    1.59
   3  -5  -4 1088.38   20.62
   3  -5  -4 1061.53   20.64
  -3   5   4 1047.24   20.54
  -3   5   4 1042.10   20.53
  -3   5   4 1049.32   20.65
   3  -5  -4 1037.52   20.61
   3  -5  -3 1636.10   29.41
  -3   5   3 1520.75   29.13
   3  -5  -3 1619.99   29.27
  -3   5   3 1552.86   29.24
   3  -5  -3 1559.49   29.21
  -3   5   3 1531.59   29.20
   3  -5  -2  153.05    4.67
   3  -5  -2  157.76    4.76
  -3   5   2  160.74    4.76
   3  -5  -2  159.93    4.75
   3  -5  -2  143.24    3.16
  -3   5   2  158.02    4.77
   3  -5  -1   82.10    3.18
   3  -5  -1   93.65    3.40
   3  -5  -1   89.80    3.34
  -3   5   1   79.04    3.17
   3  -5  -1   81.76    2.30
  -3   5   1   85.16    3.30
   3  -5   0  140.41    4.38
   3  -5   0  152.58    4.61
  -3   5   0  141.11    4.46
   3  -5   0  142.30    3.67
   3  -5   0  148.00    4.17
  -3   5   0  151.40    4.64
   3  -5   1  183.19    5.10
   3  -5   1  188.80    5.29
  -3   5  -1  171.44    5.09
   3  -5   1  177.68    4.58
   3  -5   1  190.15    5.13
  -3   5  -1  187.38    5.37
   3  -5   2   82.94    3.08
   3  -5   2   82.85    3.18
  -3   5  -2   79.74    3.10
   3  -5   2   86.03    3.29
   3  -5   2   80.20    2.87
  -3   5  -2   85.24    3.32
   3  -5   3  618.97   12.61
   3  -5   3  621.88   12.81
  -3   5  -3  596.02   12.63
   3  -5   3  590.70   12.61
   3  -5   3  625.09   13.25
  -3   5  -3  615.66   13.02
   3  -5   4   17.26    1.36
   3  -5   4   16.25    1.36
  -3   5  -4   15.76    1.32
   3  -5   4   17.01    1.46
   3  -5   4   18.61    1.69
  -3   5  -4   16.70    1.48
   3  -5   5  139.86    4.23
   3  -5   5  139.12    4.29
  -3   5  -5  136.69    4.18
   3  -5   5  143.67    5.10
   3  -5   5  140.29    4.72
  -3   5  -5  138.78    4.56
   3  -5   6   29.42    1.76
  -3   5  -6   28.02    2.13
   3  -5   6   27.19    1.69
  -3   5  -6   28.12    1.66
   3  -5   6   29.33    2.27
  -3   5  -6   26.88    1.87
   3  -5   7  122.13    3.84
  -3   5  -7  121.65    4.72
   3  -5   7  122.43    3.83
  -3   5  -7  116.40    3.68
   3  -5   7  128.75    5.14
  -3   5  -7  114.96    4.16
   3  -5   8   97.85    3.33
  -3   5  -8   90.80    4.18
  -3   5  -8   92.81    3.10
   3  -5   8   95.91    4.57
  -3   5  -8   91.91    3.67
   3  -5   9   51.10    2.28
  -3   5  -9   52.74    3.21
  -3   5  -9   49.11    2.03
   3  -5   9   52.66    3.50
  -3   5  -9   48.46    2.62
  -3   5 -10    9.33    1.52
   3  -5  10   11.69    1.92
  -3   5 -11   13.09    1.93
   3  -5  11   12.99    2.00
  -3   5 -12   18.93    2.36
   3  -5  12   20.56    2.52
   3  -4 -17    8.58    1.56
   3  -4 -16   12.59    1.87
  -3   4  16    5.26    1.50
   3  -4 -15   70.81    4.08
  -3   4  15   82.50    4.51
   3  -4 -14   62.34    3.50
  -3   4  14   59.02    2.72
  -3   4  14   70.20    4.02
  -3   4  14   63.10    2.86
   3  -4 -13   18.32    1.93
  -3   4  13   20.37    1.49
  -3   4  13   21.80    1.66
   3  -4 -13   19.77    1.67
  -3   4  13   21.58    1.70
  -3   4  13   21.37    2.23
   3  -4 -12   40.53    2.65
  -3   4  12   41.08    2.00
  -3   4  12   39.37    2.08
   3  -4 -12   36.43    2.23
  -3   4  12   39.10    2.73
  -3   4  12   42.58    2.33
   3  -4 -11   75.85    3.60
  -3   4  11   75.90    2.66
  -3   4  11   76.58    2.81
   3  -4 -11   79.97    2.71
  -3   4  11   78.37    3.22
   3  -4 -11   74.08    3.23
  -3   4  11   74.66    3.72
   3  -4 -10   28.39    2.11
  -3   4  10   30.76    1.48
   3  -4 -10   28.31    1.44
  -3   4  10   29.32    1.52
  -3   4  10   31.12    1.96
   3  -4 -10   29.24    1.95
  -3   4  10   28.20    2.20
  -3   4   9  113.81    4.25
   3  -4  -9  102.69    4.11
  -3   4   9  112.69    3.04
   3  -4  -9  114.24    3.15
  -3   4   9  114.09    3.10
  -3   4   9  112.63    4.32
   3  -4  -9  108.08    3.94
  -3   4   9  116.50    3.97
  -3   4   8   55.43    2.76
  -3   4   8   52.89    2.69
   3  -4  -8   48.65    2.64
   3  -4  -8   49.85    2.49
  -3   4   8   51.87    2.71
  -3   4   8   53.23    2.51
   3  -4  -8   48.76    1.73
  -3   4   8   51.42    1.68
   3  -4  -7    3.27    0.84
  -3   4   7    2.70    0.77
  -3   4   7    3.44    0.83
  -3   4   7    2.80    0.76
   3  -4  -7    4.53    0.87
  -3   4   7    2.39    0.78
   3  -4  -7    2.30    0.38
  -3   4   7    3.42    0.38
   3  -4  -6   14.97    1.44
  -3   4   6   17.49    1.50
   3  -4  -6   17.99    1.46
  -3   4   6   15.72    1.35
  -3   4   6   14.73    1.43
  -3   4   6   16.79    0.55
   3  -4  -6   16.04    0.81
  -3   4   6   16.59    1.39
   3  -4  -5   -0.47    0.66
  -3   4   5    0.80    0.58
  -3   4   5    0.75    0.57
  -3   4   5    1.99    0.76
   3  -4  -5    0.77    0.62
   3  -4  -5   -0.88    0.59
   3  -4  -5   -0.02    0.25
   3  -4  -4    0.22    0.65
  -3   4   4   -0.37    0.69
  -3   4   4    0.74    0.66
  -3   4   4    0.70    0.66
   3  -4  -4    0.06    0.59
   3  -4  -4    0.59    0.59
   3  -4  -4    0.24    0.29
  -3   4   4    0.30    0.55
   3  -4  -3   61.10    2.63
   3  -4  -3   58.43    2.52
  -3   4   3   56.03    2.50
  -3   4   3   58.58    2.54
   3  -4  -3   58.42    2.58
  -3   4   3   58.11    2.60
  -3   4   3   56.25    2.49
   3  -4  -2   26.67    1.70
  -3   4   2   26.24    1.66
   3  -4  -2   26.65    1.66
   3  -4  -2   27.92    1.70
   3  -4  -2   23.72    0.85
  -3   4   2   26.32    1.66
  -3   4   1    2.07    0.78
   3  -4  -1    0.40    0.58
   3  -4  -1   -0.18    0.58
   3  -4  -1    0.29    0.60
  -3   4   1   -0.01    0.56
   3  -4  -1    0.22    0.26
   3  -4   0  180.97    4.98
   3  -4   0  185.32    5.07
   3  -4   0  183.75    5.07
  -3   4   0  180.35    5.01
   3  -4   0  184.03    4.24
  -3   4   0  187.57    5.17
   3  -4   1  151.19    4.34
   3  -4   1  153.98    4.42
  -3   4  -1  148.54    4.35
   3  -4   1  143.29    3.83
  -3   4  -1  156.05    4.55
   3  -4   2  200.79    5.29
   3  -4   2  206.99    5.37
  -3   4  -2  196.51    5.26
   3  -4   2  196.96    5.04
  -3   4  -2  210.93    5.58
   3  -4   3  177.23    4.81
   3  -4   3  179.19    4.83
  -3   4  -3  171.29    4.74
   3  -4   3  167.75    4.75
   3  -4   3  177.08    5.16
  -3   4  -3  176.70    5.04
   3  -4   4  248.38    6.14
  -3   4  -4  244.64    6.07
   3  -4   4  254.10    6.85
   3  -4   4  251.29    6.47
  -3   4  -4  257.37    6.52
  -3   4  -5  184.28    5.48
   3  -4   5  186.89    4.95
  -3   4  -5  186.89    4.89
   3  -4   5  192.03    5.85
   3  -4   5  182.47    5.48
  -3   4  -5  182.03    5.27
  -3   4  -6  322.79    8.30
   3  -4   6  328.36    7.45
  -3   4  -6  327.85    7.38
   3  -4   6  322.63    8.72
   3  -4   6  332.40    8.45
  -3   4  -6  331.94    7.99
  -3   4  -7   11.60    1.45
   3  -4   7   13.99    1.10
  -3   4  -7   12.87    1.08
   3  -4   7   12.93    1.62
  -3   4  -7   12.28    1.24
  -3   4  -8   32.59    2.33
   3  -4   8   36.61    1.71
  -3   4  -8   31.51    1.59
   3  -4   8   38.09    2.71
  -3   4  -8   34.00    2.06
  -3   4  -9    0.30    0.86
   3  -4   9   -0.84    0.93
  -3   4  -9    1.69    0.77
  -3   4 -10  119.27    5.03
   3  -4  10  118.96    5.39
  -3   4 -10  114.58    4.13
  -3   4 -11   17.74    2.07
   3  -4  11   18.72    2.26
  -3   4 -12   19.09    2.24
   3  -4  12   20.36    2.37
  -3   4 -13   -0.53    1.02
   3  -4  13   -0.65    1.12
   3  -3 -16   12.64    1.82
  -3   3  16   13.31    2.00
   3  -3 -15   15.15    1.82
  -3   3  15   14.84    1.58
  -3   3  15   15.20    2.07
   3  -3 -14   34.11    2.51
  -3   3  14   37.05    2.27
  -3   3  14   37.56    2.02
  -3   3  14   35.54    2.84
   3  -3 -13  138.31    5.14
  -3   3  13  146.37    4.66
  -3   3  13  145.11    4.82
   3  -3 -13  128.82    4.37
  -3   3  13  141.43    5.69
  -3   3  13  151.28    4.50
   3  -3 -12   20.06    1.81
  -3   3  12   19.87    1.53
  -3   3  12   21.86    1.63
   3  -3 -12   18.56    1.45
   3  -3 -12   19.71    1.56
  -3   3  12   22.34    1.60
  -3   3  12   22.66    2.13
   3  -3 -11  107.52    4.24
  -3   3  11  112.84    3.74
  -3   3  11  115.06    3.66
   3  -3 -11  111.98    3.67
   3  -3 -11  104.89    3.78
  -3   3  11  114.39    4.66
  -3   3  11  114.40    3.81
   3  -3 -10   50.21    2.70
  -3   3  10   52.00    2.73
   3  -3 -10   48.18    2.13
  -3   3  10   50.08    2.17
  -3   3  10   51.08    2.16
   3  -3 -10   51.55    2.44
  -3   3  10   48.71    2.88
  -3   3  10   48.37    2.34
  -3   3   9   35.62    2.24
  -3   3   9   51.13    2.65
   3  -3  -9   34.75    2.19
   3  -3  -9   37.18    1.75
  -3   3   9   39.41    1.78
  -3   3   9   36.71    1.75
   3  -3  -9   34.22    1.96
  -3   3   9   38.42    2.40
  -3   3   9   35.66    1.99
  -3   3   8   93.95    3.54
   3  -3  -8   84.82    3.44
  -3   3   8   86.37    3.47
  -3   3   8   91.85    3.26
   3  -3  -8   88.82    3.26
  -3   3   8   89.89    3.62
  -3   3   8   93.88    2.74
  -3   3   8   91.13    2.68
   3  -3  -8   81.98    2.66
   3  -3  -7    2.67    0.77
  -3   3   7    2.71    0.75
  -3   3   7    2.14    0.70
  -3   3   7    3.83    0.78
  -3   3   7    1.27    0.72
   3  -3  -7    1.97    0.58
   3  -3  -7    2.31    0.46
  -3   3   7    2.58    0.50
  -3   3   7    2.15    0.43
  -3   3   6   19.07    1.49
  -3   3   6   19.21    1.43
   3  -3  -6   19.63    1.55
   3  -3  -6   18.62    1.41
  -3   3   6   20.05    1.56
  -3   3   6   19.68    1.42
  -3   3   6   18.62    0.84
   3  -3  -6   17.49    0.96
   3  -3  -5   16.63    1.38
  -3   3   5   18.32    1.45
   3  -3  -5   16.08    1.28
  -3   3   5   16.74    1.30
  -3   3   5   14.61    1.36
   3  -3  -5   14.18    0.83
  -3   3   5   14.69    1.25
  -3   3   5   15.09    1.23
   3  -3  -4   92.92    3.32
  -3   3   4   91.80    3.31
   3  -3  -4  103.00    3.37
  -3   3   4   96.74    3.31
  -3   3   4  101.75    3.34
   3  -3  -4   98.01    3.33
   3  -3  -4   91.53    2.47
  -3   3   4   96.08    3.21
   3  -3  -3   37.33    1.97
   3  -3  -3   39.50    1.97
   3  -3  -3   39.21    1.92
  -3   3   3   40.63    1.99
  -3   3   3   39.55    2.00
   3  -3  -3   37.84    1.43
  -3   3   3   36.94    1.90
   3  -3  -2  257.04    6.16
   3  -3  -2  264.64    6.24
  -3   3   2  262.75    6.16
   3  -3  -2  256.26    6.05
  -3   3   2  254.43    4.70
   3  -3  -2  229.33    4.69
  -3   3   2  253.32    6.09
   3  -3  -1  285.07    6.71
   3  -3  -1  291.17    6.76
   3  -3  -1  285.07    6.61
  -3   3   1  287.97    6.71
  -3   3   1  291.00    5.60
   3  -3  -1  272.24    5.57
  -3   3   1  291.09    6.76
   3  -3   0  107.03    3.36
  -3   3   0  102.83    3.30
   3  -3   0  104.93    3.35
   3  -3   0  101.15    3.25
  -3   3   0  106.15    2.71
   3  -3   0   95.54    2.63
  -3   3   0  108.24    3.42
   3  -3   1   80.46    2.84
   3  -3   1   78.77    2.79
  -3   3  -1   79.48    2.80
  -3   3  -1   80.28    2.45
   3  -3   1   76.97    2.42
  -3   3  -1   79.73    2.90
   3  -3   2   84.97    2.87
  -3   3  -2   78.53    2.79
   3  -3   2   82.04    2.68
  -3   3  -2   78.61    2.92
   3  -3   2   84.98    3.02
  -3   3  -3  263.82    6.23
   3  -3   3  272.83    6.30
   3  -3   3  266.10    6.36
   3  -3   3  268.97    6.54
  -3   3  -3  268.86    6.56
   3  -3   4  155.30    4.18
  -3   3  -4  153.29    4.15
   3  -3   4  150.51    4.48
  -3   3  -4  155.12    4.49
   3  -3   4  153.65    4.47
  -3   3  -5  271.59    6.91
   3  -3   5  281.75    6.42
  -3   3  -5  278.87    6.38
   3  -3   5  282.34    7.12
   3  -3   5  283.94    7.42
   3  -3   5  282.39    6.86
  -3   3  -5  280.57    6.88
  -3   3  -6  369.00    8.77
   3  -3   6  367.89    7.87
  -3   3  -6  362.59    7.84
   3  -3   6  362.82    9.21
   3  -3   6  378.67    9.04
  -3   3  -6  364.32    8.47
   3  -3   6  372.77    8.48
  -3   3  -7   53.55    2.72
  -3   3  -7   51.87    2.04
   3  -3   7   58.86    2.14
   3  -3   7   57.12    3.10
   3  -3   7   56.58    2.52
  -3   3  -7   53.44    2.49
  -3   3  -8    3.64    0.96
   3  -3   8    3.09    0.55
   3  -3   8    2.50    0.97
  -3   3  -8    2.47    0.69
   3  -3   8    2.47    0.78
  -3   3  -9   30.09    2.27
   3  -3   9   32.87    1.41
   3  -3   9   31.07    2.47
  -3   3  -9   28.31    1.87
   3  -3   9   32.32    1.95
  -3   3 -10    1.52    0.96
   3  -3  10    1.61    1.11
   3  -3  10   -0.27    0.63
  -3   3 -10    1.61    0.64
  -3   3 -11   -0.15    0.86
   3  -3  11    3.66    1.22
  -3   3 -12   -0.76    0.99
   3  -3  12    1.64    1.10
  -3   3 -13   12.59    1.83
   3  -3  13   17.39    2.32
  -3   3 -14   38.91    3.25
  -3   2  16   61.24    3.39
   3  -2 -15   14.08    1.63
   3  -2 -15   16.16    2.13
  -3   2  15   17.26    1.76
   3  -2 -14    3.22    0.92
   3  -2 -14    3.07    1.30
  -3   2  14    4.33    1.09
   3  -2 -13  137.46    4.96
  -3   2  13  149.03    4.25
  -3   2  13  139.35    4.81
   3  -2 -13  138.54    4.82
   3  -2 -13  137.32    5.59
   3  -2 -12   10.08    1.48
   3  -2 -12    9.78    1.27
  -3   2  12    9.28    1.04
   3  -2 -12    9.56    1.05
  -3   2  12    9.17    1.20
   3  -2 -12    9.46    1.15
  -3   2  12    8.04    1.10
  -3   2  12    9.36    0.88
  -3   2  12   10.03    1.20
  -3   2  11  203.84    5.99
   3  -2 -11  209.33    6.06
   3  -2 -11  192.73    5.33
  -3   2  11  209.06    5.42
  -3   2  11  202.34    5.73
  -3   2  11  207.10    5.68
   3  -2 -11  201.34    5.70
  -3   2  11  200.94    5.05
   3  -2 -11  205.09    6.51
   3  -2 -10    1.00    0.63
   3  -2 -10    2.67    0.92
  -3   2  10    1.31    0.67
   3  -2 -10    1.06    0.51
  -3   2  10    1.51    0.61
   3  -2 -10    1.40    0.55
  -3   2  10    1.58    0.63
  -3   2  10    0.65    0.52
  -3   2  10    1.78    0.55
  -3   2   9   90.86    3.46
  -3   2   9   98.29    3.81
   3  -2  -9   88.80    3.47
  -3   2   9   97.16    3.24
   3  -2  -9   89.21    3.16
  -3   2   9   95.50    3.16
  -3   2   9   98.99    3.20
   3  -2  -9   91.30    3.16
  -3   2   9   89.51    2.95
  -3   2   8  195.25    5.48
  -3   2   8  200.27    5.71
   3  -2  -8  201.66    5.57
   3  -2  -8  192.22    5.16
  -3   2   8  207.41    5.94
  -3   2   8  204.24    5.23
  -3   2   8  200.58    4.92
   3  -2  -8  186.68    4.92
  -3   2   8  198.99    4.94
  -3   2   8  191.33    4.91
  -3   2   7   15.76    1.32
   3  -2  -7   14.81    1.32
  -3   2   7   13.80    1.28
   3  -2  -7   14.69    1.19
  -3   2   7   14.71    1.21
  -3   2   7   14.93    1.42
   3  -2  -7   12.58    0.98
  -3   2   7   13.95    1.01
  -3   2   7   13.95    1.09
   3  -2  -6    4.11    0.86
  -3   2   6    4.51    0.78
   3  -2  -6    4.08    0.73
  -3   2   6    3.90    0.79
  -3   2   6    4.53    0.72
  -3   2   6    3.36    0.80
   3  -2  -6    4.77    0.60
  -3   2   6    4.80    0.62
  -3   2   6    6.33    0.80
   3  -2  -5    8.18    1.02
  -3   2   5    6.92    0.86
  -3   2   5    6.68    0.93
  -3   2   5    7.46    0.88
   3  -2  -5    7.27    0.88
  -3   2   5    7.64    1.02
   3  -2  -5    6.92    0.67
  -3   2   5    7.41    0.71
  -3   2   5    6.13    0.80
   3  -2  -4    2.97    0.81
  -3   2   4    3.18    0.66
  -3   2   4    2.74    0.67
  -3   2   4    2.84    0.73
  -3   2   4    3.70    0.78
   3  -2  -4    3.38    0.70
   3  -2  -4    3.04    0.49
  -3   2   4    3.34    0.67
   3  -2  -3  125.79    3.71
   3  -2  -3  118.50    3.60
   3  -2  -3  126.23    3.61
  -3   2   3  122.80    3.64
  -3   2   3  124.44    3.65
   3  -2  -3  120.70    3.05
  -3   2   3  118.68    2.62
  -3   2   3  126.02    3.54
   3  -2  -2  155.77    4.28
   3  -2  -2  154.03    4.07
   3  -2  -2  154.07    4.21
  -3   2   2  152.98    4.12
  -3   2   2  159.72    4.24
  -3   2   2  155.67    3.21
  -3   2   2  152.76    4.14
   3  -2  -1   32.42    1.76
   3  -2  -1   30.06    1.51
  -3   2   1   32.15    1.67
   3  -2  -1   31.93    1.61
  -3   2   1   32.41    1.13
  -3   2   1   29.51    1.57
   3  -2  -1   29.23    1.10
   3  -2   0  186.04    4.53
  -3   2   0  180.29    4.69
   3  -2   0  180.13    4.62
   3  -2   0  176.69    3.98
  -3   2   0  183.86    4.00
   3  -2   0  180.40    4.71
  -3   2   0  177.53    4.65
   3  -2   1  143.44    3.90
  -3   2  -1  143.59    3.92
  -3   2  -1  150.58    3.60
   3  -2   1  139.27    3.52
   3  -2   1  141.03    4.01
  -3   2  -1  143.44    4.01
   3  -2   2  114.95    3.31
  -3   2  -2  108.04    3.27
   3  -2   2  110.68    3.18
  -3   2  -2  112.73    3.20
   3  -2   2  114.72    3.47
  -3   2  -2  115.36    3.49
   3  -2   3  753.51   14.33
  -3   2  -3  735.83   14.29
   3  -2   3  753.05   14.54
  -3   2  -3  761.44   14.53
  -3   2  -3  743.26   14.66
   3  -2   3  754.66   14.65
  -3   2  -4  253.76    6.00
   3  -2   4  256.54    5.79
  -3   2  -4  249.42    5.76
   3  -2   4  247.61    6.19
  -3   2  -4  249.54    6.19
   3  -2   4  253.89    6.14
  -3   2  -4  251.30    6.15
  -3   2  -5  563.21   11.72
   3  -2   5  579.68   11.23
  -3   2  -5  564.30   11.18
   3  -2   5  578.13   12.09
  -3   2  -5  563.74   12.03
  -3   2  -5  572.69   11.78
   3  -2   5  572.79   11.74
  -3   2  -6   48.99    2.36
  -3   2  -6   47.48    1.87
   3  -2   6   49.70    1.89
   3  -2   6   52.76    2.68
   3  -2   6   50.70    2.53
  -3   2  -6   47.25    2.24
   3  -2   6   50.21    2.26
  -3   2  -7   59.20    2.73
   3  -2   7   60.85    2.07
   3  -2   7   60.85    3.05
   3  -2   7   59.95    2.91
  -3   2  -7   56.96    2.49
   3  -2   7   58.04    2.51
  -3   2  -8    4.78    1.00
   3  -2   8    4.91    0.59
   3  -2   8    4.68    1.11
   3  -2   8    4.99    0.88
  -3   2  -8    3.92    0.75
  -3   2  -9   78.70    3.55
   3  -2   9   79.69    2.26
   3  -2   9   81.85    3.91
   3  -2   9   80.47    3.09
  -3   2  -9   76.30    3.06
   3  -2  10   45.98    2.31
  -3   2 -10   47.06    2.81
   3  -2  10   45.82    3.04
  -3   2 -10   43.72    2.29
   3  -2  10   45.51    2.30
  -3   2 -11    0.73    0.81
   3  -2  11    2.20    0.76
   3  -2  11    0.26    0.90
   3  -2  11    1.40    0.57
  -3   2 -11    1.34    1.14
  -3   2 -12    3.65    1.14
   3  -2  12    0.66    1.01
   3  -2  12    1.22    0.58
  -3   2 -13    3.26    1.20
   3  -2  13    3.23    1.24
  -3   2 -14   28.37    2.71
   3  -2  14   31.03    2.94
  -3   2 -15    7.71    1.56
  -3   1  17   -0.99    1.24
  -3   1  16   56.06    3.40
   3  -1 -16   52.53    3.84
   3  -1 -15    8.84    1.28
   3  -1 -15    8.46    1.60
  -3   1  15   10.46    1.74
   3  -1 -14   39.43    2.39
  -3   1  14   34.10    2.46
   3  -1 -14   35.83    2.91
  -3   1  13   93.30    3.77
   3  -1 -13  102.14    3.93
  -3   1  13   95.28    4.05
   3  -1 -13   96.30    4.59
  -3   1  12   73.82    3.22
   3  -1 -12   78.22    3.35
   3  -1 -12   76.14    2.72
  -3   1  12   78.24    3.45
   3  -1 -12   75.40    3.41
  -3   1  12   80.16    2.34
  -3   1  12   80.80    2.32
   3  -1 -12   77.43    3.88
   3  -1 -11   95.20    3.62
  -3   1  11   96.13    3.61
   3  -1 -11   88.65    3.04
  -3   1  11  103.21    3.83
   3  -1 -11   92.78    3.70
  -3   1  11   96.27    3.69
  -3   1  11   96.97    2.73
   3  -1 -11   99.03    4.22
  -3   1  10   37.46    2.07
   3  -1 -10   35.81    2.05
  -3   1  10   31.96    1.70
   3  -1 -10   33.78    1.71
  -3   1  10   37.45    2.09
  -3   1  10   35.88    2.04
   3  -1 -10   33.81    2.04
  -3   1  10   35.27    1.50
   3  -1 -10   31.76    2.25
  -3   1   9   87.07    3.52
  -3   1   9   81.90    3.10
   3  -1  -9   77.42    3.05
  -3   1   9   81.85    2.83
   3  -1  -9   80.41    2.78
  -3   1   9   78.30    3.00
   3  -1  -9   75.60    3.02
  -3   1   9   82.45    2.50
   3  -1  -9   83.77    3.50
  -3   1   8   74.03    2.87
  -3   1   8   80.34    3.22
   3  -1  -8   74.16    2.90
   3  -1  -8   76.74    2.69
  -3   1   8   76.84    2.69
  -3   1   8   76.32    2.80
   3  -1  -8   74.62    2.82
  -3   1   8   74.78    2.38
   3  -1  -8   70.27    3.05
  -3   1   7   -0.12    0.55
   3  -1  -7    1.18    0.71
   3  -1  -7    1.14    0.68
  -3   1   7    0.66    0.53
  -3   1   7    0.10    0.43
   3  -1  -7    0.09    0.42
   3  -1  -7    0.95    0.52
  -3   1   7    1.20    0.57
  -3   1   7    0.65    0.42
  -3   1   6   37.42    1.87
   3  -1  -6   37.82    1.91
  -3   1   6   35.97    1.83
   3  -1  -6   36.49    1.75
  -3   1   6   40.35    1.83
   3  -1  -6   36.51    1.68
  -3   1   6   37.65    1.71
  -3   1   6   34.35    1.54
   3  -1  -6   39.09    1.95
   3  -1  -5    2.38    0.70
  -3   1   5    3.33    0.68
   3  -1  -5    3.48    0.64
  -3   1   5    3.16    0.66
  -3   1   5    2.81    0.68
  -3   1   5    3.12    0.78
   3  -1  -5    2.31    0.52
  -3   1   5    1.79    0.52
  -3   1   5    2.60    0.59
   3  -1  -4   69.17    2.52
  -3   1   4   66.79    2.29
  -3   1   4   70.04    2.57
   3  -1  -4   69.74    2.46
  -3   1   4   69.00    2.45
  -3   1   4   71.57    2.23
   3  -1  -4   66.56    2.17
  -3   1   4   66.45    2.27
  -3   1   3    0.11    0.41
  -3   1   3   -0.04    0.61
   3  -1  -3    0.31    0.48
  -3   1   3   -0.13    0.61
   3  -1  -3    0.31    0.64
   3  -1  -3    0.16    0.38
  -3   1   3    0.22    0.48
   3  -1  -2  428.23    8.74
  -3   1   2  415.28    8.53
   3  -1  -2  428.50    8.69
   3  -1  -2  424.37    8.54
  -3   1   2  427.53    8.69
   3  -1  -2  410.15    8.23
  -3   1   2  412.99    7.83
  -3   1   2  419.76    8.54
   3  -1  -2  402.40    8.53
  -3   1   1   54.46    1.99
  -3   1   1   56.93    2.12
   3  -1  -1   55.09    2.09
   3  -1  -1   51.31    1.88
  -3   1   1   55.40    1.63
   3  -1  -1   51.84    1.60
  -3   1   1   57.77    2.07
   3  -1  -1   50.94    2.03
   3  -1   0  781.98   14.62
   3  -1   0  778.95   14.90
  -3   1   0  820.03   14.97
  -3   1   0  805.76   14.32
   3  -1   0  775.11   14.33
   3  -1   0  785.42   14.97
  -3   1   0  789.57   14.94
   3  -1   1    5.45    0.68
   3  -1   1    5.90    0.74
  -3   1  -1    6.04    0.79
   3  -1   1    6.55    0.93
  -3   1  -1    6.40    0.68
   3  -1   1    6.31    0.68
  -3   1  -1    5.50    0.77
   3  -1   2  181.85    4.43
  -3   1  -2  184.46    4.46
   3  -1   2  181.85    4.37
  -3   1  -2  179.51    4.35
   3  -1   2  178.13    4.60
  -3   1  -2  178.06    4.58
  -3   1  -3  140.38    3.55
   3  -1   3  143.66    3.69
  -3   1  -3  144.40    3.74
   3  -1   3  140.15    3.85
  -3   1  -3  138.27    3.83
   3  -1   3  140.95    3.92
  -3   1  -3  141.00    3.93
  -3   1  -4   79.13    2.55
   3  -1   4   77.55    2.43
  -3   1  -4   72.07    2.42
  -3   1  -4   79.85    2.80
   3  -1   4   75.20    2.75
  -3   1  -4   75.61    2.71
   3  -1   4   76.09    2.70
  -3   1  -5  394.97    8.48
  -3   1  -5  383.23    8.08
   3  -1   5  399.80    8.09
   3  -1   5  400.74    8.93
  -3   1  -5  399.86    8.91
   3  -1   5  406.08    8.65
  -3   1  -5  408.00    8.70
  -3   1  -6   39.08    1.96
   3  -1   6   41.72    1.63
   3  -1   6   40.60    2.18
  -3   1  -6   39.14    2.16
   3  -1   6   39.63    1.95
  -3   1  -6   39.84    1.96
  -3   1  -7   86.34    3.25
   3  -1   7   87.22    2.53
   3  -1   7   91.71    3.57
  -3   1  -7   85.63    3.50
   3  -1   7   92.90    3.67
   3  -1   7   90.34    3.13
  -3   1  -7   85.64    3.11
  -3   1  -8   15.58    1.46
   3  -1   8   14.50    0.87
   3  -1   8   12.49    1.43
  -3   1  -8   14.70    1.23
   3  -1   8   15.38    1.29
  -3   1  -9    9.52    1.28
   3  -1   9    8.97    0.64
   3  -1   9   10.27    1.45
   3  -1   9    8.23    1.04
  -3   1  -9    7.86    0.99
  -3   1 -10    1.52    0.93
   3  -1  10    1.86    0.65
   3  -1  10    0.48    0.24
   3  -1  10    0.60    0.80
  -3   1 -10    0.77    0.52
   3  -1  10    1.65    0.64
  -3   1 -11   23.44    2.10
   3  -1  11   27.21    1.86
   3  -1  11   29.19    2.46
  -3   1 -11   25.89    1.77
   3  -1  11   28.07    1.79
  -3   1 -12    1.63    1.01
   3  -1  12    1.60    0.77
   3  -1  12    2.90    1.19
  -3   1 -12    4.31    0.91
   3  -1  12    3.58    0.85
  -3   1 -13    8.84    1.54
   3  -1  13   10.44    1.79
   3  -1  13    9.40    1.15
  -3   1 -14   39.58    3.07
   3  -1  14   35.50    3.09
  -3   1 -15    2.76    1.22
   3  -1  15    6.37    1.55
  -3   0  17    0.20    0.97
  -3   0  16   31.28    2.72
   3   0 -15   22.04    2.38
  -3   0  15   20.50    2.16
   3   0 -14  118.68    4.21
   3   0 -14  123.24    5.51
  -3   0  14  120.67    4.99
   3   0 -13   56.16    2.66
   3   0 -13   49.43    3.28
  -3   0  13   55.28    3.17
  -3   0  12   36.97    2.06
   3   0 -12   32.96    2.03
   3   0 -12   37.36    2.70
   3   0 -12   34.79    1.58
  -3   0  12   33.55    2.32
  -3   0  11   61.24    2.66
   3   0 -11   61.37    3.31
   3   0 -11   62.69    2.70
   3   0 -11   61.85    2.25
  -3   0  11   62.84    3.07
   3   0 -11   61.31    3.08
  -3   0  11   66.09    1.62
  -3   0  11   61.86    1.60
  -3   0  10  101.21    3.47
   3   0 -10  100.05    3.48
   3   0 -10  102.74    4.16
   3   0 -10  101.04    3.08
   3   0 -10  102.70    3.93
  -3   0  10  106.61    3.93
  -3   0  10  107.23    2.52
  -3   0   9   97.37    3.27
   3   0  -9   94.61    3.80
   3   0  -9   92.53    3.22
  -3   0   9  100.88    3.87
   3   0  -9   91.78    2.92
   3   0  -9   90.72    3.53
  -3   0   9   96.57    3.55
  -3   0   9   98.94    2.47
  -3   0   8  294.23    6.78
   3   0  -8  284.48    7.33
  -3   0   8  299.19    7.45
   3   0  -8  283.27    6.74
   3   0  -8  284.28    6.44
   3   0  -8  283.23    7.08
  -3   0   8  290.84    7.04
  -3   0   8  286.75    5.85
   3   0  -7  145.02    4.42
  -3   0   7  148.72    4.08
  -3   0   7  149.23    4.46
   3   0  -7  145.53    4.08
  -3   0   7  147.79    3.93
   3   0  -7  138.46    3.82
   3   0  -7  144.76    4.25
  -3   0   7  139.51    4.15
  -3   0   7  143.42    3.41
   3   0  -6  138.47    4.08
  -3   0   6  141.81    4.08
   3   0  -6  136.84    3.90
  -3   0   6  142.39    3.82
   3   0  -6  137.12    3.75
   3   0  -6  137.08    3.96
  -3   0   6  142.19    3.96
  -3   0   6  138.31    3.35
   3   0  -5   23.81    1.38
   3   0  -5   24.12    1.43
  -3   0   5   22.98    1.36
  -3   0   5   23.68    1.34
   3   0  -5   24.36    1.34
  -3   0   5   23.41    1.35
   3   0  -5   22.80    1.34
  -3   0   5   21.93    1.09
   3   0  -4   27.87    1.47
  -3   0   4   29.74    1.41
  -3   0   4   29.55    1.48
   3   0  -4   29.98    1.48
   3   0  -4   27.99    1.41
  -3   0   4   29.97    1.46
   3   0  -4   29.17    1.44
  -3   0   4   28.63    1.28
   3   0  -3   42.71    1.83
  -3   0   3   43.83    1.60
   3   0  -3   44.71    1.82
  -3   0   3   49.41    1.92
  -3   0   3   46.92    1.79
   3   0  -3   41.82    1.69
   3   0  -3   44.33    1.70
   3   0  -3   44.69    1.64
  -3   0   3   47.17    1.70
  -3   0   2   18.18    0.90
  -3   0   2   19.74    1.24
   3   0  -2   17.65    1.17
  -3   0   2   19.38    1.23
   3   0  -2   19.18    1.09
   3   0  -2   18.46    1.14
  -3   0   2   19.85    1.11
   3   0  -1   41.35    1.53
  -3   0   1   39.18    1.51
   3   0  -1   39.37    1.70
  -3   0   1   41.02    1.72
   3   0  -1   40.96    1.60
  -3   0   1   39.83    1.59
  -3   0   1   35.89    1.15
  -3   0   1   38.68    1.42
   3   0  -1   37.37    1.62
  -3   0   0  556.38   10.56
  -3   0   0  535.47   10.05
   3   0   0  526.27   10.01
   3   0   0  523.63   10.48
  -3   0   0  542.92   10.10
   3   0   0  550.64   10.47
  -3   0   0  535.14   10.44
   3   0   0  520.30   10.07
  -3   0  -1  384.71    7.91
   3   0   1  383.71    7.41
   3   0   1  374.28    7.85
   3   0   1  377.55    7.62
  -3   0  -1  385.61    7.64
  -3   0  -1  384.57    7.94
   3   0   1  388.84    7.95
  -3   0  -2   15.23    0.77
  -3   0  -2   15.06    1.05
   3   0   2   15.96    1.03
   3   0   2   15.34    1.01
   3   0   2   13.07    1.13
  -3   0  -2   14.35    1.08
  -3   0  -2   14.90    1.07
  -3   0  -3   86.66    2.31
  -3   0  -3   80.96    2.55
   3   0   3   83.68    2.56
   3   0   3   85.84    2.73
  -3   0  -3   88.90    2.77
   3   0   3   84.83    2.78
  -3   0  -3   88.69    2.81
  -3   0  -4  528.41   10.23
   3   0   4  520.44   10.29
   3   0   4  538.62   10.84
  -3   0  -4  537.72   10.85
  -3   0  -4  535.32   10.77
   3   0   4  534.40   10.72
  -3   0  -5  243.46    5.63
   3   0   5  239.96    5.39
   3   0   5  251.66    6.15
  -3   0  -5  247.63    6.09
  -3   0  -5  247.93    5.93
   3   0   5  251.00    5.92
  -3   0  -6   90.10    3.01
   3   0   6   90.40    2.61
   3   0   6  100.29    3.47
  -3   0  -6   89.07    3.33
  -3   0  -6   92.79    3.11
   3   0   6   93.35    3.10
  -3   0  -7   17.35    1.35
   3   0   7   17.31    0.98
   3   0   7   18.40    1.52
  -3   0  -7   17.44    1.56
   3   0   7   18.08    1.34
  -3   0  -7   18.27    1.33
  -3   0  -8  250.19    6.56
   3   0   8  253.38    5.35
   3   0   8  263.98    7.07
   3   0   8  262.33    7.07
  -3   0  -8  249.48    6.94
   3   0   8  254.21    6.29
  -3   0  -8  247.33    6.31
  -3   0  -9  210.23    6.02
   3   0   9  208.95    4.46
  -3   0  -9  206.79    6.34
   3   0   9  211.31    6.40
   3   0   9  214.05    5.61
  -3   0  -9  206.84    5.65
   3   0  10  233.09    6.43
  -3   0 -10  238.25    6.90
   3   0  10  250.96    4.84
   3   0  10  247.56    7.36
  -3   0 -10  238.35    6.35
   3   0  10  249.25    6.37
   3   0  11   44.11    2.38
  -3   0 -11   42.77    2.72
   3   0  11   49.39    3.01
  -3   0 -11   41.22    2.26
   3   0  11   47.97    2.36
   3   0  12   -0.21    0.76
  -3   0 -12    0.11    0.96
   3   0  12   -0.36    0.86
   3   0  12    0.58    0.71
  -3   0 -13   18.54    2.02
   3   0  13   23.30    2.37
   3   0  13   23.93    1.72
  -3   0 -14   33.87    2.82
   3   0  14   34.61    2.96
   3   0  14   34.05    2.06
  -3   0 -15   -0.07    1.05
   3   0  15   -0.51    0.98
  -3   0 -16   74.08    4.41
   3   0  16   74.78    4.61
  -3  -1  17    1.49    1.18
  -3  -1  16   24.15    2.51
   3   1 -15   31.81    2.96
  -3  -1  15   28.86    2.62
   3   1 -14  106.76    5.13
  -3  -1  14  100.42    4.71
   3   1 -13  286.59    7.00
   3   1 -13  274.78    8.72
  -3  -1  13  278.39    8.33
   3   1 -12    1.52    0.51
   3   1 -12    0.97    1.04
  -3  -1  12    2.36    0.96
   3   1 -11  292.39    6.84
   3   1 -11  285.78    8.21
  -3  -1  11  272.74    7.80
   3   1 -11  278.35    6.05
   3   1 -10    0.56    0.48
   3   1 -10   -0.34    0.78
   3   1 -10    1.25    0.81
  -3  -1  10    0.58    0.71
   3   1 -10    0.23    0.32
   3   1  -9   56.58    2.26
   3   1  -9   53.92    2.82
   3   1  -9   53.92    2.00
  -3  -1   9   53.06    2.70
   3   1  -9   57.76    2.86
   3   1  -8   84.91    3.43
   3   1  -8   86.52    2.83
  -3  -1   8   89.22    3.49
   3   1  -8   85.34    2.66
   3   1  -8   88.35    3.43
  -3  -1   8   88.97    3.38
  -3  -1   8   86.31    1.94
  -3  -1   7    1.00    0.70
   3   1  -7    1.03    0.48
   3   1  -7    0.73    0.65
   3   1  -7    0.70    0.38
  -3  -1   7    1.52    0.64
   3   1  -7    0.11    0.57
  -3  -1   7    1.20    0.29
   3   1  -6   50.23    2.26
  -3  -1   6   53.22    2.28
   3   1  -6   49.46    1.95
   3   1  -6   51.64    1.95
   3   1  -6   54.38    2.37
  -3  -1   6   51.92    2.29
  -3  -1   6   52.76    1.54
   3   1  -5   50.57    1.91
  -3  -1   5   51.46    2.09
   3   1  -5   51.11    2.12
   3   1  -5   48.05    1.88
   3   1  -5   52.59    2.21
  -3  -1   5   52.20    2.18
  -3  -1   5   49.75    1.55
  -3  -1   4    6.81    0.75
   3   1  -4    5.70    0.79
   3   1  -4    6.22    0.71
   3   1  -4    6.38    0.78
   3   1  -4    6.66    0.82
  -3  -1   4    7.38    0.90
   3   1  -4    5.53    0.57
  -3  -1   4    7.15    0.61
   3   1  -3  138.62    3.46
  -3  -1   3  125.63    3.22
   3   1  -3  132.89    3.29
   3   1  -3  134.25    3.51
  -3  -1   3  134.27    3.60
   3   1  -3  131.57    3.56
  -3  -1   3  131.15    3.15
   3   1  -3  127.43    3.15
   3   1  -2  368.65    7.13
  -3  -1   2  366.90    7.11
   3   1  -2  372.61    7.72
   3   1  -2  378.77    7.71
  -3  -1   2  381.95    7.73
   3   1  -2  369.22    7.38
  -3  -1   2  376.60    7.39
  -3  -1   1   45.20    1.24
  -3  -1   1   48.94    1.63
   3   1  -1   49.52    1.85
   3   1  -1   46.18    1.79
  -3  -1   1   48.75    1.71
   3   1  -1   48.65    1.75
   3   1  -1   45.81    1.27
   3   1   0    7.16    0.81
  -3  -1   0    7.56    0.61
  -3  -1   0    8.69    0.81
   3   1   0    7.98    0.88
  -3  -1   0    6.48    0.77
   3   1   1   69.46    2.27
   3   1   1   67.83    1.74
  -3  -1  -1   70.45    2.23
   3   1   1   64.76    2.26
   3   1   1   70.08    2.20
  -3  -1  -1   71.19    2.28
  -3  -1  -2  127.06    2.60
   3   1   2  129.26    3.45
   3   1   2  131.02    2.82
  -3  -1  -2  130.94    3.42
   3   1   2  135.67    3.45
   3   1   2  131.79    3.53
  -3  -1  -2  136.53    3.56
  -3  -1  -3  264.55    5.14
   3   1   3  252.29    5.13
   3   1   3  260.25    5.70
  -3  -1  -3  258.63    5.88
   3   1   3  260.84    5.89
  -3  -1  -3  262.38    5.94
   3   1   3  268.24    5.94
  -3  -1  -4  549.32   10.36
   3   1   4  545.57   10.36
   3   1   4  546.25   10.62
  -3  -1  -4  554.83   11.09
   3   1   4  546.54   11.10
  -3  -1  -4  551.08   11.03
   3   1   4  561.75   11.02
  -3  -1  -5  167.10    4.06
   3   1   5  158.60    4.01
   3   1   5  161.33    3.97
   3   1   5  169.08    4.58
  -3  -1  -5  172.85    4.59
  -3  -1  -5  160.09    4.37
   3   1   5  168.87    4.42
  -3  -1  -6   47.90    2.00
   3   1   6   46.47    1.97
   3   1   6   46.03    1.74
  -3  -1  -6   49.61    2.32
   3   1   6   49.14    2.28
   3   1   6   47.04    2.08
  -3  -1  -6   48.29    2.14
   3   1   7   10.20    0.79
   3   1   7   10.64    1.04
  -3  -1  -7   11.44    1.09
   3   1   7    9.53    1.05
   3   1   7   11.59    1.21
  -3  -1  -7    8.76    0.99
  -3  -1  -7   10.73    1.21
  -3  -1  -8   75.89    2.97
   3   1   8   78.05    3.02
   3   1   8   74.40    2.26
   3   1   8   81.74    3.32
  -3  -1  -8   74.60    3.22
  -3  -1  -8   76.09    2.90
   3   1   8   75.68    2.86
   3   1   9   33.38    1.97
  -3  -1  -9   32.26    1.99
   3   1   9   36.44    2.14
   3   1   9   32.25    1.29
  -3  -1  -9   29.90    2.13
   3   1   9   35.15    2.22
   3   1   9   30.49    1.82
  -3  -1  -9   30.59    1.82
   3   1  10   16.41    1.55
   3   1  10   15.35    1.40
  -3  -1 -10   17.20    1.56
   3   1  10   16.69    0.84
   3   1  10   19.05    1.81
  -3  -1 -10   13.29    1.25
  -3  -1 -10   15.56    1.65
   3   1  10   15.88    1.35
   3   1  11    3.71    0.87
  -3  -1 -11    3.96    0.94
   3   1  11    3.95    0.35
   3   1  11    6.07    1.18
   3   1  11    4.21    0.87
   3   1  12    1.55    0.62
  -3  -1 -12    1.24    0.85
   3   1  12    0.71    0.87
   3   1  12    0.91    0.65
  -3  -1 -13   12.33    1.70
   3   1  13   12.57    1.75
   3   1  13   14.26    1.37
  -3  -1 -14   12.13    1.67
   3   1  14   10.19    1.69
   3   1  14   12.78    1.32
  -3  -1 -15   34.80    2.89
   3   1  15   39.10    3.18
  -3  -1 -16    8.34    1.67
   3   1  16    7.35    1.64
  -3  -2  16   51.88    3.71
   3   2 -15   19.16    2.30
  -3  -2  15   17.57    2.24
   3   2 -14   64.09    4.02
  -3  -2  14   59.92    3.74
   3   2 -13   54.80    3.55
  -3  -2  13   53.62    3.34
   3   2 -12   23.93    2.25
  -3  -2  12   23.63    2.12
   3   2 -11  328.33    7.14
   3   2 -11  322.27    9.04
  -3  -2  11  313.26    8.81
   3   2 -11  319.89    6.50
   3   2 -10   33.63    2.41
   3   2 -10   37.61    1.70
  -3  -2  10   34.47    2.39
   3   2 -10   39.52    1.55
   3   2  -9   92.87    3.90
   3   2  -9   97.91    2.92
   3   2  -9  102.02    4.09
  -3  -2   9   93.88    3.87
   3   2  -9   99.20    2.81
  -3  -2   8    3.87    0.85
   3   2  -8    5.10    0.62
   3   2  -8    4.93    1.00
  -3  -2   8    5.35    1.03
   3   2  -8    3.17    0.75
   3   2  -8    5.42    0.60
   3   2  -7   60.76    2.73
   3   2  -7   59.54    2.02
  -3  -2   7   61.20    2.73
   3   2  -7   55.76    2.03
   3   2  -7   59.85    2.78
  -3  -2   7   57.06    2.65
   3   2  -6    5.53    0.88
  -3  -2   6    7.07    0.96
   3   2  -6    5.89    0.63
   3   2  -6    5.59    0.65
  -3  -2   6    6.72    1.02
   3   2  -6    6.34    0.94
  -3  -2   6    5.03    0.35
   3   2  -5    3.04    0.78
  -3  -2   5    3.97    0.73
   3   2  -5    2.25    0.46
   3   2  -5    3.29    0.54
  -3  -2   5    3.04    0.78
   3   2  -5    3.21    0.73
  -3  -2   5    2.42    0.34
   3   2  -4   -0.23    0.54
  -3  -2   4   -0.24    0.49
   3   2  -4    0.83    0.47
   3   2  -4    0.35    0.43
   3   2  -4    0.34    0.55
  -3  -2   4   -0.02    0.58
   3   2  -4    0.22    0.31
  -3  -2   4    0.49    0.33
   3   2  -3    3.23    0.66
  -3  -2   3    2.06    0.53
   3   2  -3    2.53    0.54
   3   2  -3    2.92    0.64
  -3  -2   3    2.88    0.73
  -3  -2   3    2.34    0.43
   3   2  -3    3.24    0.47
   3   2  -2   95.29    2.49
  -3  -2   2   95.11    2.48
   3   2  -2   97.67    2.83
   3   2  -2   93.81    2.89
  -3  -2   2   98.54    2.98
  -3  -2   2   95.49    2.51
   3   2  -2   94.58    2.50
   3   2  -1  142.14    3.07
  -3  -2   1  150.35    3.82
   3   2  -1  141.16    3.74
  -3  -2   1  144.36    3.46
   3   2  -1  144.03    3.48
   3   2   0  424.68    7.59
   3   2   0  435.22    8.68
  -3  -2   0  441.15    8.61
   3   2   0  434.64    8.48
  -3  -2   0  425.58    8.48
  -3  -2  -1   18.89    0.68
  -3  -2  -1   17.09    1.14
   3   2   1   15.70    1.08
  -3  -2  -1   18.63    1.11
   3   2   1   18.90    1.16
   3   2   2  315.29    5.75
  -3  -2  -2  328.64    6.86
   3   2   2  325.13    6.83
  -3  -2  -2  329.71    6.88
   3   2   2  327.83    6.89
   3   2   3  392.72    7.33
  -3  -2  -3  397.82    8.25
   3   2   3  387.54    8.26
  -3  -2  -3  403.20    8.30
  -3  -2  -3  398.08    7.33
   3   2   3  405.08    8.30
  -3  -2  -4  294.78    5.94
   3   2   4  285.14    5.92
   3   2   4  300.23    6.69
  -3  -2  -4  298.17    6.69
   3   2   4  305.79    6.70
  -3  -2  -4  307.02    6.72
  -3  -2  -5  354.33    7.25
   3   2   5  351.48    7.25
  -3  -2  -5  349.10    7.87
   3   2   5  367.67    7.95
   3   2   5  359.13    7.79
  -3  -2  -5  354.47    7.81
  -3  -2  -6  313.63    6.85
   3   2   6  305.92    6.81
  -3  -2  -6  320.02    7.41
   3   2   6  315.79    7.39
  -3  -2  -6  313.21    7.21
   3   2   6  324.48    7.24
   3   2   7  241.13    5.82
  -3  -2  -7  233.98    5.77
   3   2   7  252.03    6.36
  -3  -2  -7  228.74    6.18
  -3  -2  -7  237.04    5.99
   3   2   7  243.71    5.97
   3   2   8    0.29    0.33
   3   2   8    0.59    0.56
   3   2   8    0.00    0.50
  -3  -2  -8   -0.02    0.57
   3   2   8   -0.43    0.59
  -3  -2  -8    0.53    0.57
  -3  -2  -8    0.24    0.65
   3   2   8    0.32    0.56
   3   2   9   40.28    2.18
  -3  -2  -9   37.07    2.10
   3   2   9   40.46    2.21
   3   2   9   38.17    1.55
   3   2   9   42.81    2.41
  -3  -2  -9   35.54    2.26
  -3  -2  -9   36.63    2.07
   3   2   9   37.17    2.00
   3   2  10   55.46    2.70
  -3  -2 -10   58.68    2.81
   3   2  10   57.55    2.79
   3   2  10   57.64    1.87
  -3  -2 -10   52.45    2.90
   3   2  10   54.94    2.85
   3   2  10   53.21    2.50
   3   2  11   15.22    1.47
  -3  -2 -11   15.82    1.58
   3   2  11   12.27    0.78
   3   2  11   14.56    1.57
   3   2  11   12.35    1.24
  -3  -2 -11   14.80    1.66
   3   2  12   23.33    1.89
  -3  -2 -12   22.07    1.98
   3   2  12   23.44    0.87
   3   2  12   21.16    0.82
   3   2  12   24.70    2.18
   3   2  12   21.46    1.66
  -3  -2 -13   25.56    2.26
   3   2  13   20.61    2.08
   3   2  13   24.28    1.78
  -3  -2 -14   24.53    2.35
   3   2  14   20.25    2.21
   3   2  14   25.22    1.83
  -3  -2 -15    3.14    1.24
   3   2  15    4.83    1.39
   3   2  15    3.05    0.92
  -3  -2 -16  107.72    5.25
   3   2  16  106.07    5.30
  -3  -2 -17   11.96    2.03
   3   2  17   11.45    1.84
  -3  -3  15    4.43    1.37
   3   3 -14  112.72    5.48
  -3  -3  14  101.54    5.10
   3   3 -13   40.00    3.05
  -3  -3  13   33.25    2.77
   3   3 -12   84.78    4.30
  -3  -3  12   85.22    4.26
   3   3 -11   93.76    4.36
  -3  -3  11   87.22    4.18
   3   3 -10  251.57    5.30
   3   3 -10  246.05    7.44
  -3  -3  10  229.92    7.31
   3   3 -10  246.43    5.29
   3   3  -9   59.87    1.88
   3   3  -9   60.51    3.12
  -3  -3   9   49.65    2.92
   3   3  -9   56.58    1.96
   3   3  -8   34.06    1.34
   3   3  -8   35.68    2.26
   3   3  -8   32.13    2.24
  -3  -3   8   33.15    2.22
   3   3  -8   31.90    1.45
   3   3  -7    9.26    1.16
   3   3  -7    7.24    0.61
  -3  -3   7    7.67    1.13
   3   3  -7    9.40    1.16
   3   3  -7    8.28    0.76
   3   3  -6   49.74    2.39
   3   3  -6   47.94    1.59
   3   3  -6   48.17    1.88
   3   3  -6   51.05    2.56
  -3  -3   6   45.35    2.40
   3   3  -5   16.35    0.85
   3   3  -5   19.02    1.41
   3   3  -5   15.01    1.03
  -3  -3   5   14.96    1.34
   3   3  -5   18.40    1.44
   3   3  -5   17.08    0.62
   3   3  -4    2.45    0.71
   3   3  -4    2.46    0.45
   3   3  -4    2.63    0.75
  -3  -3   4    2.03    0.81
   3   3  -4    2.35    0.34
   3   3  -3   34.15    1.55
  -3  -3   3   32.31    1.77
   3   3  -3   30.43    1.72
   3   3  -3   32.54    1.19
  -3  -3   3   33.27    1.21
   3   3  -2  112.27    2.91
  -3  -3   2  107.67    3.32
   3   3  -2  109.92    3.30
  -3  -3   2  107.04    2.73
   3   3  -2  107.34    2.73
   3   3  -1    0.37    0.46
   3   3  -1   -0.29    0.50
  -3  -3   1    0.13    0.67
  -3  -3   1    0.64    0.44
   3   3  -1    1.37    0.50
  -3  -3   0  215.08    5.03
   3   3   0  209.85    4.97
  -3  -3   0  206.84    4.74
   3   3   0  208.05    4.74
   3   3   1  207.51    4.92
  -3  -3  -1  203.76    4.82
  -3  -3  -1  220.68    4.99
   3   3   1  205.81    4.82
  -3  -3  -2  586.96   11.64
   3   3   2  599.04   11.66
  -3  -3  -2  619.66   11.72
   3   3   2  595.64   11.64
  -3  -3  -3  236.70    5.50
  -3  -3  -3  234.86    5.54
   3   3   3  234.73    5.50
   3   3   3  231.49    4.69
   3   3   3  245.43    5.57
   3   3   4  844.05   15.42
  -3  -3  -4  880.78   16.27
   3   3   4  866.15   16.27
   3   3   4  857.58   16.26
  -3  -3  -4  843.11   16.25
   3   3   5  222.66    5.04
   3   3   5  234.49    5.69
  -3  -3  -5  229.52    5.65
  -3  -3  -5  225.51    5.61
   3   3   5  235.72    5.66
   3   3   6  428.53    8.83
  -3  -3  -6  425.00    9.37
   3   3   6  438.32    9.45
  -3  -3  -6  431.04    9.31
   3   3   6  438.84    9.31
  -3  -3  -6  428.74    8.82
   3   3   7   83.70    3.14
   3   3   7   81.20    2.80
   3   3   7   83.56    3.13
  -3  -3  -7   78.59    3.05
  -3  -3  -7   82.12    2.81
  -3  -3  -7   79.74    2.95
   3   3   7   80.52    2.98
   3   3   8   24.60    1.69
   3   3   8   22.81    1.54
  -3  -3  -8   23.67    1.71
   3   3   8   25.54    1.71
  -3  -3  -8   24.40    1.58
   3   3   8   23.92    1.63
   3   3   9    0.41    0.56
   3   3   9    0.78    0.66
  -3  -3  -9    0.65    0.70
   3   3   9    0.99    0.67
  -3  -3  -9    0.88    0.80
   3   3   9    1.08    0.57
   3   3  10   23.33    1.76
  -3  -3 -10   21.84    1.69
   3   3  10   23.09    1.74
  -3  -3 -10   21.31    1.78
   3   3  10   20.81    1.56
   3   3  11    4.95    0.95
  -3  -3 -11    3.13    0.89
   3   3  11    2.02    0.70
  -3  -3 -11    4.16    1.02
   3   3  11    3.68    0.81
  -3  -3 -12    8.47    1.43
   3   3  12    8.91    0.74
   3   3  12   10.81    0.80
   3   3  12   10.68    1.45
   3   3  12   10.70    1.25
  -3  -3 -12    9.38    1.36
   3   3  13   47.77    1.51
   3   3  13   44.36    2.85
  -3  -3 -13   46.39    2.93
   3   3  13   47.53    2.57
   3   3  14   36.56    2.70
  -3  -3 -14   37.08    2.76
   3   3  14   39.45    2.37
  -3  -3 -15   13.65    1.86
   3   3  15   16.22    2.04
   3   3  15   16.34    1.58
   3   3  16  252.13    8.42
  -3  -3 -16  230.88    8.20
  -3  -3 -17    0.29    1.06
   3   3  17    3.73    1.50
   3   3  18   88.29    4.95
   3   4 -14   45.87    3.53
  -3  -4  14   41.06    3.36
   3   4 -13   35.62    2.98
  -3  -4  13   31.85    2.84
   3   4 -12  165.79    6.48
  -3  -4  12  173.20    6.57
   3   4 -11  115.02    5.01
  -3  -4  11  117.25    5.08
   3   4 -10   85.52    4.05
  -3  -4  10   79.40    3.97
   3   4 -10   82.81    2.34
   3   4  -9   12.78    1.59
  -3  -4   9   12.63    1.61
   3   4  -9   13.27    0.90
   3   4  -8   40.82    2.51
  -3  -4   8   39.62    2.56
   3   4  -8   41.77    1.72
   3   4  -7   32.68    1.01
   3   4  -7   37.34    2.28
   3   4  -7   35.81    2.32
  -3  -4   7   29.87    2.17
   3   4  -7   32.73    1.55
   3   4  -6   19.09    1.54
   3   4  -6   17.87    0.75
   3   4  -6   19.48    1.18
  -3  -4   6   18.35    1.64
   3   4  -6   21.36    1.75
   3   4  -5   37.42    1.20
   3   4  -5   37.99    2.04
   3   4  -5   38.19    2.19
  -3  -4   5   35.21    2.12
   3   4  -5   36.74    1.01
   3   4  -4  164.92    3.52
   3   4  -4  162.27    4.50
   3   4  -4  166.71    4.88
  -3  -4   4  161.83    4.79
   3   4  -4  157.12    3.42
   3   4  -3   21.74    1.37
   3   4  -3   21.55    1.49
  -3  -4   3   17.65    1.39
   3   4  -3   19.18    0.93
   3   4  -2  221.13    5.13
  -3  -4   2  219.83    5.53
   3   4  -2  223.44    5.59
   3   4  -2  216.91    4.75
  -3  -4   1  204.52    5.16
   3   4  -1  208.49    5.15
   3   4  -1  205.62    4.65
  -3  -4   0  339.76    7.49
   3   4   0  344.11    7.47
   3   4   0  345.63    7.15
   3   4   1  293.19    6.62
  -3  -4  -1  304.90    6.67
   3   4   1  305.43    6.55
   3   4   2  427.88    8.86
   3   4   2  432.66    8.96
  -3  -4  -2  442.33    9.01
   3   4   3  832.66   15.44
  -3  -4  -3  819.90   15.57
   3   4   3  784.09   15.57
   3   4   3  833.05   15.65
  -3  -4  -4 1316.30   24.10
   3   4   4 1344.91   24.24
   3   4   4 1298.97   23.36
   3   4   4 1331.77   24.16
   3   4   5  337.81    7.05
   3   4   5  336.95    6.25
  -3  -4  -5  336.36    7.58
   3   4   5  339.38    7.65
   3   4   5  348.18    7.71
   3   4   6  227.30    5.84
   3   4   6  218.96    5.22
  -3  -4  -6  226.47    5.69
   3   4   6  214.80    5.65
   3   4   6  219.29    5.67
   3   4   7   29.79    1.83
   3   4   7   28.92    1.58
  -3  -4  -7   26.14    1.73
   3   4   7   29.74    1.82
   3   4   7   26.89    1.69
   3   4   8   39.38    2.20
   3   4   8   37.13    1.93
   3   4   8   38.39    2.11
  -3  -4  -8   36.42    2.08
   3   4   8   35.73    2.04
   3   4   9   40.63    2.30
   3   4   9   37.89    2.10
   3   4   9   39.28    2.24
  -3  -4  -9   34.89    2.16
  -3  -4  -9   38.71    2.11
   3   4   9   40.62    2.19
   3   4  10   86.75    3.59
   3   4  10   85.79    3.43
  -3  -4 -10   83.06    3.52
  -3  -4 -10   78.65    3.31
   3   4  10   85.56    3.38
  -3  -4 -11    1.57    0.83
  -3  -4 -11    0.65    0.71
   3   4  11   -0.60    0.67
  -3  -4 -12    4.68    1.22
   3   4  12    6.42    0.74
   3   4  12    5.76    1.08
   3   4  12    5.62    1.01
  -3  -4 -12    6.09    1.22
   3   4  13  148.26    3.83
  -3  -4 -13  145.13    5.52
   3   4  13  144.80    5.27
  -3  -4 -13  142.56    5.36
   3   4  13  144.31    4.92
   3   4  14   71.61    3.71
  -3  -4 -14   62.78    3.56
   3   4  14   69.68    3.26
   3   4  15   37.26    2.79
   3   4  15   37.92    2.43
  -3  -4 -15   37.49    2.90
   3   4  16   83.68    4.46
  -3  -4 -16   91.39    4.80
   3   4  16   92.82    3.92
   3   4  17   19.32    2.27
   3   4  18   87.16    4.80
  -3  -5  14   79.40    4.77
   3   5 -13   26.71    2.72
  -3  -5  13   25.06    2.62
   3   5 -12   43.62    3.24
  -3  -5  12   44.64    3.33
   3   5 -11  196.48    6.94
  -3  -5  11  172.95    6.71
   3   5 -10  109.22    4.78
  -3  -5  10  103.21    4.75
   3   5  -9  108.87    4.56
  -3  -5   9   92.64    4.36
   3   5  -9  104.67    2.99
   3   5  -8  103.43    4.27
  -3  -5   8  105.31    4.43
   3   5  -8  104.76    3.12
   3   5  -7   36.32    2.34
  -3  -5   7   35.19    2.42
   3   5  -6   26.34    1.90
   3   5  -6   27.54    2.05
  -3  -5   6   25.19    1.97
   3   5  -5   25.55    0.78
   3   5  -5   29.51    1.88
   3   5  -5   28.23    0.78
   3   5  -5   33.42    2.12
  -3  -5   5   27.15    1.95
   3   5  -5   28.76    0.97
   3   5  -4    0.97    0.66
  -3  -5   4    1.76    0.81
   3   5  -4    1.41    0.78
   3   5  -4    0.67    0.30
   3   5  -3   39.43    1.97
   3   5  -3   42.52    2.28
  -3  -5   3   38.48    2.11
   3   5  -3   40.94    1.50
  -3  -5   2   16.76    1.44
   3   5  -2   14.49    1.32
   3   5  -2   14.40    0.95
  -3  -5   1  781.49   15.32
   3   5  -1  789.72   15.38
   3   5  -1  779.05   14.63
  -3  -5   0  124.63    3.74
   3   5   0  123.08    3.68
   3   5   0  127.84    3.47
  -3  -5  -1  211.77    5.22
   3   5   1  216.11    5.23
   3   5   1  209.74    5.12
  -3  -5  -2  707.70   13.73
   3   5   2  710.96   13.75
   3   5   2  720.47   13.84
  -3  -5  -2  710.76   13.88
   3   5   3  829.50   15.73
  -3  -5  -3  795.08   14.36
   3   5   3  831.44   15.48
   3   5   3  824.12   15.78
  -3  -5  -3  856.28   15.76
   3   5   4  611.20   12.39
  -3  -5  -4  590.16   10.85
   3   5   4  643.51   12.08
  -3  -5  -4  612.31   12.23
   3   5   4  628.96   12.35
   3   5   4  638.42   12.45
   3   5   5  639.89   12.80
  -3  -5  -5  608.39   12.47
   3   5   5  621.88   12.69
   3   5   5  618.64   12.56
   3   5   6  272.10    6.80
   3   5   6  266.04    5.41
  -3  -5  -6  264.13    6.52
   3   5   6  279.61    6.76
   3   5   6  274.06    6.63
   3   5   6  270.69    6.22
   3   5   7  219.56    5.91
   3   5   7  208.12    5.33
   3   5   7  205.54    4.59
  -3  -5  -7  204.78    5.57
   3   5   7  214.75    5.67
   3   5   7  208.58    5.68
   3   5   8    5.36    0.67
   3   5   8    5.63    1.01
   3   5   8    5.00    0.82
   3   5   8    6.60    1.00
  -3  -5  -8    4.11    0.90
   3   5   8    5.34    0.91
   3   5   9   36.70    2.23
   3   5   9   36.68    2.07
   3   5   9   36.93    2.15
  -3  -5  -9   34.93    2.10
   3   5   9   36.90    2.15
   3   5  10   10.90    1.24
   3   5  10   11.27    1.34
  -3  -5 -10    9.07    1.24
   3   5  10    8.55    1.19
   3   5  10   10.91    1.27
   3   5  11   62.81    2.56
  -3  -5 -11   59.53    3.06
   3   5  11   63.12    2.99
   3   5  12   17.14    1.30
   3   5  12   16.40    1.55
  -3  -5 -12   16.46    1.69
   3   5  12   15.48    1.58
   3   5  13  396.33    8.52
  -3  -5 -13  373.56   10.08
   3   5  13  382.75    9.73
   3   5  13  376.87    9.59
   3   5  14   77.53    2.66
  -3  -5 -14   69.77    3.79
   3   5  14   73.58    3.63
   3   5  14   73.47    3.50
   3   5  15   43.42    2.83
   3   5  15   45.45    2.76
   3   5  16   75.62    4.02
   3   5  16   78.70    3.73
   3   5  17    8.64    1.57
   3   5  18   58.08    3.72
   3   6 -13   50.51    3.76
  -3  -6  13   51.62    3.79
   3   6 -12   34.50    3.01
  -3  -6  12   38.41    3.20
   3   6 -11   83.09    4.44
  -3  -6  11   88.27    4.67
   3   6 -10   25.46    2.39
  -3  -6  10   24.27    2.42
   3   6  -9   44.58    2.95
  -3  -6   9   42.17    2.99
   3   6  -9   43.79    1.85
   3   6  -9   47.61    1.97
   3   6  -8    1.24    0.99
  -3  -6   8    1.30    0.95
   3   6  -7   25.85    2.08
  -3  -6   7   21.28    2.02
   3   6  -6   86.21    3.63
  -3  -6   6   83.56    3.76
   3   6  -6   79.90    1.82
   3   6  -6   82.58    1.81
   3   6  -5    2.13    0.75
  -3  -6   5    2.78    0.89
   3   6  -5    2.67    0.39
   3   6  -4  141.69    2.89
   3   6  -4  140.63    4.55
   3   6  -4  149.48    4.91
  -3  -6   4  139.88    4.73
   3   6  -4  149.69    3.51
   3   6  -3  121.69    2.85
   3   6  -3  132.69    4.37
  -3  -6   3  122.66    4.23
   3   6  -3  124.68    3.27
   3   6  -2  213.63    4.69
   3   6  -2  232.79    6.11
  -3  -6   2  219.30    5.94
   3   6  -2  217.13    5.06
   3   6  -1   72.00    2.23
  -3  -6   1   71.60    2.85
   3   6  -1   75.40    2.92
   3   6  -1   68.91    2.40
   3   6   0 1474.89   26.47
  -3  -6   0 1492.99   27.22
   3   6   0 1495.90   27.23
   3   6   0 1471.80   26.75
   3   6   1    1.27    0.54
   3   6   1    0.71    0.50
  -3  -6  -1    1.76    0.70
   3   6   1    1.24    0.68
   3   6   2 1002.59   18.80
  -3  -6  -2  998.39   18.81
   3   6   2 1011.69   18.85
   3   6   2 1000.19   18.92
   3   6   3   62.82    2.48
   3   6   3   59.35    2.30
   3   6   3   65.21    2.58
  -3  -6  -3   63.10    2.50
   3   6   4  641.55   12.82
  -3  -6  -4  599.22   11.40
   3   6   4  637.36   12.31
   3   6   4  649.09   12.87
  -3  -6  -4  637.39   12.66
   3   6   5  325.75    7.48
  -3  -6  -5  292.02    5.97
  -3  -6  -5  299.24    7.07
   3   6   5  302.20    6.76
   3   6   5  305.82    7.34
   3   6   5  302.55    7.13
   3   6   6  109.01    3.77
  -3  -6  -6  105.54    3.51
   3   6   6  105.54    3.69
   3   6   6  101.75    3.51
   3   6   7   47.81    2.48
   3   6   7   50.23    1.75
  -3  -6  -7   45.52    2.25
   3   6   7   48.33    2.21
   3   6   7   47.78    2.43
   3   6   7   48.79    2.35
   3   6   8   21.20    1.71
   3   6   8   20.93    1.52
   3   6   8   19.15    1.14
  -3  -6  -8   20.16    1.56
   3   6   8   18.80    1.51
   3   6   8   21.21    1.67
   3   6   9    9.02    0.89
   3   6   9    9.94    1.29
   3   6   9   10.22    1.16
   3   6   9   12.05    1.33
  -3  -6  -9   10.79    1.21
   3   6   9   10.57    1.20
   3   6  10   79.85    3.34
   3   6  10   78.28    2.78
   3   6  10   79.85    3.39
  -3  -6 -10   74.86    3.28
   3   6  10   78.75    3.43
   3   6  11   74.14    3.00
   3   6  11   72.37    2.82
  -3  -6 -11   68.86    3.27
   3   6  11   70.65    3.31
   3   6  12   69.88    2.91
   3   6  12   73.32    3.01
  -3  -6 -12   71.62    3.49
   3   6  12   72.11    3.39
   3   6  13   28.71    1.80
   3   6  13   24.61    1.84
  -3  -6 -13   24.24    2.11
   3   6  13   27.58    2.00
   3   6  13   25.60    2.04
   3   6  14   21.02    1.47
   3   6  14   17.04    1.63
   3   6  14   20.99    1.81
  -3  -6 -14   16.08    1.82
   3   6  14   17.12    1.79
   3   6  15   28.17    2.17
  -3  -6 -15   30.06    2.55
   3   6  15   26.08    2.15
   3   6  15   27.09    2.20
   3   6  16  144.79    5.40
   3   6  16  140.83    5.49
   3   6  16  137.97    5.33
   3   6  17   38.31    2.81
   3   6  17   37.07    2.77
   3   6  17   38.98    2.72
   3   6  18   81.50    4.28
   3   7 -12  126.89    5.96
  -3  -7  12  120.69    5.95
   3   7 -11   13.00    1.91
  -3  -7  11   13.38    2.11
   3   7 -10   17.27    2.17
  -3  -7  10   15.68    2.01
   3   7  -9   23.27    2.31
  -3  -7   9   17.53    2.15
   3   7  -9   19.41    1.30
   3   7  -8   24.32    2.22
  -3  -7   8   19.62    2.06
   3   7  -8   23.42    1.49
   3   7  -7    3.60    1.11
  -3  -7   7    4.75    1.18
   3   7  -6   43.10    2.68
  -3  -7   6   43.96    2.82
   3   7  -6   48.86    1.47
   3   7  -6   48.52    1.49
   3   7  -5   17.76    1.69
  -3  -7   5   18.19    1.81
   3   7  -5   17.06    0.97
   3   7  -4   35.52    2.24
  -3  -7   4   32.97    2.21
   3   7  -4   35.60    1.52
   3   7  -3  202.13    4.22
   3   7  -3  212.64    6.17
  -3  -7   3  196.10    5.90
   3   7  -3  202.74    4.88
   3   7  -2  194.15    4.41
   3   7  -2  223.41    6.04
  -3  -7   2  194.56    5.69
   3   7  -1   66.88    2.22
   3   7  -1   76.88    3.12
  -3  -7   1   70.48    2.94
   3   7   0  270.17    6.13
  -3  -7   0  270.00    6.80
   3   7   0  290.11    6.97
   3   7   1   52.01    2.11
  -3  -7  -1   55.22    2.40
   3   7   1   54.88    2.38
   3   7   2 1180.85   22.30
  -3  -7  -2 1213.56   22.39
   3   7   2 1214.32   22.40
   3   7   3   52.46    2.31
  -3  -7  -3   48.36    2.09
   3   7   3   46.75    2.08
  -3  -7  -3   47.26    2.25
   3   7   4   89.19    3.19
  -3  -7  -4   76.65    2.35
   3   7   4   83.16    2.82
  -3  -7  -4   82.89    3.03
   3   7   5   30.08    1.85
  -3  -7  -5   27.93    1.25
   3   7   5   30.15    1.57
  -3  -7  -5   27.92    1.72
   3   7   6   72.60    3.05
   3   7   6   68.03    2.46
  -3  -7  -6   65.25    2.71
   3   7   6   69.04    3.00
   3   7   6   63.23    2.72
   3   7   7   48.96    2.57
  -3  -7  -7   47.58    2.32
   3   7   7   48.69    2.07
   3   7   7   49.55    2.57
   3   7   7   53.38    2.48
   3   7   8    1.62    0.45
   3   7   8    0.84    0.61
   3   7   8    0.03    0.57
  -3  -7  -8    0.83    0.64
   3   7   8    1.09    0.57
   3   7   8    1.60    0.80
   3   7   9   35.25    2.11
   3   7   9   36.02    1.71
  -3  -7  -9   33.50    2.06
   3   7   9   31.13    2.13
   3   7   9   35.70    2.15
   3   7  10    9.59    0.96
   3   7  10   11.10    1.35
   3   7  10   11.32    1.39
  -3  -7 -10    9.98    1.25
   3   7  10    8.52    1.14
   3   7  11  186.84    5.56
   3   7  11  183.29    5.05
  -3  -7 -11  178.96    5.69
   3   7  11  186.51    5.94
   3   7  12    0.67    0.63
   3   7  12    2.10    0.69
   3   7  12    0.04    0.74
  -3  -7 -12    1.30    0.89
   3   7  13   72.71    3.17
   3   7  13   75.20    3.18
  -3  -7 -13   68.67    3.52
   3   7  13   79.94    3.34
   3   7  13   74.54    3.65
   3   7  14   -0.64    0.65
   3   7  14   -0.16    0.69
   3   7  14   -0.67    0.65
   3   7  14    0.80    0.89
  -3  -7 -14   -0.22    0.82
   3   7  15   25.05    1.72
   3   7  15   26.91    2.09
   3   7  15   28.31    2.18
  -3  -7 -15   24.89    2.29
   3   7  15   22.88    2.16
   3   7  16  150.22    5.52
  -3  -7 -16  156.61    6.20
   3   7  16  164.11    5.77
   3   7  16  157.13    5.89
   3   7  17   48.99    3.11
   3   7  17   51.03    3.13
   3   7  17   51.80    3.24
   3   8 -11   21.61    2.40
  -3  -8  11   18.87    2.40
   3   8 -10   10.70    1.84
  -3  -8  10    8.98    1.60
   3   8  -9   28.46    2.70
  -3  -8   9   23.54    2.52
   3   8  -8    2.49    1.17
   3   8  -8    2.63    0.70
  -3  -8   8    1.51    1.07
   3   8  -7   -0.13    1.01
   3   8  -7    0.15    0.48
  -3  -8   7   -0.09    0.99
   3   8  -7    0.43    0.22
   3   8  -6   16.68    1.82
  -3  -8   6   15.78    1.82
   3   8  -6   16.73    0.91
   3   8  -6   13.82    0.87
   3   8  -5   64.04    3.33
  -3  -8   5   61.76    3.38
   3   8  -5   64.02    2.20
   3   8  -4   45.36    2.67
  -3  -8   4   43.56    2.68
   3   8  -4   44.93    1.90
   3   8  -3  121.37    2.84
  -3  -8   3  115.59    4.44
   3   8  -2   44.10    1.63
   3   8  -2   48.34    2.63
  -3  -8   2   42.99    2.47
   3   8  -1  243.72    5.59
   3   8  -1  261.35    6.91
  -3  -8   1  246.33    6.72
   3   8   0   53.48    2.10
   3   8   0   54.98    2.64
  -3  -8   0   55.49    2.59
   3   8   1  183.04    4.83
  -3  -8  -1  182.96    5.21
   3   8   1  193.28    5.35
   3   8   2  282.15    6.78
  -3  -8  -2  285.88    6.88
   3   8   2  282.36    6.87
   3   8   3  124.35    3.99
   3   8   3  122.90    3.82
  -3  -8  -3  129.83    3.87
  -3  -8  -3  126.29    4.07
   3   8   4  181.59    5.12
  -3  -8  -4  166.04    4.29
   3   8   4  165.92    4.57
  -3  -8  -4  171.62    4.93
   3   8   5   96.24    3.56
  -3  -8  -5   83.98    2.68
   3   8   5   89.56    2.98
  -3  -8  -5   88.65    3.27
   3   8   6    4.85    0.95
  -3  -8  -6    2.45    0.50
   3   8   6    2.82    0.64
  -3  -8  -6    2.75    0.79
   3   8   7    0.50    0.58
   3   8   7    1.21    0.51
  -3  -8  -7    0.64    0.61
   3   8   8   26.39    1.51
  -3  -8  -8   25.33    1.74
   3   8   8   23.20    1.91
   3   8   8   27.54    1.82
   3   8   9    0.54    0.72
   3   8   9   -0.19    0.45
   3   8   9   -0.12    0.45
   3   8   9    0.13    0.54
  -3  -8  -9   -0.11    0.66
   3   8   9    1.21    0.75
   3   8  10    0.40    0.66
   3   8  10   -0.72    0.47
   3   8  10    1.34    0.73
   3   8  10   -0.57    0.81
  -3  -8 -10    0.23    0.70
   3   8  11  170.99    5.51
   3   8  11  174.65    4.90
  -3  -8 -11  164.06    5.39
   3   8  11  170.63    5.79
   3   8  12   -0.15    0.73
   3   8  12   -0.15    0.52
   3   8  12    1.22    0.77
  -3  -8 -12    0.75    0.72
   3   8  13  111.43    4.26
   3   8  13  114.13    4.05
  -3  -8 -13  102.99    4.37
   3   8  13  118.14    4.05
   3   8  13  106.65    4.63
   3   8  14   28.08    2.07
   3   8  14   28.00    2.01
  -3  -8 -14   29.50    2.34
   3   8  14   28.20    1.97
   3   8  14   25.77    2.32
   3   8  15   42.01    2.47
   3   8  15   45.89    2.64
  -3  -8 -15   39.81    2.85
   3   8  15   39.19    2.44
   3   8  15   41.91    2.96
   3   8  16   38.09    2.54
  -3  -8 -16   34.40    2.82
   3   8  16   38.19    2.52
   3   8  16   33.94    2.69
   3   8  17   57.57    3.30
   3   8  17   54.53    3.48
   3   8  18   55.94    3.57
   3   9 -10    1.90    0.95
  -3  -9  10    2.78    1.33
   3   9  -9   32.52    2.87
  -3  -9   9   32.46    2.96
   3   9  -8    8.08    1.56
  -3  -9   8    8.34    1.58
   3   9  -8   10.54    1.16
   3   9  -7    0.25    0.89
   3   9  -7    0.73    0.67
  -3  -9   7    0.18    0.92
   3   9  -6   23.73    2.19
   3   9  -6   28.87    1.94
  -3  -9   6   26.66    2.43
   3   9  -6   26.18    1.34
   3   9  -5   24.54    2.19
   3   9  -5   23.79    1.82
  -3  -9   5   23.54    2.14
   3   9  -5   24.20    1.42
  -3  -9   4    1.74    0.96
   3   9  -3  111.43    2.72
  -3  -9   3  108.40    4.42
   3   9  -2  166.36    4.01
  -3  -9   2  156.28    5.34
   3   9  -1   41.40    1.78
   3   9  -1   43.03    2.48
  -3  -9   1   40.12    2.42
   3   9   0   49.72    2.09
   3   9   0   55.94    2.74
  -3  -9   0   49.30    2.57
   3   9   1  178.72    4.88
   3   9   1  186.67    5.42
  -3  -9  -1  180.62    5.31
   3   9   2  153.51    4.55
   3   9   2  152.81    4.67
  -3  -9  -2  156.54    4.67
   3   9   3   18.79    1.46
  -3  -9  -3   19.48    1.45
   3   9   3   15.65    1.32
  -3  -9  -3   17.20    1.51
   3   9   4   62.09    2.80
  -3  -9  -4   59.17    2.36
  -3  -9  -4   59.37    2.46
   3   9   4   60.78    2.51
  -3  -9  -4   57.67    2.67
   3   9   5   90.34    3.58
  -3  -9  -5   86.40    2.92
   3   9   5   87.35    3.02
  -3  -9  -5   86.63    3.33
   3   9   6    1.00    0.73
  -3  -9  -6    0.94    0.48
   3   9   6   -0.15    0.44
  -3  -9  -6    0.22    0.59
  -3  -9  -7   45.16    2.01
   3   9   7   45.91    2.03
  -3  -9  -7   45.87    2.36
   3   9   8   14.10    1.14
  -3  -9  -8   15.31    1.42
   3   9   9   42.62    2.59
  -3  -9  -9   41.11    2.31
   3   9   9   42.54    1.96
   3   9   9   46.34    2.48
   3   9  10  100.94    3.42
   3   9  10  103.40    4.21
  -3  -9 -10   96.92    3.81
   3   9  10   97.20    3.27
   3   9  10  102.79    4.32
   3   9  10  100.70    3.92
   3   9  11  110.12    4.39
   3   9  11  109.16    3.73
  -3  -9 -11  101.68    4.06
   3   9  11  113.44    3.61
   3   9  11  110.29    4.62
   3   9  12   15.49    1.62
   3   9  12   18.11    1.46
  -3  -9 -12   14.08    1.56
   3   9  12   17.15    1.88
   3   9  13    0.76    0.73
   3   9  13    1.32    0.51
   3   9  13    0.29    0.57
  -3  -9 -13    0.68    0.80
   3   9  13    1.15    0.94
   3   9  14   46.74    2.81
   3   9  14   44.03    2.52
  -3  -9 -14   45.29    2.88
   3   9  14   46.65    2.44
   3   9  14   44.81    3.05
   3   9  15   44.87    2.73
   3   9  15   39.38    2.51
   3   9  15   46.44    2.54
  -3  -9 -15   38.69    2.78
   3   9  15   44.46    3.14
   3   9  16   26.17    2.11
  -3  -9 -16   21.30    2.20
   3   9  16   23.61    2.37
  -3  -9 -17   51.22    3.46
   3   9  17   54.21    3.59
   3   9  18   62.76    3.88
   3  10  -9    1.82    1.03
  -3 -10   9    0.95    1.02
   3  10  -8    5.83    1.56
  -3 -10   8    6.92    1.56
   3  10  -7    6.19    1.45
  -3 -10   7    6.23    1.47
   3  10  -7    5.33    0.95
   3  10  -6    5.27    1.45
  -3 -10   6    4.69    1.40
   3  10  -6    2.54    0.75
   3  10  -5   -0.38    0.97
  -3 -10   5    0.48    0.87
   3  10  -5   -0.38    0.64
  -3 -10   4   40.03    2.81
   3  10  -4   44.63    2.61
   3  10  -3  121.42    2.97
  -3 -10   3  122.48    4.89
   3  10  -3  132.31    4.73
   3  10  -2   48.12    1.84
  -3 -10   2   40.77    2.67
   3  10  -2   45.47    2.65
   3  10  -1  101.45    3.15
  -3 -10   1   98.24    4.06
   3  10   0  141.07    4.12
   3  10   0  145.80    4.96
  -3 -10   0  137.51    4.79
   3  10   1   13.92    1.27
   3  10   1   12.71    1.35
  -3 -10  -1   12.58    1.38
   3  10   2  197.69    5.62
   3  10   2  214.17    5.95
  -3 -10  -2  208.68    5.84
   3  10   3   13.87    1.31
   3  10   3   14.56    1.32
  -3 -10  -3   14.76    1.32
   3  10   4  140.14    4.65
  -3 -10  -4  132.95    4.22
  -3 -10  -4  132.88    4.17
   3  10   4  135.79    4.23
  -3 -10  -4  137.61    4.57
   3  10   5    0.88    0.62
  -3 -10  -5    0.10    0.52
   3  10   5    0.83    0.50
  -3 -10  -5    0.82    0.70
  -3 -10  -6   47.66    2.22
  -3 -10  -6   48.18    2.49
   3  10   6   47.96    2.16
   3  10   7   35.29    2.47
  -3 -10  -7   34.88    1.88
  -3 -10  -7   36.74    2.15
   3  10   7   36.43    1.83
   3  10   8   34.86    2.44
  -3 -10  -8   33.48    1.87
  -3 -10  -8   38.44    2.20
   3  10   8   33.22    1.74
   3  10   9   17.68    1.79
   3  10   9   18.01    1.26
  -3 -10  -9   20.94    1.69
   3  10  10   23.75    2.12
  -3 -10 -10   24.05    1.83
   3  10  10   22.56    1.44
   3  10  11   47.34    2.94
  -3 -10 -11   46.27    2.62
   3  10  11   49.09    2.15
   3  10  11   49.49    3.10
   3  10  12   48.26    2.97
   3  10  12   51.88    2.57
  -3 -10 -12   43.91    2.65
   3  10  12   46.79    3.11
   3  10  13   20.22    1.98
   3  10  13   21.25    1.70
   3  10  13   18.54    2.07
  -3 -10 -13   18.00    1.80
   3  10  14   34.60    2.23
   3  10  14   31.97    2.45
  -3 -10 -14   33.21    2.44
   3  10  14   33.65    2.80
   3  10  15   17.82    1.87
   3  10  15   17.24    1.66
   3  10  15   17.09    2.13
  -3 -10 -15   16.84    1.90
   3  10  16   58.34    3.27
   3  10  16   58.35    3.18
  -3 -10 -16   59.07    3.54
   3  10  16   59.08    3.84
  -3 -10 -17    6.35    1.39
   3  10  17    4.42    1.43
   3  10  18  106.03    5.27
   3  11  -8    0.05    0.99
  -3 -11   8    0.07    1.05
   3  11  -7    5.98    1.55
  -3 -11   7    4.09    1.41
   3  11  -6    2.41    1.19
  -3 -11   6    1.71    1.09
   3  11  -6    1.92    0.80
   3  11  -5   25.44    2.49
  -3 -11   5   24.77    2.45
   3  11  -5   24.04    2.02
  -3 -11   4    2.88    1.05
   3  11  -4    0.84    0.69
  -3 -11   3  382.79   10.52
   3  11  -3  404.91   10.26
   3  11  -2   20.95    1.23
  -3 -11   2   18.48    1.95
   3  11  -2   19.06    1.85
   3  11  -1  204.51    5.26
  -3 -11   1  206.17    6.56
   3  11  -1  208.60    6.65
   3  11   0   38.40    2.01
  -3 -11   0   39.97    2.52
   3  11   0   37.90    2.59
   3  11   1    5.46    0.87
  -3 -11  -1    5.65    1.06
   3  11   1    8.45    1.36
   3  11   2   52.99    2.62
   3  11   2   61.47    2.94
  -3 -11  -2   61.22    2.91
   3  11   2   62.81    3.36
   3  11   3    7.69    1.06
   3  11   3    9.30    1.41
   3  11   3    8.17    1.05
  -3 -11  -3    8.73    1.12
   3  11   4  276.13    7.51
   3  11   4  280.62    8.15
  -3 -11  -4  267.68    7.05
   3  11   4  275.16    7.04
  -3 -11  -4  279.89    7.02
  -3 -11  -4  270.33    7.36
   3  11   5   34.25    2.48
  -3 -11  -5   28.57    1.85
   3  11   5   31.45    1.86
  -3 -11  -5   30.03    2.08
   3  11   6   10.60    1.50
  -3 -11  -6    8.01    1.01
   3  11   6    8.38    0.99
  -3 -11  -6    8.82    1.17
   3  11   7   87.92    4.13
  -3 -11  -7   80.64    3.18
  -3 -11  -7   85.48    3.49
   3  11   7   83.98    3.00
   3  11   8    1.17    0.97
  -3 -11  -8    0.55    0.64
   3  11   8   -0.28    0.49
  -3 -11  -8    0.40    0.61
   3  11   9   21.82    2.13
  -3 -11  -9   22.22    1.77
   3  11   9   25.60    1.51
   3  11  10   67.13    3.66
   3  11  10   67.16    2.49
  -3 -11 -10   65.48    3.09
   3  11  11   37.76    2.73
  -3 -11 -11   34.01    2.29
   3  11  12   24.31    2.26
  -3 -11 -12   23.71    1.92
   3  11  12   23.45    2.34
   3  11  13  165.16    6.08
  -3 -11 -13  151.66    5.43
   3  11  13  159.69    6.31
   3  11  14    4.86    1.11
   3  11  14    2.21    1.09
   3  11  14    1.34    1.16
  -3 -11 -14    1.88    0.88
   3  11  15   70.66    3.90
   3  11  15   78.05    3.65
  -3 -11 -15   70.37    3.73
   3  11  15   74.61    4.35
   3  11  16   29.82    2.54
  -3 -11 -16   30.28    2.52
   3  11  16   33.19    2.97
   3  11  17   21.73    2.46
  -3 -11 -17   24.00    2.41
   3  11  18   42.30    3.43
   3  12  -6    8.22    1.59
  -3 -12   6    7.84    1.50
   3  12  -6   11.07    1.47
   3  12  -5   36.89    3.05
  -3 -12   5   45.02    3.32
   3  12  -5   41.42    2.75
  -3 -12   4    1.33    1.09
   3  12  -4    2.41    0.98
  -3 -12   3   50.21    3.28
   3  12  -3   55.06    3.18
  -3 -12   2   25.39    2.28
   3  12  -2   24.69    2.18
  -3 -12   1  209.32    6.86
   3  12  -1  208.39    6.95
   3  12   0   36.31    2.05
  -3 -12   0   35.64    2.53
   3  12   0   39.30    2.75
   3  12   1  160.82    5.03
  -3 -12  -1  160.35    5.53
   3  12   1  181.02    6.27
   3  12   2  103.26    3.98
  -3 -12  -2  110.28    4.23
   3  12   2  114.39    4.87
   3  12   3   84.47    3.66
   3  12   3   96.03    4.41
   3  12   3   86.13    3.60
  -3 -12  -3   88.61    3.63
   3  12   4   37.68    2.76
  -3 -12  -4   36.01    2.29
   3  12   4   34.90    2.20
  -3 -12  -4   36.49    2.16
  -3 -12  -4   41.02    2.52
   3  12   5   39.51    2.83
  -3 -12  -5   34.20    2.16
   3  12   5   34.96    2.08
  -3 -12  -5   34.12    1.99
  -3 -12  -5   35.14    2.29
   3  12   6    5.20    1.29
  -3 -12  -6    4.92    0.92
   3  12   6    4.75    0.80
  -3 -12  -6    4.87    1.02
   3  12   7    0.44    0.87
  -3 -12  -7    0.85    0.66
   3  12   7   -0.07    0.57
  -3 -12  -7    0.46    0.72
   3  12   8   -0.90    0.95
  -3 -12  -8    0.38    0.55
   3  12   8    0.35    0.47
  -3 -12  -8    0.30    0.67
   3  12   9    1.28    0.96
  -3 -12  -9    1.00    0.63
   3  12   9    0.81    0.55
  -3 -12  -9    0.47    0.69
   3  12  10    8.11    1.53
  -3 -12 -10    9.31    1.25
   3  12  11   41.84    3.04
  -3 -12 -11   36.91    2.40
   3  12  12   19.52    2.16
  -3 -12 -12   19.66    1.81
   3  12  12   18.00    2.20
   3  12  13   81.35    4.28
  -3 -12 -13   79.01    3.71
   3  12  13   74.71    4.32
   3  12  14    0.81    0.99
  -3 -12 -14   -0.16    0.71
   3  12  14    0.13    1.04
   3  12  15   49.64    3.36
  -3 -12 -15   48.12    3.06
   3  12  15   53.91    3.74
   3  12  16   14.72    2.01
   3  12  16   14.34    2.11
   3  13  -5   12.28    2.20
  -3 -13   5   21.82    2.51
   3  13  -5   16.13    1.92
  -3 -13   4   43.51    3.32
   3  13  -4   46.71    3.11
  -3 -13   3   48.87    3.41
   3  13  -3   42.91    3.00
  -3 -13   2   15.59    1.91
   3  13  -2   17.33    2.00
  -3 -13   1   32.05    2.58
   3  13  -1   35.47    2.74
  -3 -13   0   20.28    2.05
   3  13   0   20.82    2.21
   3  13   1   41.05    2.41
  -3 -13  -1   39.79    2.64
   3  13   1   46.83    3.18
   3  13   2  239.69    6.94
   3  13   2  253.18    8.11
  -3 -13  -2  240.37    7.14
   3  13   3   89.79    4.53
  -3 -13  -3   93.46    3.87
   3  13   4   74.66    4.05
   3  13   4   63.22    3.08
  -3 -13  -4   67.24    3.11
  -3 -13  -4   71.48    3.49
   3  13   5    2.56    1.08
  -3 -13  -5    2.47    0.77
   3  13   5    2.36    0.74
  -3 -13  -5    2.91    0.96
   3  13   6    5.89    1.35
   3  13   6    4.20    0.89
  -3 -13  -6    3.54    0.96
   3  13   7   45.09    3.20
  -3 -13  -7   39.41    2.48
   3  13   8    6.69    1.39
  -3 -13  -8    6.36    1.13
   3  13   9    8.91    1.55
  -3 -13  -9    4.07    1.00
   3  13  10    6.59    1.50
  -3 -13 -10    3.82    0.92
   3  13  11   31.36    2.79
  -3 -13 -11   25.95    2.01
   3  13  12   61.22    3.84
  -3 -13 -12   60.51    3.16
   3  13  13   56.42    3.80
  -3 -13 -13   58.51    3.15
   3  13  13   61.13    4.02
   3  13  14    6.13    1.53
  -3 -13 -14    6.22    1.19
   3  13  14    5.31    1.39
   3  13  15    6.79    1.49
   3  13  15    9.12    1.97
   3  13  16   43.42    3.30
   3  14  -4   52.84    3.45
  -3 -14   4   57.08    3.91
   3  14  -3   31.88    2.77
  -3 -14   3   31.80    2.88
   3  14  -2   58.28    3.69
  -3 -14   2   62.97    3.86
   3  14  -1   25.06    2.42
  -3 -14   1   25.21    2.47
   3  14   0   23.06    2.34
  -3 -14   0   23.43    2.29
   3  14   1   45.49    3.26
  -3 -14  -1   41.65    2.83
   3  14   2  140.15    5.90
  -3 -14  -2  128.32    5.02
   3  14   3   25.05    2.54
  -3 -14  -3   25.17    2.05
   3  14   4  139.68    5.99
  -3 -14  -4  143.19    4.94
  -3 -14  -4  124.98    5.04
   3  14   5    7.53    1.44
  -3 -14  -5    7.90    1.14
  -3 -14  -5    8.09    1.29
   3  14   6   -0.16    0.97
  -3 -14  -6    0.43    0.85
   3  14   7    1.30    1.12
  -3 -14  -7    0.13    0.70
   3  14   8   10.95    1.86
  -3 -14  -8   10.17    1.38
   3  14   9   10.06    1.75
  -3 -14  -9    8.89    1.22
   3  14  10    0.36    0.99
  -3 -14 -10   -0.21    0.66
   3  14  11   44.20    3.44
  -3 -14 -11   47.31    2.77
   3  14  12    8.45    1.84
  -3 -14 -12    7.63    1.22
   3  14  13   61.12    4.11
   3  14  14   11.23    2.05
   3  14  15   33.45    3.00
   3  14  16    7.26    1.74
   3  15  -3   90.26    4.77
  -3 -15   3   85.56    4.87
   3  15  -2    2.83    1.21
  -3 -15   2    2.24    1.13
   3  15  -1   53.54    3.73
  -3 -15   1   52.13    3.53
   3  15   0    1.71    1.03
  -3 -15   0    1.12    1.04
   3  15   1  126.47    5.85
  -3 -15  -1  131.47    5.41
   3  15   2   26.91    2.72
  -3 -15  -2   30.02    2.46
   3  15   3   27.13    2.72
  -3 -15  -3   31.51    2.43
   3  15   4   26.89    2.77
  -3 -15  -4   22.52    1.93
  -3 -15  -4   21.23    2.05
   3  15   5   -0.37    1.09
  -3 -15  -5    0.05    0.59
  -3 -15  -5   -0.91    0.94
   3  15   6    4.25    1.37
  -3 -15  -6    1.16    0.87
   3  15   7   10.37    1.85
  -3 -15  -7   10.28    1.51
   3  15   8   12.03    2.05
  -3 -15  -8    8.97    1.36
   3  15   9   54.75    3.85
  -3 -15  -9   49.82    2.89
   3  15  10    1.69    0.99
  -3 -15 -10    2.26    0.84
   3  15  11   39.62    3.38
   3  15  12   -0.61    1.05
   3  16  -2    8.13    1.81
   3  16  -1   70.23    4.35
  -3 -16   1   58.81    3.93
   3  16   0   14.37    2.11
  -3 -16   0   11.81    1.86
   3  16   1   34.39    3.12
  -3 -16  -1   28.87    2.56
   3  16   2   42.69    3.47
  -3 -16  -2   35.95    2.74
   3  16   3    0.94    1.11
  -3 -16  -3   -0.77    0.86
   3  16   4   21.25    2.61
  -3 -16  -4   19.19    2.10
   3  16   5   18.55    2.37
  -3 -16  -5   19.59    2.08
   3  16   6    3.02    1.37
  -3 -16  -6    1.17    0.87
   3  16   7    2.10    1.27
  -3 -16  -7    1.90    0.95
   4 -14  -3    1.83    1.21
   4 -14  -2    9.03    1.88
   4 -13  -6    4.46    1.36
   4 -13  -5    2.06    1.26
   4 -13  -4    6.79    1.56
   4 -13  -3    7.86    1.61
   4 -13  -2   34.46    2.95
   4 -13  -1    8.81    1.68
   4 -12  -9    5.26    1.49
  -4  12   9    0.72    1.09
   4 -12  -8    0.05    0.94
  -4  12   8    2.06    1.22
   4 -12  -7    3.94    1.30
  -4  12   7    6.48    1.59
   4 -12  -6    0.23    0.95
  -4  12   6    1.02    0.98
   4 -12  -5   28.98    2.76
  -4  12   5   23.03    2.57
   4 -12  -4    0.79    1.14
  -4  12   4    0.64    1.22
   4 -12  -3   28.62    2.67
  -4  12   3   30.67    2.90
   4 -12  -2   10.94    1.78
  -4  12   2    8.20    1.60
   4 -12  -1    0.90    0.98
  -4  12   1    0.92    1.05
   4 -12   0   10.48    1.69
  -4  12   0    9.90    1.75
   4 -12   1    1.16    1.14
   4 -12   1   -0.40    0.91
  -4  12  -1   -0.67    1.03
   4 -12   2    3.70    1.36
  -4  12  -2    3.36    1.24
   4 -12   3    7.18    1.52
  -4  12  -3    5.80    1.50
   4 -12   4    1.68    1.28
  -4  11  12   -0.49    1.14
   4 -11 -11   24.88    2.78
  -4  11  11   24.67    2.65
   4 -11 -10    3.93    1.37
  -4  11  10    2.97    1.19
   4 -11  -9    0.01    0.99
  -4  11   9    0.42    0.95
   4 -11  -8    2.05    1.12
  -4  11   8    1.62    1.03
   4 -11  -7   23.92    2.46
  -4  11   7   26.33    2.66
   4 -11  -6    9.75    1.79
  -4  11   6    9.51    1.73
   4 -11  -5   17.26    2.20
  -4  11   5   12.30    1.93
   4 -11  -4    0.55    1.08
  -4  11   4    1.20    1.24
   4 -11  -3   10.64    1.79
  -4  11   3   10.75    1.91
   4 -11  -2   12.86    1.84
   4 -11  -2   13.75    1.45
  -4  11   2   12.39    1.87
   4 -11  -1    1.30    0.89
   4 -11  -1    1.77    0.75
  -4  11   1    2.62    1.21
   4 -11   0   35.51    2.71
   4 -11   0   29.90    2.36
  -4  11   0   29.06    2.68
   4 -11   1   13.41    1.69
   4 -11   1   10.44    1.51
  -4  11  -1    9.37    1.68
   4 -11   2   -0.72    0.83
   4 -11   2    0.43    1.20
  -4  11  -2   -0.52    1.04
   4 -11   3   14.09    1.97
  -4  11  -3   10.92    1.75
   4 -11   4    1.84    1.17
  -4  11  -4    1.14    0.92
   4 -11   5   11.90    1.89
  -4  10  15   11.00    1.85
  -4  10  14   10.48    1.82
  -4  10  13    0.26    0.95
   4 -10 -12    0.20    0.98
  -4  10  12   -1.49    1.20
   4 -10 -11    2.80    1.40
  -4  10  11    1.11    1.17
   4 -10 -10    7.88    1.60
  -4  10  10    4.23    1.23
   4 -10  -9    0.88    0.96
  -4  10   9    0.30    0.91
   4 -10  -8    1.48    1.07
  -4  10   8    2.49    1.08
   4 -10  -7    9.68    1.62
  -4  10   7    7.01    1.46
   4 -10  -6   10.64    1.66
  -4  10   6   11.35    1.75
   4 -10  -5    6.83    1.44
  -4  10   5   12.43    1.87
   4 -10  -4   18.82    2.13
   4 -10  -4   20.15    1.36
  -4  10   4   15.95    2.01
   4 -10  -3    0.07    0.95
   4 -10  -3    0.73    0.53
  -4  10   3    1.10    1.09
   4 -10  -2   40.45    2.85
   4 -10  -2   36.63    2.17
  -4  10   2   31.53    2.72
   4 -10  -1   24.40    2.23
   4 -10  -1   21.34    1.80
  -4  10   1   22.28    2.26
   4 -10   0   74.80    3.83
   4 -10   0   73.56    3.51
  -4  10   0   70.31    3.94
   4 -10   1    2.15    1.01
   4 -10   1    0.95    0.84
  -4  10  -1    1.44    1.02
   4 -10   2    7.16    1.35
   4 -10   2    6.35    1.29
  -4  10  -2    5.06    1.20
   4 -10   3    0.22    0.74
   4 -10   3   -0.63    0.90
  -4  10  -3    0.92    0.88
   4 -10   4    2.03    0.84
   4 -10   4    3.37    1.23
  -4  10  -4    2.00    0.92
   4 -10   5    4.64    1.39
  -4  10  -5    4.15    1.15
  -4  10  -6    8.36    1.70
   4 -10   6    7.27    1.61
  -4   9  15    6.33    1.56
   4  -9 -14   18.24    2.48
  -4   9  14   17.48    2.02
   4  -9 -13    7.47    1.76
  -4   9  13    3.20    1.36
  -4   9  13    3.68    1.31
   4  -9 -12    1.16    1.08
  -4   9  12    1.93    0.99
  -4   9  12    2.64    1.33
   4  -9 -11    2.32    1.35
  -4   9  11    3.34    1.22
  -4   9  11    2.49    1.30
   4  -9 -10    0.48    1.09
  -4   9  10    3.19    1.15
   4  -9  -9    3.95    1.16
  -4   9   9    3.63    1.18
   4  -9  -8    0.60    0.93
  -4   9   8   -0.02    1.04
   4  -9  -7   31.96    2.69
  -4   9   7   26.94    2.41
   4  -9  -6    8.79    1.52
   4  -9  -6    8.66    0.56
  -4   9   6    8.37    1.44
   4  -9  -5   75.59    3.97
   4  -9  -5   78.25    2.44
  -4   9   5   76.64    4.03
   4  -9  -4   13.84    1.72
   4  -9  -4   11.83    1.05
  -4   9   4   12.94    1.73
   4  -9  -3   57.47    3.39
   4  -9  -3   62.60    2.63
  -4   9   3   62.62    3.55
   4  -9  -2   41.76    2.81
   4  -9  -2   39.16    2.17
  -4   9   2   40.85    2.89
   4  -9  -1   23.58    2.10
   4  -9  -1   25.92    1.89
  -4   9   1   23.88    2.23
   4  -9   0   12.63    1.62
   4  -9   0   12.01    1.43
  -4   9   0   11.39    1.60
   4  -9   1   24.59    2.08
   4  -9   1   23.78    2.04
  -4   9  -1   23.91    2.21
   4  -9   2    8.41    1.45
   4  -9   2    9.03    1.36
  -4   9  -2   10.81    1.53
   4  -9   3    2.13    0.91
   4  -9   3   -0.41    0.81
  -4   9  -3    0.31    0.78
   4  -9   4    0.10    0.69
   4  -9   4   -0.93    1.09
  -4   9  -4   -0.50    0.78
   4  -9   5    0.12    0.67
   4  -9   5    0.73    1.00
  -4   9  -5   -0.61    0.86
  -4   9  -6    9.12    1.71
   4  -9   6    8.56    1.62
  -4   9  -6   12.12    1.53
  -4   9  -7   -0.16    1.01
   4  -9   7    2.52    1.11
   4  -8 -15    0.32    1.25
  -4   8  15    1.54    1.05
   4  -8 -14    0.47    0.97
  -4   8  14    0.79    1.10
  -4   8  14   -1.05    1.26
   4  -8 -13    3.44    1.37
  -4   8  13    5.43    1.17
  -4   8  13    6.61    1.54
   4  -8 -12    5.84    1.40
  -4   8  12    6.09    1.32
  -4   8  12    7.19    1.58
   4  -8 -11    9.42    1.69
  -4   8  11   12.96    1.90
  -4   8  11    8.76    1.51
   4  -8 -10    3.82    1.20
  -4   8  10    5.62    1.32
  -4   8  10    6.51    1.31
   4  -8  -9    0.11    0.93
  -4   8   9    1.09    0.88
  -4   8   9    0.84    1.03
   4  -8  -8    7.29    1.53
  -4   8   8    7.82    1.39
   4  -8  -7  110.10    4.88
  -4   8   7  116.47    4.91
   4  -8  -6   11.51    1.70
   4  -8  -6   10.18    0.63
   4  -8  -6    7.54    0.54
  -4   8   6    9.73    1.54
   4  -8  -5  627.23   14.89
   4  -8  -5  663.81   12.30
  -4   8   5  607.04   14.74
   4  -8  -4   95.63    4.31
  -4   8   4   92.38    4.26
   4  -8  -4   97.10    3.03
   4  -8  -3  197.72    6.22
  -4   8   3  179.26    6.04
   4  -8  -3  203.62    4.89
   4  -8  -2   21.46    2.01
   4  -8  -2   22.26    1.58
   4  -8  -2   23.80    1.13
  -4   8   2   16.93    1.81
   4  -8  -1   41.17    2.66
   4  -8  -1   43.13    2.35
   4  -8  -1   43.73    1.82
  -4   8   1   41.51    2.76
   4  -8   0   26.57    2.13
  -4   8   0   24.24    2.11
   4  -8   0   21.84    1.43
   4  -8   0   23.31    1.85
   4  -8   1   -0.30    0.78
  -4   8  -1    0.77    0.76
   4  -8   1    0.15    0.71
   4  -8   1    0.37    0.54
   4  -8   2   38.32    2.49
   4  -8   2   40.95    2.29
   4  -8   2   40.41    2.66
  -4   8  -2   35.32    2.48
   4  -8   3    2.42    0.89
   4  -8   3    3.56    1.09
  -4   8  -3    2.22    0.92
   4  -8   4    8.17    1.27
   4  -8   4    8.48    1.52
  -4   8  -4    7.60    1.24
   4  -8   5    2.32    0.76
   4  -8   5    1.91    0.90
  -4   8  -5    2.38    0.80
   4  -8   6    1.74    0.74
  -4   8  -6    1.03    1.03
   4  -8   6    1.89    1.20
  -4   8  -6    1.31    0.64
  -4   8  -7   22.29    2.49
   4  -8   7   22.59    2.49
  -4   8  -8   14.96    2.13
   4  -8   8   14.07    2.12
  -4   8  -9   20.91    2.48
   4  -7 -16   39.36    3.30
   4  -7 -15    1.91    1.27
  -4   7  15    3.62    1.19
  -4   7  15    1.93    1.11
   4  -7 -14    1.10    1.21
  -4   7  14    1.02    0.80
  -4   7  14    2.30    1.18
   4  -7 -13    0.35    0.94
  -4   7  13    0.60    0.90
  -4   7  13    2.87    1.14
   4  -7 -12    0.86    1.03
  -4   7  12   -0.03    0.95
  -4   7  12   -2.44    1.04
   4  -7 -11    3.09    1.28
  -4   7  11    2.95    0.90
  -4   7  11    3.73    1.17
   4  -7 -10   14.37    1.91
  -4   7  10   13.72    1.63
  -4   7  10   13.70    1.83
   4  -7  -9    2.67    1.09
  -4   7   9    4.97    1.13
  -4   7   9    3.32    1.12
   4  -7  -8   92.63    4.34
  -4   7   8   88.87    4.11
  -4   7   8   91.06    4.24
   4  -7  -7   14.90    1.86
   4  -7  -7   12.29    0.52
   4  -7  -7   14.06    0.54
  -4   7   7   15.17    1.70
  -4   7   7   17.79    1.93
   4  -7  -6  101.72    4.47
   4  -7  -6   95.33    2.53
   4  -7  -6  117.21    2.67
  -4   7   6  108.52    4.50
   4  -7  -5   95.32    4.20
   4  -7  -5   98.18    2.69
   4  -7  -5   88.01    2.59
  -4   7   5   98.93    4.21
   4  -7  -4    8.71    1.34
   4  -7  -4   11.95    0.96
  -4   7   4   12.65    1.55
   4  -7  -3  111.68    4.47
   4  -7  -3  111.55    3.43
  -4   7   3  106.39    4.41
   4  -7  -2   73.07    3.45
   4  -7  -2   66.96    2.00
   4  -7  -2   68.37    2.72
  -4   7   2   73.47    3.51
   4  -7  -1   37.67    2.43
   4  -7  -1   33.98    1.53
   4  -7  -1   36.50    2.03
  -4   7   1   37.40    2.48
   4  -7   0   37.91    2.43
  -4   7   0   39.07    2.50
   4  -7   0   38.96    1.83
   4  -7   0   37.73    2.21
   4  -7   1    5.58    1.08
  -4   7  -1    6.46    1.18
   4  -7   1    9.36    1.32
   4  -7   1    8.58    0.97
   4  -7   2    2.96    0.88
  -4   7  -2    2.60    0.90
   4  -7   2    2.60    0.92
   4  -7   2    2.61    0.72
   4  -7   3    1.00    0.73
  -4   7  -3    0.95    0.68
   4  -7   3    3.15    1.01
   4  -7   3    0.22    0.52
   4  -7   4   39.16    2.37
   4  -7   4   37.75    2.63
  -4   7  -4   38.25    2.42
   4  -7   5   13.49    1.42
   4  -7   5   11.66    1.64
  -4   7  -5   16.74    1.61
  -4   7  -6   13.10    1.80
   4  -7   6   14.23    1.47
   4  -7   6   12.64    1.82
  -4   7  -6   12.21    1.37
  -4   7  -7    0.97    1.18
   4  -7   7    1.77    0.77
   4  -7   7   -0.04    1.02
  -4   7  -7   -0.54    0.59
  -4   7  -8  116.81    5.37
   4  -7   8  130.36    5.91
  -4   7  -9   11.68    1.78
   4  -7   9   16.91    2.23
  -4   7 -10   11.56    1.88
   4  -6 -17    2.75    1.31
   4  -6 -16   36.33    3.12
   4  -6 -15   11.38    1.85
  -4   6  15   11.44    1.54
  -4   6  15   16.83    2.24
   4  -6 -14   13.63    1.94
  -4   6  14   16.60    1.79
  -4   6  14   17.49    2.16
   4  -6 -13    0.62    1.02
  -4   6  13    0.53    0.97
  -4   6  13    1.10    0.76
   4  -6 -12    1.71    1.06
  -4   6  12    0.86    0.95
  -4   6  12    2.31    0.92
   4  -6 -11    4.36    1.21
  -4   6  11    2.23    0.82
  -4   6  11    3.68    1.24
   4  -6 -10   20.09    2.03
  -4   6  10   20.08    1.87
  -4   6  10   20.78    2.06
   4  -6  -9    0.91    0.83
   4  -6  -9    0.26    0.17
  -4   6   9    0.53    0.84
  -4   6   9   -1.32    1.07
   4  -6  -8   42.00    2.83
   4  -6  -8   43.15    1.27
  -4   6   8   44.61    2.82
  -4   6   8   47.55    2.80
   4  -6  -7  141.45    5.25
   4  -6  -7  140.67    3.14
  -4   6   7  145.43    5.23
  -4   6   7  139.85    5.07
   4  -6  -6   48.76    2.91
   4  -6  -6   47.60    1.58
  -4   6   6   53.41    2.97
  -4   6   6   46.60    2.75
   4  -6  -5   82.68    3.73
   4  -6  -5   76.44    2.30
  -4   6   5   75.69    3.53
   4  -6  -4   24.11    2.00
  -4   6   4   25.18    1.99
   4  -6  -3   84.99    3.69
  -4   6   3   82.32    3.65
   4  -6  -2  118.54    4.38
  -4   6   2  114.53    4.35
   4  -6  -2  112.48    2.76
   4  -6  -1    0.90    0.70
  -4   6   1    1.50    0.82
   4  -6  -1    1.64    0.60
   4  -6  -1    0.36    0.29
   4  -6   0   43.62    2.53
  -4   6   0   46.56    2.62
   4  -6   0   47.53    1.96
   4  -6   0   51.39    2.43
   4  -6   1    4.54    1.00
  -4   6  -1    4.13    0.96
   4  -6   1    2.44    0.72
   4  -6   1    4.59    0.72
   4  -6   2   22.05    1.75
   4  -6   2   26.44    1.95
  -4   6  -2   19.35    1.70
   4  -6   2   19.72    1.46
   4  -6   2   23.24    1.83
   4  -6   3    0.65    0.55
  -4   6  -3    0.78    0.62
   4  -6   3    1.41    0.74
   4  -6   3    0.52    0.73
   4  -6   3    1.22    0.61
   4  -6   4    1.12    0.69
   4  -6   4    1.75    0.81
  -4   6  -4    0.38    0.56
   4  -6   4    1.69    0.88
   4  -6   4    1.69    0.75
   4  -6   5    0.49    0.88
  -4   6  -5    2.07    0.76
   4  -6   5   -0.02    0.61
   4  -6   5    0.98    0.70
  -4   6  -6   13.44    1.70
   4  -6   6   13.22    1.71
  -4   6  -6   12.72    1.33
   4  -6   6   15.41    1.50
   4  -6   6   13.57    1.41
   4  -6   7   73.24    3.15
  -4   6  -7   63.28    3.56
   4  -6   7   66.86    3.91
  -4   6  -7   68.01    3.04
  -4   6  -8    1.08    0.97
   4  -6   8    2.51    1.10
  -4   6  -8    1.48    0.63
   4  -6   8    1.54    0.68
  -4   6  -9   48.38    3.32
   4  -6   9   55.77    3.82
  -4   6 -10   27.11    2.61
   4  -6  10   29.76    2.97
  -4   6 -11   61.59    4.02
   4  -5 -17   40.84    3.27
   4  -5 -16   24.39    2.50
  -4   5  15    4.27    1.37
   4  -5 -15    0.99    1.02
  -4   5  14    2.07    0.88
  -4   5  14   -0.21    1.11
   4  -5 -14    1.23    1.00
  -4   5  13   20.48    1.88
  -4   5  13   21.65    2.28
   4  -5 -13   19.52    2.10
  -4   5  12    0.54    0.73
  -4   5  12    0.28    0.89
   4  -5 -12    0.48    0.81
  -4   5  11    5.25    1.26
  -4   5  11    2.71    0.88
   4  -5 -11    4.71    1.21
  -4   5  11    5.32    0.64
   4  -5 -10   55.64    3.22
  -4   5  10   59.52    1.83
   4  -5 -10   58.93    2.01
  -4   5  10   61.57    3.43
  -4   5  10   56.47    3.00
   4  -5  -9    8.87    1.43
  -4   5   9   10.53    1.36
  -4   5   9   11.25    1.55
   4  -5  -9   10.01    0.74
  -4   5   9   10.79    0.57
   4  -5  -8   24.99    2.08
  -4   5   8   21.97    1.86
  -4   5   8   20.37    1.92
   4  -5  -8   24.62    1.13
  -4   5   8   22.54    1.85
   4  -5  -7  131.70    4.91
  -4   5   7  133.34    4.83
  -4   5   7  132.13    4.68
   4  -5  -7  127.41    3.18
  -4   5   7  135.08    4.67
  -4   5   7  137.78    4.67
   4  -5  -6    1.98    0.82
  -4   5   6    3.27    0.80
  -4   5   6    2.02    0.89
   4  -5  -6    3.24    0.46
  -4   5   6    2.64    0.74
   4  -5  -5  186.75    5.85
  -4   5   5  188.23    5.76
   4  -5  -5  200.41    5.92
  -4   5   5  190.33    5.80
   4  -5  -5  202.00    5.91
   4  -5  -5  172.79    4.24
  -4   5   5  184.52    5.67
   4  -5  -4   69.07    3.23
  -4   5   4   69.94    3.20
   4  -5  -4   71.70    3.25
   4  -5  -4   75.57    3.23
   4  -5  -4   65.17    2.23
  -4   5   4   69.56    3.16
   4  -5  -3  286.25    7.57
   4  -5  -3  290.76    7.47
  -4   5   3  270.89    7.38
   4  -5  -3  271.15    7.43
  -4   5   3  279.48    7.47
   4  -5  -2   26.83    1.91
   4  -5  -2   26.06    1.84
  -4   5   2   24.18    1.83
   4  -5  -2   27.77    1.96
  -4   5   2   23.35    1.81
   4  -5  -2   23.17    0.99
   4  -5  -1   31.36    2.07
   4  -5  -1   33.33    2.12
   4  -5  -1   32.07    2.04
  -4   5   1   29.94    2.00
   4  -5  -1   30.12    1.30
  -4   5   1   29.27    2.04
  -4   5   0    0.71    0.62
   4  -5   0    1.52    0.55
   4  -5   0    1.18    0.65
   4  -5   0    0.85    0.69
   4  -5   0    0.98    0.39
  -4   5   0    0.38    0.60
   4  -5   1   43.27    2.38
   4  -5   1   46.85    2.48
  -4   5  -1   46.14    2.45
   4  -5   1   43.49    1.95
  -4   5  -1   43.70    2.48
   4  -5   2   16.03    1.50
   4  -5   2   15.28    1.41
  -4   5  -2   16.81    1.50
   4  -5   2   17.25    1.53
   4  -5   2   16.68    1.28
  -4   5  -2   17.50    1.58
   4  -5   3    0.78    0.57
   4  -5   3    0.61    0.64
  -4   5  -3    0.17    0.63
   4  -5   3    0.53    0.77
  -4   5  -3   -0.54    0.75
   4  -5   3   -0.15    0.58
   4  -5   4    1.98    0.68
   4  -5   4    1.80    0.76
  -4   5  -4    1.58    0.66
   4  -5   4    0.37    0.70
   4  -5   4    1.46    0.64
   4  -5   5    3.69    1.05
  -4   5  -5    0.47    0.51
   4  -5   5    1.68    0.74
   4  -5   5    2.40    0.72
   4  -5   6   40.89    2.31
  -4   5  -6   43.53    2.68
   4  -5   6   43.65    2.88
   4  -5   6   44.47    2.37
  -4   5  -6   40.91    2.23
   4  -5   7  104.06    3.87
  -4   5  -7  100.91    4.34
   4  -5   7  104.72    4.78
   4  -5   7  104.44    3.75
  -4   5  -7   98.36    3.61
  -4   5  -8    1.09    0.83
   4  -5   8    1.48    1.19
   4  -5   8    2.15    0.71
  -4   5  -8    0.58    0.54
   4  -5   9  188.66    5.59
  -4   5  -9  181.11    6.54
   4  -5   9  193.94    7.27
  -4   5 -10   18.45    2.08
   4  -5  10   18.17    2.25
  -4   5 -11  101.53    5.08
   4  -5  11  115.39    5.78
  -4   5 -12   30.18    2.82
   4  -4 -17   20.27    2.33
   4  -4 -16    2.35    1.18
   4  -4 -15   -0.42    0.85
  -4   4  15   -0.29    1.05
   4  -4 -14    7.96    1.42
  -4   4  14    4.67    1.04
  -4   4  14    8.47    1.59
   4  -4 -13   -0.33    0.87
  -4   4  13   -0.15    0.69
  -4   4  13    0.07    0.94
  -4   4  13   -0.73    0.62
   4  -4 -12   50.46    3.09
  -4   4  12   42.97    3.04
  -4   4  12   47.93    2.71
  -4   4  12   48.65    2.19
  -4   4  12   44.90    2.46
   4  -4 -11   14.20    1.65
  -4   4  11   16.34    1.59
  -4   4  11   16.62    1.92
  -4   4  11   13.65    1.13
   4  -4 -11   12.78    1.11
  -4   4  11   14.67    1.11
  -4   4  11   14.19    1.41
   4  -4 -10   22.76    2.01
   4  -4 -10   20.80    1.79
  -4   4  10   23.32    1.82
  -4   4  10   20.04    2.00
  -4   4  10   21.42    1.30
  -4   4  10   22.87    1.26
   4  -4 -10   20.46    1.29
  -4   4  10   22.31    1.74
   4  -4  -9    0.41    0.77
   4  -4  -9   -0.58    0.60
  -4   4   9    1.01    0.64
  -4   4   9    1.51    0.92
   4  -4  -9    0.65    0.41
  -4   4   9    1.28    0.76
  -4   4   9    0.32    0.31
  -4   4   8   79.51    3.47
   4  -4  -8   78.38    3.61
   4  -4  -8   82.14    3.50
  -4   4   8   86.85    3.79
  -4   4   8   83.97    3.49
   4  -4  -8   78.06    2.52
  -4   4   8   87.82    2.23
  -4   4   8   84.52    3.42
   4  -4  -7   17.19    1.67
  -4   4   7   16.09    1.48
   4  -4  -7   16.91    1.53
  -4   4   7   14.60    1.44
  -4   4   7   15.72    1.59
  -4   4   7   16.59    0.67
   4  -4  -7   15.91    1.00
  -4   4   7   17.86    1.52
  -4   4   7   14.09    0.67
   4  -4  -6   11.24    1.40
  -4   4   6   11.07    1.24
  -4   4   6   10.33    1.30
  -4   4   6   11.14    1.31
   4  -4  -6   12.31    1.32
  -4   4   6   10.27    1.26
   4  -4  -6   10.84    0.80
  -4   4   6   10.44    1.28
   4  -4  -5  193.53    5.80
   4  -4  -5  204.46    5.81
  -4   4   5  192.14    5.68
  -4   4   5  184.35    5.59
   4  -4  -5  204.37    5.81
   4  -4  -5  181.61    4.43
  -4   4   5  195.20    5.60
   4  -4  -4  483.94   11.16
   4  -4  -4  517.35   11.27
  -4   4   4  497.45   11.08
  -4   4   4  493.50   11.10
   4  -4  -4  513.70   11.15
   4  -4  -4  471.22    9.71
  -4   4   4  509.08   11.11
  -4   4   3   13.05    1.36
   4  -4  -3   11.21    1.26
   4  -4  -3   13.54    1.31
   4  -4  -3   11.04    1.32
  -4   4   3   11.50    1.25
  -4   4   2    0.39    0.71
   4  -4  -2    0.97    0.61
   4  -4  -2    1.23    0.62
   4  -4  -2   -0.16    0.69
  -4   4   2    0.75    0.62
   4  -4  -2    0.30    0.27
   4  -4  -1   69.97    2.99
   4  -4  -1   66.21    2.90
  -4   4   1   62.83    2.81
   4  -4  -1   67.28    2.84
   4  -4  -1   59.74    1.96
  -4   4   1   64.54    2.91
   4  -4   0    0.00    0.65
  -4   4   0   -0.02    0.60
   4  -4   0    0.13    0.55
   4  -4   0    1.45    0.72
   4  -4   0    0.51    0.34
  -4   4   0    0.48    0.62
   4  -4   1   -0.47    0.58
  -4   4  -1    0.47    0.62
   4  -4   1    0.96    0.63
   4  -4   1   -0.08    0.66
   4  -4   1    0.24    0.37
  -4   4  -1    0.88    0.70
   4  -4   2    0.54    0.65
  -4   4  -2    0.35    0.54
   4  -4   2   -0.05    0.51
  -4   4  -2    0.82    0.71
   4  -4   2    0.24    0.43
   4  -4   3   58.08    2.68
   4  -4   3   59.45    2.66
  -4   4  -3   56.70    2.60
   4  -4   3   57.72    2.54
  -4   4  -3   58.93    2.82
   4  -4   4   14.70    1.33
  -4   4  -4   14.96    1.32
   4  -4   4   13.89    1.50
   4  -4   4   13.82    1.32
  -4   4  -4   15.18    1.44
  -4   4  -5   16.45    1.56
   4  -4   5   15.86    1.35
  -4   4  -5   14.90    1.31
   4  -4   5   16.70    1.71
   4  -4   5   15.00    1.44
  -4   4  -5   16.36    1.58
  -4   4  -6  155.18    5.14
   4  -4   6  153.04    4.62
  -4   4  -6  151.21    4.58
   4  -4   6  151.00    5.49
  -4   4  -6  158.67    5.13
  -4   4  -7    8.26    1.24
   4  -4   7    8.68    1.46
  -4   4  -7    8.59    1.01
   4  -4   7   10.10    1.09
  -4   4  -8   21.07    1.92
   4  -4   8   23.57    2.32
  -4   4  -8   22.14    1.50
   4  -4   8   22.25    1.54
  -4   4  -9   48.57    3.02
   4  -4   9   48.17    3.32
  -4   4 -10  148.05    5.81
   4  -4  10  163.04    6.60
  -4   4 -11  120.83    5.37
   4  -4  11  136.12    6.13
  -4   4 -12   22.28    2.35
   4  -4  12   22.43    2.58
  -4   4 -13   51.01    3.67
   4  -3 -16    1.70    0.91
   4  -3 -15   -1.79    1.06
  -4   3  15   -1.69    1.16
   4  -3 -14   19.82    2.03
  -4   3  14   23.39    1.82
  -4   3  14   21.75    1.74
  -4   3  14   21.19    2.26
   4  -3 -13   -0.23    0.81
  -4   3  13    1.45    0.79
  -4   3  13    0.76    0.96
  -4   3  13    0.36    0.64
   4  -3 -12    6.81    1.31
  -4   3  12    7.27    1.12
   4  -3 -12    5.46    0.99
  -4   3  12    9.52    1.58
   4  -3 -12    7.24    1.02
  -4   3  12    5.46    0.88
  -4   3  12    5.30    0.93
  -4   3  12    8.35    1.04
   4  -3 -11    3.95    1.00
   4  -3 -11    3.80    0.90
  -4   3  11    5.82    1.13
  -4   3  11    3.78    1.09
   4  -3 -11    4.85    0.86
  -4   3  11    3.24    0.75
  -4   3  11    4.62    0.80
  -4   3  11    5.01    0.88
   4  -3 -10  177.31    5.73
   4  -3 -10  161.77    5.23
  -4   3  10  180.15    6.01
  -4   3  10  173.75    5.29
  -4   3  10  178.47    4.65
  -4   3  10  172.76    4.69
   4  -3 -10  161.45    4.66
  -4   3  10  162.32    4.91
   4  -3  -9   37.69    2.42
   4  -3  -9   42.23    2.35
  -4   3   9   40.14    2.59
  -4   3   9   37.94    2.22
   4  -3  -9   42.14    1.95
  -4   3   9   44.48    1.84
  -4   3   9   43.93    1.95
  -4   3   9   39.97    2.13
  -4   3   8  295.04    7.86
  -4   3   8  307.02    7.79
   4  -3  -8  284.70    7.79
  -4   3   8  297.12    7.96
   4  -3  -8  301.99    7.65
  -4   3   8  306.53    7.62
  -4   3   8  300.65    6.66
   4  -3  -8  283.58    6.61
  -4   3   8  300.70    6.35
  -4   3   8  291.04    7.28
   4  -3  -7    5.05    1.01
  -4   3   7    5.03    0.97
  -4   3   7    4.72    0.91
   4  -3  -7    3.29    0.78
  -4   3   7    4.00    0.98
  -4   3   7    4.36    0.87
   4  -3  -7    4.26    0.65
  -4   3   7    4.29    0.84
  -4   3   6   36.91    2.04
   4  -3  -6   39.23    2.30
   4  -3  -6   38.17    2.17
  -4   3   6   41.14    2.34
  -4   3   6   39.14    2.16
   4  -3  -6   36.22    1.58
  -4   3   6   37.65    2.05
   4  -3  -5   62.68    2.88
   4  -3  -5   62.88    2.80
  -4   3   5   64.01    2.83
  -4   3   5   64.59    2.79
   4  -3  -5   60.03    2.12
  -4   3   5   64.46    2.71
  -4   3   5   61.65    2.54
  -4   3   5   60.92    1.63
   4  -3  -4  445.47   10.10
   4  -3  -4  466.65   10.18
  -4   3   4  444.21    9.95
   4  -3  -4  463.13   10.06
  -4   3   4  446.02   10.02
  -4   3   4  447.17    8.08
   4  -3  -4  413.48    8.86
  -4   3   4  449.70    9.92
   4  -3  -3  660.39   13.71
  -4   3   3  663.93   13.55
   4  -3  -3  684.15   13.82
   4  -3  -3  667.94   13.58
  -4   3   3  647.29   13.63
  -4   3   3  659.30   11.76
   4  -3  -3  643.76   12.65
  -4   3   3  651.84   13.56
   4  -3  -2    2.27    0.82
  -4   3   2    1.70    0.66
   4  -3  -2    2.09    0.65
   4  -3  -2    2.33    0.71
  -4   3   2    1.26    0.60
  -4   3   2    1.91    0.37
   4  -3  -1   70.69    2.93
   4  -3  -1   73.36    2.94
   4  -3  -1   68.71    2.72
  -4   3   1   68.09    2.83
  -4   3   1   69.33    2.03
  -4   3   1   69.26    2.84
   4  -3  -1   62.05    1.99
   4  -3   0   24.99    1.70
   4  -3   0   23.45    1.59
   4  -3   0   23.96    1.57
  -4   3   0   22.88    1.61
  -4   3   0   25.22    1.24
   4  -3   0   23.05    1.21
  -4   3   0   24.19    1.66
   4  -3   1   17.52    1.40
   4  -3   1   16.27    1.33
  -4   3  -1   18.32    1.43
   4  -3   1   16.74    1.12
  -4   3  -1   18.33    1.18
   4  -3   1   16.63    1.46
  -4   3  -1   18.99    1.52
  -4   3  -2    4.02    0.81
   4  -3   2    4.38    0.80
  -4   3  -2    5.04    0.92
   4  -3   2    4.63    1.04
   4  -3   2    5.12    0.75
  -4   3  -2    5.17    0.74
   4  -3   3   20.76    1.46
  -4   3  -3   19.12    1.44
  -4   3  -3   21.30    1.46
   4  -3   3   22.90    1.52
   4  -3   3   20.46    1.60
  -4   3  -3   17.85    1.51
   4  -3   4   20.69    1.48
  -4   3  -4   17.12    1.33
   4  -3   4   17.51    1.42
   4  -3   4   18.90    1.57
  -4   3  -4   17.44    1.49
   4  -3   5    1.29    0.60
  -4   3  -5    0.97    0.49
  -4   3  -5    0.74    0.62
  -4   3  -5    1.47    0.67
   4  -3   5    1.15    0.65
   4  -3   5    2.56    0.85
  -4   3  -6  224.56    6.26
  -4   3  -6  228.15    5.81
   4  -3   6  227.99    5.81
   4  -3   6  223.80    6.80
   4  -3   6  225.95    6.32
  -4   3  -6  230.88    6.41
  -4   3  -7    0.11    0.73
   4  -3   7    0.30    0.45
  -4   3  -7    0.39    0.49
   4  -3   7    1.63    0.90
  -4   3  -7    0.58    0.67
   4  -3   7   -0.35    0.65
  -4   3  -8  472.45   11.18
   4  -3   8  478.35    9.95
   4  -3   8  477.65   11.98
  -4   3  -8  454.12   10.83
   4  -3   8  462.56   10.84
  -4   3  -9    1.95    1.02
   4  -3   9    1.80    0.56
   4  -3   9    2.08    1.14
   4  -3   9   -0.22    0.69
  -4   3  -9    2.16    0.78
  -4   3 -10  101.36    4.50
   4  -3  10  110.21    5.14
   4  -3  10  105.62    4.10
  -4   3 -11   34.52    2.68
   4  -3  11   36.32    3.05
   4  -3  11   36.14    2.33
  -4   3 -12   45.87    3.21
   4  -3  12   41.87    3.35
  -4   3 -13   45.17    3.33
   4  -3  13   48.85    3.77
  -4   3 -14   13.83    2.05
   4  -2 -15   21.57    2.04
  -4   2  15   20.34    1.90
  -4   2  15   16.26    2.16
   4  -2 -14   52.46    3.11
  -4   2  14   52.73    2.92
  -4   2  14   58.22    3.75
   4  -2 -13   33.68    2.41
  -4   2  13   43.75    2.31
  -4   2  13   33.61    2.78
  -4   2  13   36.70    2.35
   4  -2 -12   23.10    1.95
  -4   2  12   25.82    1.81
   4  -2 -12   23.02    1.73
  -4   2  12   21.86    2.21
  -4   2  12   26.61    1.89
  -4   2  12   26.25    1.86
   4  -2 -12   24.92    1.85
  -4   2  12   27.43    1.57
   4  -2 -11    5.99    1.08
   4  -2 -11    6.53    1.00
  -4   2  11    5.24    0.87
  -4   2  11    5.01    1.14
  -4   2  11    8.45    1.07
   4  -2 -11    7.92    1.05
  -4   2  11    6.90    1.00
  -4   2  11    7.87    0.95
  -4   2  10   21.30    1.79
   4  -2 -10   22.43    1.84
   4  -2 -10   23.02    1.68
  -4   2  10   19.90    1.58
  -4   2  10   22.32    2.02
  -4   2  10   22.21    1.52
   4  -2 -10   22.00    1.60
  -4   2  10   19.86    1.49
  -4   2  10   23.64    1.51
  -4   2   9   20.26    1.65
   4  -2  -9   20.15    1.72
   4  -2  -9   20.27    1.56
  -4   2   9   21.11    1.58
  -4   2   9   19.52    1.85
   4  -2  -9   20.64    1.43
  -4   2   9   19.54    1.39
  -4   2   9   20.73    1.43
  -4   2   8  120.79    4.25
  -4   2   8  124.42    4.28
   4  -2  -8  116.33    4.21
   4  -2  -8  119.22    4.04
  -4   2   8  121.55    4.46
  -4   2   8  120.66    4.04
   4  -2  -8  116.18    3.66
  -4   2   8  125.65    3.70
  -4   2   8  120.65    3.75
  -4   2   7   30.19    1.89
   4  -2  -7   27.34    1.89
  -4   2   7   25.95    1.92
   4  -2  -7   30.33    1.88
  -4   2   7   31.39    1.89
   4  -2  -7   29.45    1.56
  -4   2   7   30.09    1.62
  -4   2   7   28.84    1.68
  -4   2   6  137.03    4.18
   4  -2  -6  138.52    4.46
  -4   2   6  135.73    4.48
   4  -2  -6  143.40    4.41
  -4   2   6  143.74    4.37
   4  -2  -6  131.08    3.74
  -4   2   6  139.08    4.13
   4  -2  -5   96.27    3.53
  -4   2   5   96.57    3.18
   4  -2  -5   93.87    3.39
  -4   2   5   95.28    3.44
  -4   2   5   97.51    3.42
   4  -2  -5   88.65    2.83
  -4   2   5   95.88    3.27
   4  -2  -4   27.72    1.82
   4  -2  -4   30.40    1.82
  -4   2   4   30.13    1.82
  -4   2   4   27.36    1.71
   4  -2  -4   27.40    1.40
  -4   2   4   25.99    1.11
  -4   2   4   27.87    1.66
  -4   2   4   26.98    1.48
   4  -2  -3  244.17    6.22
   4  -2  -3  238.58    6.14
  -4   2   3  238.09    6.00
   4  -2  -3  242.08    6.04
  -4   2   3  254.45    6.21
  -4   2   3  234.27    4.87
   4  -2  -3  226.31    5.43
  -4   2   3  239.19    6.00
   4  -2  -2  367.08    8.35
  -4   2   2  361.12    8.08
   4  -2  -2  362.39    8.30
   4  -2  -2  358.94    8.06
  -4   2   2  365.86    8.28
  -4   2   2  360.53    7.03
  -4   2   2  354.24    8.20
   4  -2  -1   57.71    2.57
   4  -2  -1   65.62    2.65
   4  -2  -1   66.11    2.50
  -4   2   1   61.06    2.59
  -4   2   1   65.07    1.95
  -4   2   1   65.27    2.64
   4  -2  -1   57.36    1.93
   4  -2  -1   57.90    2.54
   4  -2   0   30.75    1.75
   4  -2   0   27.89    1.55
  -4   2   0   31.26    1.81
   4  -2   0   25.77    1.29
  -4   2   0   29.66    1.34
  -4   2   0   28.17    1.74
   4  -2   0   30.49    1.84
  -4   2  -1   29.08    1.72
   4  -2   1   27.34    1.57
   4  -2   1   28.52    1.68
   4  -2   1   27.81    1.41
  -4   2  -1   28.31    1.43
   4  -2   1   27.32    1.75
  -4   2  -1   29.88    1.81
   4  -2   2   37.31    1.88
  -4   2  -2   33.10    1.83
  -4   2  -2   35.44    1.71
   4  -2   2   32.28    1.64
   4  -2   2   33.18    1.92
  -4   2  -2   33.57    1.93
   4  -2   3    3.33    0.67
  -4   2  -3    2.20    0.65
   4  -2   3    3.07    0.69
  -4   2  -3    3.47    0.78
   4  -2   3    1.67    0.72
  -4   2  -3    2.76    0.75
   4  -2   4    0.58    0.51
  -4   2  -4    0.80    0.56
  -4   2  -4    0.45    0.52
   4  -2   4    0.96    0.67
   4  -2   4    1.27    0.60
  -4   2  -4    0.58    0.66
  -4   2  -4    0.99    0.56
  -4   2  -5   47.78    2.22
  -4   2  -5   49.39    2.17
   4  -2   5   48.18    2.15
  -4   2  -5   49.43    2.46
   4  -2   5   50.40    2.47
   4  -2   5   47.69    2.40
  -4   2  -5   45.10    2.34
  -4   2  -6   39.01    2.12
  -4   2  -6   41.29    1.96
   4  -2   6   40.65    1.93
  -4   2  -6   42.82    2.42
   4  -2   6   42.59    2.40
   4  -2   6   42.51    2.30
  -4   2  -6   40.75    2.26
  -4   2  -7   68.08    3.01
   4  -2   7   73.29    2.64
   4  -2   7   69.49    3.43
   4  -2   7   69.72    3.04
  -4   2  -7   72.25    3.11
  -4   2  -8  248.66    6.89
   4  -2   8  251.15    5.90
   4  -2   8  254.08    7.58
   4  -2   8  248.14    6.73
  -4   2  -8  236.67    6.69
  -4   2  -9   44.92    2.66
   4  -2   9   42.08    1.83
   4  -2   9   46.90    3.03
   4  -2   9   44.04    2.46
  -4   2  -9   43.89    2.46
  -4   2 -10   73.23    3.60
   4  -2  10   76.42    2.43
   4  -2  10   74.79    4.03
  -4   2 -10   72.43    3.32
   4  -2  10   74.68    3.29
  -4   2 -11   74.04    3.82
   4  -2  11   80.52    4.41
   4  -2  11   79.94    3.45
  -4   2 -12   33.31    2.68
   4  -2  12   34.39    3.01
   4  -2  12   31.32    2.16
  -4   2 -13   29.80    2.72
   4  -2  13   36.79    3.22
  -4   2 -14   34.20    2.95
  -4   1  16    2.77    1.13
   4  -1 -15    2.65    1.11
  -4   1  15   -0.14    0.83
   4  -1 -14    8.40    1.24
   4  -1 -14    3.39    1.31
  -4   1  14    5.11    1.19
   4  -1 -13    9.93    1.61
   4  -1 -13    7.10    1.18
  -4   1  13   10.25    1.36
   4  -1 -12   13.15    1.48
   4  -1 -12   11.02    1.68
   4  -1 -12   10.88    1.13
  -4   1  12   12.27    1.40
   4  -1 -11    5.70    1.02
   4  -1 -11    5.21    1.17
   4  -1 -11    5.05    0.85
  -4   1  11    4.98    0.94
   4  -1 -11    4.61    0.94
  -4   1  11    6.12    0.98
  -4   1  11    5.30    0.67
   4  -1 -10   19.07    1.60
  -4   1  10   20.35    1.52
   4  -1 -10   18.72    1.46
   4  -1 -10   20.68    1.63
  -4   1  10   19.38    1.55
  -4   1  10   20.22    1.26
   4  -1 -10   20.61    1.91
  -4   1   9   88.41    3.62
   4  -1  -9   79.13    3.28
  -4   1   9   84.78    3.17
   4  -1  -9   80.26    3.10
   4  -1  -9   77.57    3.13
  -4   1   9   82.62    3.16
  -4   1   9   84.29    2.76
   4  -1  -9   77.35    3.45
  -4   1   8  147.19    4.69
   4  -1  -8  133.70    4.42
   4  -1  -8  136.82    4.29
  -4   1   8  145.17    4.37
   4  -1  -8  140.32    4.27
  -4   1   8  141.94    4.24
   4  -1  -8  136.05    4.56
  -4   1   8  135.85    3.84
  -4   1   7  189.48    5.33
   4  -1  -7  184.42    5.33
   4  -1  -7  193.58    5.25
  -4   1   7  187.18    5.64
  -4   1   7  193.64    5.25
   4  -1  -7  180.11    4.99
  -4   1   7  189.58    5.00
  -4   1   7  187.13    4.80
   4  -1  -6   38.37    2.10
  -4   1   6   39.26    1.97
   4  -1  -6   42.27    2.08
  -4   1   6   42.86    2.28
  -4   1   6   40.32    2.05
  -4   1   6   37.86    1.83
   4  -1  -6   36.52    1.82
  -4   1   6   40.03    1.85
   4  -1  -5  209.60    5.60
  -4   1   5  205.94    5.25
   4  -1  -5  215.61    5.59
  -4   1   5  217.04    5.73
  -4   1   5  216.47    5.60
  -4   1   5  214.30    5.20
   4  -1  -5  206.30    5.17
  -4   1   5  209.67    5.26
  -4   1   4   10.64    0.92
   4  -1  -4   12.03    1.11
   4  -1  -4   12.52    1.20
  -4   1   4   10.60    1.10
  -4   1   4   10.09    1.13
   4  -1  -4   10.53    0.93
  -4   1   4   10.78    0.99
   4  -1  -3  313.76    7.21
  -4   1   3  288.01    6.36
   4  -1  -3  310.47    7.15
  -4   1   3  298.44    6.95
  -4   1   3  314.93    7.19
   4  -1  -3  298.44    6.66
  -4   1   3  293.17    6.90
  -4   1   3  302.86    6.19
   4  -1  -2   95.96    3.26
  -4   1   2   91.38    2.98
   4  -1  -2   91.44    2.95
   4  -1  -2   92.17    3.14
  -4   1   2   97.31    3.22
   4  -1  -2   88.95    2.84
  -4   1   2   89.08    2.47
   4  -1  -2   89.20    3.08
  -4   1   2   84.22    2.47
  -4   1   2   92.56    3.08
  -4   1   1  390.55    8.31
   4  -1  -1  402.72    8.75
   4  -1  -1  390.22    8.28
  -4   1   1  411.27    8.74
  -4   1   1  392.86    7.81
   4  -1  -1  384.46    8.57
  -4   1   1  391.29    8.64
   4  -1   0    8.65    0.98
   4  -1   0    9.23    0.85
  -4   1   0   10.33    1.02
  -4   1   0    9.87    1.08
   4  -1   0    8.56    0.78
   4  -1   0    9.89    1.12
  -4   1   0    8.96    0.78
  -4   1  -1    4.31    0.80
   4  -1   1    5.10    0.74
   4  -1   1    5.53    0.73
  -4   1  -1    5.45    0.76
   4  -1   1    5.72    0.91
   4  -1   1    6.22    0.73
  -4   1  -1    5.57    0.88
  -4   1  -2    2.52    0.70
   4  -1   2    3.50    0.67
   4  -1   2    3.53    0.84
   4  -1   2    3.08    0.61
  -4   1  -2    3.78    0.72
  -4   1  -2    4.55    0.77
  -4   1  -3   28.39    1.34
  -4   1  -3   27.47    1.57
   4  -1   3   26.40    1.53
   4  -1   3   26.92    1.57
  -4   1  -3   26.21    1.56
  -4   1  -3   26.82    1.66
   4  -1   3   23.53    1.62
  -4   1  -4  145.38    3.90
  -4   1  -4  147.22    4.17
   4  -1   4  151.80    4.19
   4  -1   4  149.83    4.40
  -4   1  -4  153.04    4.43
   4  -1   4  149.78    4.48
  -4   1  -4  153.86    4.56
  -4   1  -5   41.46    1.89
  -4   1  -5   37.02    1.83
   4  -1   5   40.10    1.88
  -4   1  -5   40.86    2.16
   4  -1   5   43.90    2.24
   4  -1   5   40.87    2.16
  -4   1  -5   40.93    2.16
  -4   1  -6   50.38    2.30
   4  -1   6   55.67    2.21
  -4   1  -6   52.77    2.64
   4  -1   6   57.14    2.78
   4  -1   6   57.93    2.62
  -4   1  -6   57.01    2.62
   4  -1   7    6.77    0.78
  -4   1  -7    7.39    1.01
  -4   1  -7    7.02    1.00
   4  -1   7    6.43    1.00
   4  -1   7    6.98    1.15
  -4   1  -7    8.66    1.25
  -4   1  -8  164.55    5.03
   4  -1   8  159.62    4.20
  -4   1  -8  156.29    5.39
   4  -1   8  159.01    4.93
  -4   1  -8  156.13    4.96
  -4   1  -9   22.23    1.84
   4  -1   9   23.83    1.31
   4  -1   9   25.09    2.16
   4  -1   9   23.24    1.75
  -4   1  -9   22.69    1.73
  -4   1 -10   93.79    4.04
   4  -1  10  106.10    2.93
   4  -1  10  105.47    4.72
  -4   1 -10   99.76    3.90
   4  -1  10  100.35    3.87
  -4   1 -11  148.84    5.44
   4  -1  11  150.94    6.00
   4  -1  11  150.01    4.95
  -4   1 -11  142.90    4.96
  -4   1 -12   32.62    2.55
   4  -1  12   35.17    2.96
   4  -1  12   36.30    2.28
  -4   1 -13  104.36    4.87
   4  -1  13  103.06    5.22
   4  -1  13  100.50    4.01
  -4   1 -14   -0.95    1.16
   4  -1  14   -0.12    1.00
  -4   1 -15   37.92    3.13
  -4   0  17   29.43    2.75
  -4   0  16   -0.94    1.24
   4   0 -15    0.24    0.94
  -4   0  15    1.96    1.00
   4   0 -14    6.16    1.05
   4   0 -14    5.54    1.46
  -4   0  14    5.41    1.23
   4   0 -13    0.08    0.57
   4   0 -13   -0.38    0.95
  -4   0  13    0.82    0.85
   4   0 -12   -0.78    0.88
   4   0 -12   -0.39    0.64
  -4   0  12    1.00    0.67
   4   0 -11   17.62    1.51
   4   0 -11   16.15    1.79
   4   0 -11   15.56    1.26
  -4   0  11   15.44    1.57
  -4   0  11   16.75    0.88
   4   0 -10  110.56    3.90
   4   0 -10  109.75    3.63
   4   0 -10  122.95    4.35
  -4   0  10  114.36    4.17
  -4   0  10  111.82    2.98
   4   0 -10  114.79    4.49
   4   0  -9   13.99    1.29
   4   0  -9   14.56    1.55
   4   0  -9   13.69    1.20
   4   0  -9   13.74    1.36
  -4   0   9   10.54    1.20
  -4   0   9   12.07    0.89
  -4   0   8  133.18    4.41
   4   0  -8  119.41    4.00
   4   0  -8  126.95    3.92
   4   0  -8  131.81    4.25
  -4   0   8  125.17    4.11
  -4   0   8  128.76    3.40
   4   0  -8  125.90    4.33
  -4   0   7  142.44    4.39
   4   0  -7  133.13    4.18
  -4   0   7  140.86    4.18
   4   0  -7  132.95    4.07
   4   0  -7  136.60    4.26
  -4   0   7  142.16    4.26
  -4   0   7  142.52    3.68
   4   0  -7  139.04    4.37
   4   0  -6  290.18    6.95
  -4   0   6  286.65    6.89
  -4   0   6  300.33    6.97
   4   0  -6  286.97    6.87
  -4   0   6  296.39    6.92
   4   0  -6  284.64    6.89
  -4   0   6  287.82    6.37
   4   0  -6  290.44    6.92
   4   0  -5  180.41    4.94
  -4   0   5  178.93    4.72
  -4   0   5  195.57    5.07
   4   0  -5  182.19    4.95
  -4   0   5  189.35    4.89
   4   0  -5  188.39    4.91
   4   0  -5  185.96    4.79
  -4   0   5  186.28    4.60
   4   0  -4  135.60    3.98
  -4   0   4  131.05    3.57
  -4   0   4  137.00    4.04
   4   0  -4  131.24    3.96
  -4   0   4  141.71    4.08
  -4   0   4  134.24    3.84
   4   0  -4  135.74    3.85
  -4   0   4  138.04    3.73
   4   0  -3  333.95    7.40
  -4   0   3  315.09    6.61
  -4   0   3  319.42    7.37
  -4   0   3  328.13    7.23
   4   0  -3  319.95    7.33
   4   0  -3  322.10    7.12
   4   0  -3  314.50    7.06
  -4   0   3  322.04    7.07
  -4   0   2  356.13    7.05
  -4   0   2  369.00    8.07
  -4   0   2  365.32    7.71
   4   0  -2  367.62    8.04
   4   0  -2  363.28    7.80
   4   0  -2  346.81    7.78
  -4   0   2  364.33    7.42
  -4   0   2  368.15    7.84
  -4   0   1   17.66    1.29
  -4   0   1   16.86    1.12
   4   0  -1   18.62    1.13
   4   0  -1   17.90    1.28
   4   0  -1   15.62    1.14
  -4   0   1   16.09    0.77
  -4   0   1   15.46    1.17
  -4   0   1   18.02    1.07
   4   0  -1   17.17    1.28
  -4   0   0    0.55    0.62
  -4   0   0    0.38    0.49
   4   0   0    0.30    0.39
   4   0   0    1.06    0.52
  -4   0   0    0.79    0.60
   4   0   0    0.40    0.46
  -4   0   0    0.74    0.49
   4   0   0    0.12    0.68
   4   0   1    4.32    0.72
  -4   0  -1    4.15    0.77
   4   0   1    4.97    0.61
   4   0   1    4.28    0.82
  -4   0  -1    3.62    0.73
  -4   0  -1    5.35    0.77
   4   0   1    3.48    0.62
   4   0   2    0.82    0.51
  -4   0  -2    0.30    0.56
   4   0   2    0.65    0.41
  -4   0  -2    0.41    0.34
  -4   0  -2    0.59    0.63
  -4   0  -2    0.49    0.54
   4   0   2    0.73    0.71
   4   0   2    0.53    0.45
   4   0   3    0.51    0.45
  -4   0  -3    0.36    0.40
  -4   0  -3    1.04    0.53
  -4   0  -3   -0.33    0.56
   4   0   3    0.36    0.63
   4   0   3   -0.60    0.54
  -4   0  -4  245.32    5.47
   4   0   4  254.92    5.99
   4   0   4  260.98    6.31
  -4   0  -4  254.04    6.24
  -4   0  -4  250.12    6.32
   4   0   4  257.52    6.34
  -4   0  -5   19.15    1.19
   4   0   5   19.56    1.27
   4   0   5   20.25    1.49
   4   0   5   18.61    1.43
  -4   0  -5   19.62    1.47
  -4   0  -5   17.65    1.41
  -4   0  -6  246.63    5.93
   4   0   6  242.86    5.79
  -4   0  -6  249.60    6.57
   4   0   6  247.88    6.61
   4   0   6  243.40    6.35
  -4   0  -6  252.06    6.46
   4   0   7    9.01    0.87
  -4   0  -7   10.31    1.08
  -4   0  -7    8.27    1.07
  -4   0  -7   10.73    1.28
   4   0   7    9.40    1.13
   4   0   7    9.98    1.17
  -4   0  -8  215.35    5.92
   4   0   8  219.46    5.23
  -4   0  -8  220.17    6.52
   4   0   8  215.59    6.02
  -4   0  -8  226.29    6.15
  -4   0  -9   21.79    1.74
   4   0   9   21.87    1.23
  -4   0  -9   21.95    1.96
   4   0   9   17.44    1.52
  -4   0  -9   22.36    1.71
  -4   0 -10  269.18    7.40
   4   0  10  274.25    5.88
  -4   0 -10  258.90    7.88
   4   0  10  264.93    8.01
   4   0  10  262.75    7.08
  -4   0 -10  260.11    7.15
   4   0  11  101.49    4.02
  -4   0 -11   95.97    4.12
   4   0  11  104.06    2.70
   4   0  11  104.70    4.70
  -4   0 -11   93.70    3.85
   4   0  11  101.47    3.89
  -4   0 -12   80.51    3.91
   4   0  12   91.95    4.56
   4   0  12   81.50    3.49
  -4   0 -13   18.65    2.03
   4   0  13   24.29    2.44
   4   0  13   22.65    1.83
  -4   0 -14    2.13    1.19
   4   0  14    1.58    1.08
   4   0  14    0.09    0.73
  -4   0 -15   68.14    4.13
   4   0  15   71.68    4.50
  -4   0 -16   -0.28    1.07
  -4  -1  17   16.09    2.30
  -4  -1  16   14.98    2.07
   4   1 -15    2.19    1.18
  -4  -1  15    3.60    1.23
   4   1 -14   -0.40    1.04
  -4  -1  14    2.95    1.16
   4   1 -13   30.86    1.91
   4   1 -13   28.79    2.52
  -4  -1  13   29.18    2.42
   4   1 -12    2.78    0.67
   4   1 -12    1.57    1.02
  -4  -1  12    2.62    1.12
   4   1 -11    0.76    0.50
   4   1 -11    1.69    0.97
   4   1 -11    1.39    0.55
  -4  -1  11    1.03    0.88
   4   1 -10   93.79    4.03
   4   1 -10   94.30    3.32
   4   1 -10   97.52    3.22
  -4  -1  10   96.83    3.93
  -4  -1  10   89.88    2.04
   4   1  -9   47.67    2.67
   4   1  -9   49.39    2.29
   4   1  -9   47.49    2.14
   4   1  -9   54.61    2.75
  -4  -1   9   54.41    2.75
  -4  -1   9   52.15    1.56
   4   1  -8  348.50    8.61
  -4  -1   8  360.03    8.68
   4   1  -8  347.65    7.98
   4   1  -8  343.51    7.86
  -4  -1   8  362.85    8.62
   4   1  -8  352.92    8.65
  -4  -1   8  351.78    6.97
   4   1  -7  136.57    4.33
  -4  -1   7  140.46    4.36
   4   1  -7  129.88    3.93
   4   1  -7  131.99    3.94
   4   1  -7  135.98    4.39
  -4  -1   7  138.52    4.36
  -4  -1   7  135.24    3.34
   4   1  -6  593.43   12.21
   4   1  -6  615.97   12.50
  -4  -1   6  602.39   12.43
   4   1  -6  610.18   12.29
   4   1  -6  611.35   12.71
  -4  -1   6  628.01   12.70
  -4  -1   6  605.93   11.55
   4   1  -5  108.06    3.36
   4   1  -5  115.19    3.42
  -4  -1   5  104.24    3.28
   4   1  -5  109.23    3.42
  -4  -1   5  109.30    3.55
   4   1  -5  107.93    3.56
  -4  -1   5  108.57    2.99
  -4  -1   4  158.96    4.06
   4   1  -4  162.63    4.34
   4   1  -4  163.99    4.11
   4   1  -4  162.57    4.43
  -4  -1   4  166.50    4.48
   4   1  -4  157.23    4.43
   4   1  -4  153.79    3.97
  -4  -1   4  159.37    3.99
  -4  -1   3  164.21    3.91
   4   1  -3  170.44    4.52
  -4  -1   3  171.80    4.50
   4   1  -3  168.57    4.49
   4   1  -3  162.00    4.15
   4   1  -3  164.24    3.93
  -4  -1   3  165.62    4.16
  -4  -1   2   20.88    0.96
  -4  -1   2   21.90    1.26
   4   1  -2   21.79    1.40
   4   1  -2   22.14    1.38
  -4  -1   2   20.65    1.26
   4   1  -2   21.35    1.30
  -4  -1   1   18.48    0.74
  -4  -1   1   19.97    1.14
   4   1  -1   19.59    1.30
   4   1  -1   19.55    1.29
   4   1  -1   19.35    1.29
  -4  -1   1   18.64    1.20
  -4  -1   1   19.27    1.21
  -4  -1   0   46.89    1.66
   4   1   0   46.86    2.05
   4   1   0   47.82    2.04
  -4  -1   0   52.79    2.07
  -4  -1   0   50.16    1.94
   4   1   1    8.21    0.65
   4   1   1    6.09    0.82
   4   1   1    6.90    0.99
  -4  -1  -1    7.65    0.90
  -4  -1  -1    8.83    0.90
   4   1   1    6.49    0.78
   4   1   2    2.24    0.59
   4   1   2    0.80    0.37
  -4  -1  -2    1.54    0.25
  -4  -1  -2    0.90    0.60
   4   1   2    0.64    0.64
  -4  -1  -2    2.73    0.72
   4   1   2    1.36    0.57
   4   1   3   12.66    1.08
  -4  -1  -3   12.35    0.67
   4   1   3   11.74    1.11
  -4  -1  -3   12.25    1.10
   4   1   3   11.47    1.08
  -4  -1  -3   11.91    1.13
  -4  -1  -4   89.70    2.43
   4   1   4   89.46    2.96
  -4  -1  -4   95.97    3.20
   4   1   4   91.60    3.16
   4   1   4   89.09    3.17
  -4  -1  -4   93.10    3.22
  -4  -1  -5  168.63    4.13
   4   1   5  170.34    4.48
   4   1   5  175.90    4.92
  -4  -1  -5  169.13    4.87
   4   1   5  177.04    4.90
  -4  -1  -5  174.18    4.90
  -4  -1  -6  102.35    3.10
   4   1   6   98.95    3.12
  -4  -1  -6   99.56    3.62
   4   1   6  102.72    3.65
   4   1   6   99.45    3.51
  -4  -1  -6  103.12    3.56
  -4  -1  -7   18.68    1.31
   4   1   7   15.47    1.13
   4   1   7   19.50    1.56
   4   1   7   17.85    1.47
  -4  -1  -7   18.12    1.47
  -4  -1  -7   18.06    1.57
  -4  -1  -8  186.00    5.17
   4   1   8  180.06    4.61
  -4  -1  -8  182.30    5.70
   4   1   8  190.26    5.40
  -4  -1  -8  191.10    5.48
  -4  -1  -9  111.12    3.94
   4   1   9  112.21    3.23
  -4  -1  -9  111.89    4.38
  -4  -1  -9  114.73    4.07
   4   1   9  114.80    4.02
  -4  -1 -10   36.83    2.29
   4   1  10   38.93    1.63
  -4  -1 -10   39.71    2.62
  -4  -1 -10   38.78    2.27
   4   1  10   39.06    2.28
   4   1  11   58.37    3.00
  -4  -1 -11   56.09    2.98
   4   1  11   59.28    1.96
  -4  -1 -11   59.13    3.39
   4   1  11   54.16    3.23
  -4  -1 -11   52.35    2.75
   4   1  11   57.97    2.84
  -4  -1 -12  139.90    5.23
   4   1  12  142.80    5.74
   4   1  12  145.43    4.89
  -4  -1 -13   85.79    4.16
   4   1  13   96.52    4.75
   4   1  13   90.83    3.79
  -4  -1 -14   22.89    2.27
   4   1  14   29.42    2.71
   4   1  14   28.01    2.05
  -4  -1 -15   13.67    1.90
   4   1  15   12.14    1.90
  -4  -1 -16    9.51    1.63
   4   1  16    8.54    1.80
  -4  -2  16   -0.86    1.04
   4   2 -15    1.46    1.24
  -4  -2  15    2.05    1.12
   4   2 -14   -0.17    1.00
  -4  -2  14    0.07    0.92
   4   2 -13   12.56    1.81
  -4  -2  13   11.35    1.68
   4   2 -12   39.41    1.96
   4   2 -12   40.92    2.96
  -4  -2  12   37.60    2.76
   4   2 -11   24.83    1.54
   4   2 -11   25.13    2.23
  -4  -2  11   24.45    2.10
   4   2 -11   24.27    1.40
   4   2 -10   -0.32    0.41
   4   2 -10    0.97    0.90
  -4  -2  10    0.38    0.94
   4   2 -10    0.45    0.40
   4   2  -9  189.23    5.96
   4   2  -9  194.28    4.98
   4   2  -9  188.49    4.94
  -4  -2   9  189.19    5.94
   4   2  -8   94.98    3.75
   4   2  -8   93.99    3.06
  -4  -2   8   98.49    3.78
   4   2  -8   93.01    3.10
  -4  -2   8   95.23    3.78
   4   2  -8   91.47    3.77
  -4  -2   8   93.33    2.09
   4   2  -7  224.96    6.06
  -4  -2   7  220.68    6.04
   4   2  -7  219.38    5.36
   4   2  -7  211.11    5.42
   4   2  -7  225.55    6.27
  -4  -2   7  215.57    6.12
  -4  -2   7  219.61    4.53
   4   2  -6  287.90    6.56
   4   2  -6  290.85    7.06
  -4  -2   6  298.55    7.11
   4   2  -6  288.49    6.76
   4   2  -6  309.18    7.49
  -4  -2   6  296.85    7.37
  -4  -2   6  286.01    5.92
   4   2  -5  503.38   10.39
   4   2  -5  499.85   10.12
  -4  -2   5  498.00   10.38
   4   2  -5  507.22   10.40
  -4  -2   5  508.20   10.83
   4   2  -5  509.29   10.89
   4   2  -5  487.18    9.55
  -4  -2   5  498.47    9.58
   4   2  -4  181.90    4.53
   4   2  -4  176.57    4.46
  -4  -2   4  172.92    4.42
   4   2  -4  174.55    4.67
  -4  -2   4  171.59    4.85
   4   2  -4  180.25    4.97
  -4  -2   4  181.21    4.18
   4   2  -4  174.11    4.13
   4   2  -3  133.82    3.39
  -4  -2   3  129.76    3.35
   4   2  -3  130.98    3.81
  -4  -2   3  132.75    3.95
   4   2  -3  132.91    3.96
   4   2  -3  129.79    3.41
  -4  -2   3  129.15    3.41
   4   2  -2   66.82    1.97
  -4  -2   2   68.51    1.97
   4   2  -2   69.42    2.57
  -4  -2   2   72.98    2.66
   4   2  -2   69.84    2.60
   4   2  -2   67.49    2.29
  -4  -2   2   68.14    2.29
   4   2  -1   19.53    0.81
   4   2  -1   20.82    1.38
   4   2  -1   22.83    1.40
   4   2  -1   22.26    1.31
  -4  -2   1   20.71    1.25
   4   2   0    0.64    0.58
  -4  -2   0    0.58    0.36
   4   2   0    0.00    0.53
   4   2   0    0.96    0.65
  -4  -2   0    1.44    0.67
  -4  -2   0    0.74    0.52
   4   2   1    0.29    0.58
  -4  -2  -1    0.55    0.33
   4   2   1   -0.03    0.62
  -4  -2  -1   -0.33    0.56
   4   2   1   -0.14    0.48
  -4  -2  -1    0.43    0.65
   4   2   2   11.17    1.07
   4   2   2   11.17    0.59
   4   2   2   11.35    1.12
  -4  -2  -2   11.39    1.07
   4   2   2   10.09    1.00
  -4  -2  -2   12.07    1.08
   4   2   3  214.69    5.32
   4   2   3  208.87    4.17
  -4  -2  -3  211.87    5.33
   4   2   3  219.04    5.41
  -4  -2  -3  218.16    5.44
   4   2   3  213.69    5.39
  -4  -2  -4  244.67    4.90
   4   2   4  228.74    4.87
   4   2   4  237.66    5.74
  -4  -2  -4  245.28    5.94
   4   2   4  238.72    5.96
  -4  -2  -4  246.80    6.05
   4   2   4  238.92    5.96
  -4  -2  -5  843.56   15.40
   4   2   5  809.52   15.37
   4   2   5  824.15   16.03
  -4  -2  -5  865.69   16.57
   4   2   5  857.31   16.62
   4   2   5  853.55   16.48
  -4  -2  -5  864.10   16.59
  -4  -2  -6   86.78    2.74
   4   2   6   88.23    2.75
   4   2   6   89.90    2.94
  -4  -2  -6   89.62    3.35
   4   2   6   90.53    3.35
  -4  -2  -6   94.71    3.37
   4   2   6   87.16    3.24
  -4  -2  -7  224.28    5.54
   4   2   7  224.05    5.57
   4   2   7  222.41    5.49
   4   2   7  240.72    6.39
  -4  -2  -7  228.61    6.27
   4   2   7  225.20    6.04
  -4  -2  -7  235.36    6.18
  -4  -2  -8   90.29    3.19
   4   2   8   92.47    3.24
   4   2   8   85.79    2.88
  -4  -2  -8   86.09    3.59
   4   2   8   92.11    3.68
  -4  -2  -8   92.46    3.51
   4   2   8   94.97    3.50
   4   2   9   18.15    1.18
   4   2   9   18.80    1.52
  -4  -2  -9   17.91    1.46
  -4  -2  -9   21.09    1.82
  -4  -2  -9   18.91    1.58
   4   2   9   20.07    1.58
   4   2  10  515.16   11.56
  -4  -2 -10  483.73   11.12
   4   2  10  501.59   11.26
   4   2  10  483.46    9.93
  -4  -2 -10  483.77   11.81
  -4  -2 -10  496.79   11.26
   4   2  10  501.57   11.19
  -4  -2 -11   14.19    1.54
   4   2  11   14.56    1.01
   4   2  11   15.88    1.71
  -4  -2 -11   11.88    1.58
   4   2  11   13.55    1.42
  -4  -2 -11   14.70    1.43
  -4  -2 -12  105.96    4.40
   4   2  12  114.90    3.03
  -4  -2 -12  113.28    4.93
   4   2  12  112.94    4.85
   4   2  12  115.56    4.29
  -4  -2 -13  133.17    5.23
   4   2  13  140.52    5.68
   4   2  13  138.76    4.87
  -4  -2 -14   20.95    2.15
   4   2  14   19.05    2.23
   4   2  14   17.77    1.75
  -4  -2 -15   52.18    3.46
   4   2  15   52.72    3.66
   4   2  15   57.13    3.01
  -4  -2 -16    2.05    1.09
   4   2  16    3.23    1.33
  -4  -3  15    0.11    1.05
   4   3 -14    2.86    1.19
  -4  -3  14    3.41    1.17
   4   3 -13    1.07    1.08
  -4  -3  13    0.45    0.96
   4   3 -12   10.00    1.69
  -4  -3  12    6.39    1.31
   4   3 -11   29.13    1.49
   4   3 -11   30.16    2.46
  -4  -3  11   30.59    2.50
   4   3 -10  183.79    4.47
   4   3 -10  167.17    5.93
  -4  -3  10  168.06    5.97
   4   3 -10  175.06    4.58
   4   3  -9   90.90    3.94
   4   3  -9   94.69    2.87
  -4  -3   9   92.43    4.02
   4   3  -9   91.00    3.02
   4   3  -8  637.37   13.88
   4   3  -8  647.77   12.36
  -4  -3   8  639.87   14.10
   4   3  -8  621.22   12.67
   4   3  -7   33.80    2.07
  -4  -3   7   38.92    2.23
   4   3  -7   35.32    1.59
   4   3  -7   37.90    1.83
   4   3  -7   33.30    2.18
  -4  -3   7   36.30    2.28
   4   3  -6   70.40    2.35
   4   3  -6   72.68    2.92
  -4  -3   6   74.10    2.96
   4   3  -6   68.27    2.60
   4   3  -6   72.13    3.18
  -4  -3   6   70.72    3.09
  -4  -3   6   70.24    1.88
   4   3  -5  260.86    5.82
   4   3  -5  264.28    6.38
   4   3  -5  257.74    6.22
   4   3  -5  273.28    6.92
  -4  -3   5  269.52    6.85
  -4  -3   5  257.96    5.39
   4   3  -5  256.74    5.34
   4   3  -4  124.09    3.39
   4   3  -4  121.57    3.57
   4   3  -4  125.63    3.73
  -4  -3   4  127.06    4.07
   4   3  -4  132.07    4.17
  -4  -3   4  122.89    3.14
   4   3  -4  121.56    3.10
   4   3  -3  478.56    9.45
   4   3  -3  481.38    9.95
  -4  -3   3  477.60   10.22
   4   3  -3  481.22   10.24
   4   3  -3  465.89    9.23
  -4  -3   3  459.15    9.24
   4   3  -2   86.16    2.42
  -4  -3   2   84.57    3.02
   4   3  -2   85.93    3.04
   4   3  -2   82.70    2.56
  -4  -3   2   80.46    2.53
   4   3  -1  167.58    3.61
  -4  -3   1  163.80    4.56
   4   3  -1  168.26    4.57
   4   3  -1  159.21    4.11
  -4  -3   1  164.20    4.16
   4   3   0  231.70    4.54
   4   3   0  239.96    5.80
   4   3   0  234.45    5.51
  -4  -3   0  239.66    5.72
  -4  -3   0  243.31    5.56
  -4  -3  -1   89.99    2.14
   4   3   1   92.09    3.05
  -4  -3  -1   98.39    3.02
   4   3   1   89.26    2.96
  -4  -3  -1   96.67    3.06
   4   3   2   49.59    1.16
  -4  -3  -2   53.40    2.20
   4   3   2   51.24    2.17
   4   3   2   49.71    2.19
  -4  -3  -2   52.88    2.17
   4   3   3   33.41    1.05
  -4  -3  -3   34.52    1.82
   4   3   3   35.66    1.86
  -4  -3  -3   37.52    1.86
   4   3   3   38.40    1.90
   4   3   4  154.56    3.47
  -4  -3  -4  160.20    4.47
   4   3   4  160.02    4.51
   4   3   4  159.54    4.53
  -4  -3  -4  161.79    4.57
   4   3   5  142.11    3.54
   4   3   5  152.85    4.48
  -4  -3  -5  153.13    4.44
   4   3   5  149.53    4.42
  -4  -3  -5  154.79    4.50
   4   3   6  102.99    3.03
   4   3   6  114.03    3.82
  -4  -3  -6  109.49    3.76
  -4  -3  -6  114.77    3.80
   4   3   6  110.24    3.71
  -4  -3  -6  107.42    3.06
   4   3   7   89.78    2.99
  -4  -3  -7  101.64    3.68
   4   3   7   97.38    3.61
  -4  -3  -7   97.38    3.55
  -4  -3  -7   97.50    3.06
   4   3   7   94.64    3.49
   4   3   8  222.85    5.74
   4   3   8  235.69    6.47
  -4  -3  -8  219.39    6.35
  -4  -3  -8  229.07    6.23
  -4  -3  -8  224.78    5.73
   4   3   8  228.24    6.18
   4   3   9   67.51    3.10
  -4  -3  -9   60.42    2.68
   4   3   9   67.00    2.81
   4   3   9   62.98    2.44
  -4  -3  -9   63.84    3.11
  -4  -3  -9   67.77    3.02
   4   3   9   64.70    2.93
   4   3  10  188.16    5.76
  -4  -3 -10  179.55    5.36
   4   3  10  180.74    5.39
   4   3  10  169.30    4.58
  -4  -3 -10  176.41    5.81
   4   3  10  173.46    5.38
  -4  -3 -11  366.51    9.04
   4   3  11  354.65    7.74
  -4  -3 -11  350.19    9.51
   4   3  11  364.59    9.00
   4   3  12  120.71    3.42
  -4  -3 -12  126.97    5.10
   4   3  12  119.65    4.85
   4   3  12  119.45    4.44
  -4  -3 -12  120.22    4.62
   4   3  13   71.36    2.31
  -4  -3 -13   70.22    3.87
   4   3  13   59.17    3.52
   4   3  13   66.06    3.23
  -4  -3 -13   66.58    3.52
  -4  -3 -14    6.25    1.28
   4   3  14    5.55    1.41
   4   3  14    6.07    1.21
   4   3  15   45.31    3.37
   4   3  15   49.29    2.85
  -4  -3 -15   46.33    3.22
  -4  -3 -16    1.31    1.16
   4   3  16    0.69    1.15
  -4  -3 -17    1.89    1.05
   4   3  17    0.35    0.92
   4   4 -14   14.37    2.05
  -4  -4  14   13.62    2.02
   4   4 -13   10.03    1.77
  -4  -4  13   11.66    1.79
   4   4 -12   39.68    3.00
  -4  -4  12   38.91    3.04
   4   4 -11  142.80    5.67
  -4  -4  11  132.74    5.57
   4   4 -10   87.59    2.38
   4   4 -10   86.93    4.14
  -4  -4  10   88.32    4.25
   4   4 -10   91.14    2.91
   4   4  -9   27.12    1.17
   4   4  -9   27.89    2.21
  -4  -4   9   27.46    2.32
   4   4  -9   24.39    1.45
   4   4  -8  124.01    4.60
   4   4  -8  124.42    3.12
  -4  -4   8  119.07    4.66
   4   4  -8  121.30    3.68
   4   4  -7   44.54    2.43
   4   4  -7   41.66    1.58
   4   4  -7   42.29    1.98
  -4  -4   7   39.79    2.53
   4   4  -6  265.72    5.70
   4   4  -6  268.61    6.90
   4   4  -6  271.92    6.42
   4   4  -6  270.30    7.36
  -4  -4   6  255.27    7.16
   4   4  -6  264.09    5.05
   4   4  -5   89.76    3.23
   4   4  -5   89.21    2.54
   4   4  -5   85.88    3.00
   4   4  -5   90.78    3.59
  -4  -4   5   76.90    3.34
   4   4  -5   83.19    2.21
   4   4  -4  518.17   10.70
  -4  -4   4  520.20   11.33
   4   4  -4  528.83   11.46
   4   4  -4  505.39    9.78
   4   4  -3   97.25    2.99
  -4  -4   3   92.97    3.44
   4   4  -3   92.81    3.45
  -4  -4   3   95.00    2.69
   4   4  -3   93.41    2.66
   4   4  -2   49.13    1.86
  -4  -4   2   52.55    2.41
   4   4  -2   52.93    2.36
  -4  -4   2   47.33    1.84
   4   4  -2   49.90    1.89
   4   4  -1    1.59    0.47
  -4  -4   1    2.78    0.76
   4   4  -1    2.09    0.64
   4   4  -1    1.48    0.57
  -4  -4   1    2.69    0.61
  -4  -4   0  316.61    7.40
   4   4   0  328.26    7.45
  -4  -4   0  320.88    7.07
   4   4   0  318.38    7.05
   4   4   1   20.49    1.37
  -4  -4  -1   20.25    1.31
  -4  -4  -1   19.18    1.39
   4   4   1   18.86    1.32
   4   4   2   11.55    1.07
   4   4   2   12.36    1.15
  -4  -4  -2   11.63    1.09
  -4  -4  -2   11.00    1.14
  -4  -4  -3   67.79    2.64
  -4  -4  -3   67.48    2.66
   4   4   3   67.15    2.62
   4   4   3   67.87    2.64
   4   4   4   56.34    1.75
  -4  -4  -4   58.57    2.46
  -4  -4  -4   61.89    2.55
   4   4   4   59.08    2.50
   4   4   4   54.57    2.44
   4   4   5  233.38    5.16
  -4  -4  -5  235.19    6.07
  -4  -4  -5  233.07    6.13
   4   4   5  251.79    6.25
   4   4   5  238.49    6.13
   4   4   6  194.72    4.68
   4   4   6  203.09    5.55
  -4  -4  -6  186.46    5.37
  -4  -4  -6  200.03    5.51
   4   4   6  194.64    5.43
   4   4   7   22.67    1.36
  -4  -4  -7   20.88    1.66
   4   4   7   24.51    1.71
  -4  -4  -7   20.95    1.59
   4   4   7   19.95    1.58
   4   4   8  590.57   12.58
   4   4   8  543.80   11.57
  -4  -4  -8  542.50   12.28
   4   4   8  600.15   12.56
   4   4   8  551.72   12.19
   4   4   9  167.58    5.32
   4   4   9  160.87    4.76
  -4  -4  -9  155.76    5.20
   4   4   9  156.54    5.02
   4   4  10  532.99   11.60
  -4  -4 -10  493.37   11.97
  -4  -4 -10  520.97   11.51
   4   4  10  531.94   11.82
  -4  -4 -11   25.99    2.16
  -4  -4 -11   23.64    1.85
   4   4  11   26.72    1.98
   4   4  12  135.87    3.92
  -4  -4 -12  138.82    5.31
   4   4  12  133.76    4.81
  -4  -4 -12  132.04    4.84
   4   4  13   42.11    1.92
  -4  -4 -13   38.19    2.81
   4   4  13   39.39    2.72
  -4  -4 -13   40.68    2.70
   4   4  13   39.05    2.51
  -4  -4 -14    0.44    0.84
   4   4  14    0.93    0.97
   4   4  14   -0.72    0.77
  -4  -4 -14    1.93    1.16
  -4  -4 -15    7.20    1.47
   4   4  15    6.65    1.45
   4   4  15    7.23    1.38
  -4  -4 -16    4.85    1.27
   4   4  16    5.89    1.39
   4   4  16    6.61    1.31
   4   4  17   10.30    1.82
   4   4  18    6.88    1.68
   4   5 -13   44.48    3.44
  -4  -5  13   39.17    3.18
   4   5 -12    5.26    1.58
  -4  -5  12    6.38    1.57
   4   5 -11  212.54    7.38
  -4  -5  11  210.06    7.44
   4   5 -10   62.37    3.58
  -4  -5  10   63.13    3.69
   4   5  -9   36.24    2.57
  -4  -5   9   38.77    2.75
   4   5  -9   38.95    1.88
   4   5  -8   40.85    1.14
   4   5  -8   42.38    2.64
  -4  -5   8   41.53    2.78
   4   5  -8   41.73    2.02
   4   5  -7   64.48    3.13
   4   5  -7   67.89    1.81
   4   5  -7   64.33    2.58
  -4  -5   7   64.31    3.31
   4   5  -6  192.91    5.69
   4   5  -6  196.31    4.18
   4   5  -6  190.19    5.12
  -4  -5   6  182.11    5.92
   4   5  -6  191.29    3.74
   4   5  -5  172.76    3.91
   4   5  -5  169.35    5.03
   4   5  -5  178.60    5.58
  -4  -5   5  167.05    5.41
   4   5  -5  168.60    3.74
   4   5  -4  263.76    6.66
   4   5  -4  292.76    7.45
  -4  -5   4  277.31    7.29
   4   5  -4  271.53    5.74
   4   5  -3    7.95    0.94
   4   5  -3   10.14    1.22
  -4  -5   3    7.24    1.00
   4   5  -3    8.60    0.76
   4   5  -2    1.20    0.56
   4   5  -2    1.73    0.65
  -4  -5   2    0.67    0.74
   4   5  -2    0.96    0.50
  -4  -5   1   26.71    1.76
   4   5  -1   30.06    1.78
   4   5  -1   28.31    1.47
  -4  -5   0   18.29    1.45
   4   5   0   17.75    1.37
   4   5   0   18.61    1.27
  -4  -5  -1    0.50    0.62
   4   5   1    1.33    0.59
  -4  -5  -1    0.75    0.66
   4   5   1    2.05    0.72
   4   5   2   72.82    2.73
  -4  -5  -2   72.70    2.79
   4   5   2   72.74    2.71
   4   5   3  376.19    8.22
  -4  -5  -3  360.45    8.29
   4   5   3  363.53    8.28
   4   5   4    0.03    0.52
   4   5   4    0.17    0.57
  -4  -5  -4   -0.50    0.65
   4   5   4   -0.01    0.64
  -4  -5  -5  179.55    5.02
   4   5   5  172.47    4.23
   4   5   5  181.60    5.11
   4   5   5  179.77    5.12
   4   5   6   12.79    0.52
   4   5   6   13.11    1.00
  -4  -5  -6   13.69    1.31
   4   5   6   13.67    1.27
   4   5   6   13.29    1.33
   4   5   7  270.60    6.97
   4   5   7  249.66    6.00
   4   5   7  251.20    5.03
  -4  -5  -7  244.28    6.60
   4   5   7  262.97    6.83
   4   5   7  253.93    6.71
   4   5   8  201.07    5.91
   4   5   8  190.19    5.13
   4   5   8  186.54    4.28
  -4  -5  -8  187.09    5.63
   4   5   8  201.40    5.81
   4   5   8  197.00    5.71
   4   5   9  366.07    8.98
   4   5   9  339.25    8.09
  -4  -5  -9  326.62    8.54
   4   5   9  339.97    8.56
   4   5  10  672.33   14.09
  -4  -5 -10  657.84   14.58
   4   5  10  668.30   14.44
  -4  -5 -11   25.02    2.07
   4   5  11   28.99    2.10
  -4  -5 -12   21.32    1.96
   4   5  12   21.74    1.92
   4   5  13    7.48    0.94
   4   5  13    8.79    1.36
   4   5  13    9.49    1.39
  -4  -5 -13    9.12    1.54
   4   5  14   10.18    1.03
   4   5  14    8.24    1.40
   4   5  14    8.71    1.40
  -4  -5 -14    9.35    1.70
   4   5  15    1.95    1.05
   4   5  15    1.55    0.89
  -4  -5 -15    1.16    0.92
   4   5  16    3.63    1.28
   4   5  16    2.42    1.02
   4   5  17   16.69    2.18
   4   5  18    2.46    1.15
   4   6 -12    1.81    1.12
  -4  -6  12    3.36    1.41
   4   6 -11   49.24    3.43
  -4  -6  11   50.67    3.55
   4   6 -10   37.93    2.88
  -4  -6  10   33.25    2.84
   4   6  -9   99.00    4.45
  -4  -6   9   86.47    4.37
   4   6  -8  140.38    5.27
  -4  -6   8  138.83    5.49
   4   6  -8  142.48    4.23
   4   6  -7   19.38    1.83
  -4  -6   7   18.53    1.86
   4   6  -6  193.45    3.93
   4   6  -6  202.83    6.10
   4   6  -6  207.71    3.95
  -4  -6   6  203.02    6.48
   4   6  -6  210.90    4.04
   4   6  -5   58.79    1.68
   4   6  -5   57.02    2.75
  -4  -6   5   57.84    3.05
   4   6  -5   54.38    1.76
   4   6  -4    6.58    0.97
   4   6  -4    6.44    1.06
  -4  -6   4    8.53    1.22
   4   6  -4    7.61    0.71
   4   6  -3  270.93    6.74
   4   6  -3  284.59    7.44
  -4  -6   3  260.74    7.16
   4   6  -3  274.52    6.05
   4   6  -2    1.04    0.75
  -4  -6   2   -0.03    0.68
   4   6  -2    0.01    0.43
  -4  -6   1  140.36    4.55
   4   6  -1  159.39    4.73
   4   6  -1  147.03    4.06
  -4  -6   0   25.03    1.68
   4   6   0   27.14    1.71
   4   6   0   23.90    1.48
  -4  -6  -1    9.32    1.08
   4   6   1   12.93    1.19
   4   6   1   10.35    1.07
   4   6   2  149.33    4.37
   4   6   2  146.81    4.35
  -4  -6  -2  147.86    4.44
   4   6   3  353.31    8.10
   4   6   3  363.70    8.29
  -4  -6  -3  359.81    8.28
  -4  -6  -4   17.32    0.63
   4   6   4   19.38    1.40
   4   6   4   16.77    1.43
  -4  -6  -4   17.16    1.44
   4   6   5  202.33    5.66
  -4  -6  -5  196.04    5.48
   4   6   5  204.83    5.35
   4   6   5  195.52    5.60
   4   6   5  203.87    5.61
   4   6   6  128.12    4.29
  -4  -6  -6  113.34    3.94
   4   6   6  118.15    3.50
   4   6   6  118.37    4.10
   4   6   6  121.65    4.07
   4   6   7  383.60    8.99
   4   6   7  344.60    7.91
   4   6   7  352.63    6.77
  -4  -6  -7  345.86    8.50
   4   6   7  374.92    8.77
   4   6   7  356.98    8.72
   4   6   8  133.01    4.61
   4   6   8  121.02    3.87
   4   6   8  117.69    2.98
  -4  -6  -8  119.78    4.25
   4   6   8  129.60    4.39
   4   6   8  120.81    4.34
   4   6   9  218.50    5.91
   4   6   9  215.52    4.90
   4   6   9  225.76    6.42
  -4  -6  -9  206.25    6.22
   4   6   9  210.89    6.29
   4   6  10  416.03    9.67
   4   6  10  408.80    8.55
  -4  -6 -10  407.62   10.04
   4   6  10  401.58    9.98
   4   6  11  130.42    3.82
  -4  -6 -11  124.88    4.76
   4   6  11  123.76    4.68
   4   6  12    6.86    0.93
  -4  -6 -12    7.57    1.38
   4   6  12    7.65    1.29
   4   6  13   40.68    2.25
   4   6  13   43.17    2.28
  -4  -6 -13   42.63    2.86
   4   6  13   44.26    2.77
   4   6  14    2.59    0.71
   4   6  14    2.63    0.86
   4   6  14    3.73    0.97
  -4  -6 -14    2.58    1.08
   4   6  14    4.54    1.19
   4   6  15    1.18    0.70
   4   6  15    0.64    0.81
  -4  -6 -15   -0.79    1.01
   4   6  15    1.32    0.99
   4   6  16    9.43    1.40
   4   6  16   11.72    1.70
   4   6  16    8.92    1.53
  -4  -6 -16    9.95    1.70
   4   6  17    8.49    1.62
   4   6  17    7.71    1.50
   4   6  18    4.74    1.41
   4   7 -12   76.51    4.54
  -4  -7  12   81.35    4.76
   4   7 -11   10.30    1.89
  -4  -7  11   12.90    1.97
   4   7 -10   35.09    2.90
  -4  -7  10   34.22    2.91
   4   7  -9   72.42    3.95
  -4  -7   9   71.96    4.06
   4   7  -8  129.27    5.24
  -4  -7   8  135.41    5.56
   4   7  -8  137.21    4.25
   4   7  -7  110.81    4.57
  -4  -7   7  116.98    4.93
   4   7  -6   19.47    1.81
  -4  -7   6   17.17    1.85
   4   7  -6   19.30    0.85
   4   7  -5   34.55    0.99
   4   7  -5   32.10    0.98
   4   7  -5   28.83    2.08
  -4  -7   5   29.40    2.20
   4   7  -5   33.64    1.39
   4   7  -4  226.44    4.77
   4   7  -4  224.34    6.35
  -4  -7   4  228.03    6.80
   4   7  -4  227.92    5.23
   4   7  -3   34.30    1.41
   4   7  -3   33.18    2.03
   4   7  -3   32.24    2.31
  -4  -7   3   31.94    2.19
   4   7  -3   32.57    1.59
   4   7  -2    5.94    0.67
   4   7  -2    5.27    0.93
  -4  -7   2    6.89    1.13
   4   7  -2    5.86    0.78
   4   7  -1   19.04    1.19
  -4  -7   1   19.86    1.63
   4   7  -1   22.23    1.73
   4   7  -1   16.99    1.25
   4   7   0   -0.23    0.45
   4   7   0   -0.05    0.56
  -4  -7   0    0.09    0.64
   4   7   0    0.78    0.67
   4   7   1   93.44    3.16
  -4  -7  -1   96.08    3.47
   4   7   1   98.07    3.48
   4   7   1  100.01    3.41
   4   7   2  202.19    5.30
  -4  -7  -2  190.72    5.36
   4   7   2  199.90    5.41
   4   7   2  194.01    5.41
  -4  -7  -2  201.68    5.59
   4   7   3   91.79    3.28
   4   7   3   91.40    3.23
   4   7   3   86.10    3.32
  -4  -7  -3   80.93    3.24
   4   7   4  178.06    5.07
  -4  -7  -4  157.66    3.62
   4   7   4  175.54    4.81
   4   7   4  171.27    5.07
  -4  -7  -4  175.77    5.05
   4   7   5  145.29    4.61
  -4  -7  -5  134.45    3.06
  -4  -7  -5  138.19    4.40
   4   7   5  145.23    4.24
   4   7   5  139.20    4.58
   4   7   6   20.73    1.71
   4   7   6   18.36    1.40
  -4  -7  -6   17.94    1.53
   4   7   6   18.24    1.61
   4   7   6   18.19    1.54
   4   7   7  182.08    5.62
   4   7   7  177.01    5.02
  -4  -7  -7  175.56    5.31
   4   7   7  174.68    4.90
   4   7   7  177.26    5.53
   4   7   7  183.27    5.44
   4   7   8  322.86    7.72
  -4  -7  -8  304.14    8.00
   4   7   8  335.91    8.28
   4   7   8  321.25    8.35
   4   7   9   41.31    2.24
   4   7   9   41.69    1.65
  -4  -7  -9   40.56    2.40
   4   7   9   39.75    2.49
   4   7  10  293.95    7.58
   4   7  10  287.17    6.42
  -4  -7 -10  283.11    7.80
   4   7  10  286.85    7.95
   4   7  11   25.63    1.48
  -4  -7 -11   21.89    1.92
   4   7  11   22.48    2.01
   4   7  12    3.63    0.69
  -4  -7 -12    4.74    1.14
   4   7  12    4.21    1.08
   4   7  13   12.96    1.39
   4   7  13   10.62    1.15
  -4  -7 -13   10.34    1.53
   4   7  13   12.10    1.53
   4   7  14    7.26    1.09
   4   7  14    7.12    1.00
   4   7  14    6.69    1.10
   4   7  14    7.38    1.38
  -4  -7 -14    7.67    1.50
   4   7  15   15.70    1.59
   4   7  15   16.28    1.80
  -4  -7 -15   13.64    1.87
   4   7  15   15.58    1.88
   4   7  16   35.21    2.37
  -4  -7 -16   28.51    2.72
   4   7  16   33.09    2.58
   4   7  16   30.41    2.58
   4   7  17    6.44    1.31
   4   7  17    7.97    1.64
   4   8 -11   69.77    4.30
  -4  -8  11   76.05    4.59
   4   8 -10   28.51    2.72
  -4  -8  10   26.97    2.76
   4   8  -9   42.80    3.11
  -4  -8   9   38.73    3.12
   4   8  -8   49.51    3.24
  -4  -8   8   43.78    3.20
   4   8  -7   29.16    2.39
  -4  -8   7   34.57    2.70
   4   8  -6  418.08   10.80
  -4  -8   6  411.19   11.13
   4   8  -6  439.41    8.36
   4   8  -5   15.23    1.64
  -4  -8   5   11.23    1.55
   4   8  -5   13.98    0.97
   4   8  -4  523.02    9.55
   4   8  -4  503.73   11.85
  -4  -8   4  484.93   12.13
   4   8  -4  523.03   10.47
   4   8  -3   36.82    1.47
  -4  -8   3   35.76    2.41
   4   8  -3   35.50    1.77
   4   8  -2   77.92    2.49
  -4  -8   2   71.04    3.34
   4   8  -2   78.34    2.84
   4   8  -1   25.95    1.41
   4   8  -1   26.29    1.93
  -4  -8   1   26.44    1.93
   4   8  -1   23.56    1.53
   4   8   0    1.95    0.53
   4   8   0    0.44    0.57
  -4  -8   0    2.12    0.76
   4   8   0    1.53    0.63
   4   8   1   -0.50    0.46
   4   8   1    0.14    0.54
  -4  -8  -1    0.46    0.62
   4   8   1    0.22    0.67
   4   8   2  107.07    3.61
  -4  -8  -2  105.11    3.72
   4   8   2  110.53    3.77
   4   8   2  106.35    3.74
   4   8   3  189.50    5.37
  -4  -8  -3  186.91    5.29
   4   8   3  189.60    5.31
   4   8   3  188.84    5.48
  -4  -8  -3  193.37    5.56
   4   8   4  146.26    4.59
  -4  -8  -4  135.90    3.48
   4   8   4  142.20    4.32
  -4  -8  -4  138.95    4.53
   4   8   4  139.73    4.63
   4   8   5  330.59    8.05
  -4  -8  -5  297.24    6.33
   4   8   5  319.21    7.48
   4   8   5  305.60    7.93
  -4  -8  -5  319.72    7.84
   4   8   6   20.05    1.67
  -4  -8  -6   15.02    0.89
   4   8   6   16.64    1.34
   4   8   6   16.53    1.62
  -4  -8  -6   16.12    1.50
   4   8   7   15.17    1.27
   4   8   7   14.78    1.53
  -4  -8  -7   15.88    1.49
   4   8   7   16.48    1.50
   4   8   8   98.20    3.49
  -4  -8  -8   93.67    3.73
   4   8   8   98.43    4.05
   4   8   8  100.04    3.88
   4   8   8   99.97    3.65
   4   8   9   95.06    3.66
  -4  -8  -9   93.12    3.79
   4   8   9   94.11    4.03
   4   8  10  379.09    9.20
   4   8  10  370.21    7.85
  -4  -8 -10  357.11    9.25
   4   8  10  357.98    9.55
   4   8  11    3.15    0.67
   4   8  11   -0.38    0.92
  -4  -8 -11    2.03    1.05
   4   8  12  128.52    4.73
   4   8  12  134.02    4.03
  -4  -8 -12  123.19    4.87
   4   8  12  131.99    5.18
   4   8  13   11.89    1.44
   4   8  13   12.01    1.22
  -4  -8 -13   11.79    1.54
   4   8  13   12.69    1.70
   4   8  14    1.39    0.73
   4   8  14    2.16    0.75
  -4  -8 -14    3.85    1.03
   4   8  14    3.00    1.08
   4   8  15    3.68    0.92
   4   8  15    5.37    0.99
   4   8  15    3.83    0.98
  -4  -8 -15    5.49    1.30
   4   8  15    5.75    1.40
   4   8  16    4.66    1.10
  -4  -8 -16    5.52    1.31
   4   8  16    4.90    1.34
  -4  -8 -17   14.61    2.14
   4   8  17   15.09    1.97
   4   8  18    1.32    1.19
   4   9 -10    7.37    1.66
  -4  -9  10    4.78    1.41
   4   9  -9   99.14    5.03
  -4  -9   9  106.23    5.36
   4   9  -8   29.06    2.62
  -4  -9   8   27.17    2.62
   4   9  -8   28.03    1.92
   4   9  -7   41.13    2.98
  -4  -9   7   39.73    3.04
   4   9  -6  259.31    8.11
  -4  -9   6  254.65    8.35
   4   9  -6  283.21    5.94
   4   9  -5  100.03    4.36
  -4  -9   5   95.18    4.44
   4   9  -5   98.71    3.05
   4   9  -4  187.30    6.25
   4   9  -4  201.07    3.99
  -4  -9   4  187.72    6.49
   4   9  -4  201.05    5.15
   4   9  -3  108.95    2.90
  -4  -9   3  111.54    4.52
   4   9  -3  112.52    3.61
   4   9  -2    0.16    0.36
  -4  -9   2    0.64    0.83
   4   9  -2   -0.62    0.52
   4   9  -1    6.73    0.79
  -4  -9   1    7.95    1.19
   4   9  -1    7.11    0.95
   4   9   0   62.43    2.49
   4   9   0   66.47    3.13
  -4  -9   0   60.77    2.98
   4   9   0   67.58    2.85
   4   9   1    3.39    0.68
   4   9   1    2.87    0.73
  -4  -9  -1    5.19    1.01
   4   9   1    3.86    0.86
   4   9   2   10.49    1.14
   4   9   2   11.79    1.26
  -4  -9  -2   12.05    1.27
   4   9   2   10.17    1.23
   4   9   3   68.46    2.93
  -4  -9  -3   69.65    2.96
   4   9   3   69.11    2.93
   4   9   3   66.38    3.06
  -4  -9  -3   66.71    3.10
   4   9   4   67.50    3.03
  -4  -9  -4   63.82    2.31
   4   9   4   66.97    2.83
   4   9   4   64.80    3.07
  -4  -9  -4   66.65    3.04
   4   9   5  404.72    9.64
  -4  -9  -5  384.22    8.14
   4   9   5  397.74    9.04
   4   9   5  396.40    9.73
  -4  -9  -5  401.08    9.47
   4   9   6   22.26    1.84
  -4  -9  -6   21.59    1.19
  -4  -9  -6   22.02    1.74
   4   9   6   22.21    1.54
   4   9   6   22.97    1.92
   4   9   7  167.81    4.83
  -4  -9  -7  161.36    5.25
   4   9   7  169.71    5.61
  -4  -9  -8   53.27    2.79
   4   9   8   61.54    2.63
   4   9   8   58.35    3.16
   4   9   9   57.85    2.60
  -4  -9  -9   54.96    2.88
   4   9   9   60.25    3.23
   4   9   9   61.31    2.94
   4   9  10   10.57    1.18
   4   9  10   11.22    1.54
  -4  -9 -10   12.35    1.45
   4   9  11   36.29    1.80
  -4  -9 -11   36.10    2.47
   4   9  11   40.00    2.76
   4   9  12  144.66    5.30
   4   9  12  147.77    4.35
  -4  -9 -12  146.24    5.33
   4   9  12  143.84    5.61
   4   9  13    0.60    0.73
   4   9  13    0.36    0.62
   4   9  13    0.20    0.94
  -4  -9 -13   -1.17    1.02
   4   9  14   -0.27    0.73
   4   9  14    1.55    0.76
  -4  -9 -14   -0.40    0.87
   4   9  14    0.31    0.89
   4   9  15    3.37    1.03
   4   9  15    2.54    0.85
   4   9  15    2.14    0.75
  -4  -9 -15    2.13    0.98
   4   9  15    3.54    1.13
  -4  -9 -16    1.13    1.12
   4   9  16    4.53    1.39
  -4  -9 -17   11.91    1.84
   4   9  17   17.66    2.23
  -4  -9 -18    6.49    1.60
   4   9  18    3.01    1.37
   4  10  -9   73.85    4.40
  -4 -10   9   70.02    4.49
   4  10  -8   48.52    3.44
  -4 -10   8   49.12    3.70
   4  10  -7   63.13    3.85
  -4 -10   7   60.13    3.90
   4  10  -7   65.58    3.19
   4  10  -6   96.51    4.64
   4  10  -6   98.29    4.06
  -4 -10   6   91.83    4.68
   4  10  -5   35.26    2.70
  -4 -10   5   42.15    3.07
   4  10  -5   43.45    2.00
   4  10  -4   64.54    3.50
  -4 -10   4   60.86    3.55
   4  10  -4   66.43    2.68
   4  10  -3   26.40    1.20
  -4 -10   3   24.62    2.17
   4  10  -3   25.37    1.71
   4  10  -2    0.17    0.35
  -4 -10   2   -0.91    1.01
   4  10  -2    0.16    0.55
   4  10  -1    7.41    0.83
  -4 -10   1    8.28    1.33
   4  10  -1    7.23    1.08
   4  10   0  164.58    4.68
  -4 -10   0  170.93    5.57
   4  10   0  170.20    5.21
   4  10   1    4.50    0.83
   4  10   1    4.94    0.98
  -4 -10  -1    4.08    0.99
   4  10   2   59.02    2.70
  -4 -10  -2   60.07    2.90
   4  10   2   64.93    3.02
   4  10   3   24.97    1.81
  -4 -10  -3   25.09    1.84
   4  10   3   26.86    1.86
  -4 -10  -3   27.39    2.05
   4  10   4   38.05    2.28
  -4 -10  -4   36.16    1.84
   4  10   4   39.57    2.21
  -4 -10  -4   40.66    2.43
   4  10   5  306.71    7.94
  -4 -10  -5  277.91    6.64
   4  10   5  297.62    7.33
   4  10   5  285.08    7.94
  -4 -10  -5  289.51    7.70
  -4 -10  -6   38.82    1.80
  -4 -10  -6   38.83    2.33
   4  10   6   40.46    2.15
   4  10   6   37.38    2.49
  -4 -10  -7  137.01    3.91
  -4 -10  -7  148.72    4.94
   4  10   7  140.11    4.41
   4  10   7  145.69    5.29
  -4 -10  -8  217.39    6.42
   4  10   8  219.76    5.89
   4  10   8  225.12    7.00
   4  10   9    0.33    0.55
   4  10   9    0.70    0.86
  -4 -10  -9    1.14    0.72
   4  10  10   26.36    1.79
  -4 -10 -10   25.91    2.03
   4  10  10   29.51    2.42
   4  10  11    0.98    1.09
   4  10  11    1.19    0.69
   4  10  11    1.76    1.01
  -4 -10 -11    2.84    0.93
   4  10  12   87.99    4.14
   4  10  12   85.94    3.40
  -4 -10 -12   81.53    3.86
   4  10  12   93.75    4.48
   4  10  13   36.69    2.64
   4  10  13   35.19    2.01
  -4 -10 -13   34.12    2.56
   4  10  13   31.96    2.75
   4  10  14   -0.19    0.80
   4  10  14   -0.58    0.63
   4  10  14    0.18    1.03
  -4 -10 -14   -2.02    1.09
   4  10  15   11.69    1.61
   4  10  15   10.35    1.68
  -4 -10 -15   12.81    1.85
  -4 -10 -16   45.06    3.29
   4  10  16   47.05    3.43
  -4 -10 -17    5.19    1.52
   4  10  17    5.22    1.49
  -4 -10 -18   23.60    2.56
   4  10  18   32.78    3.01
   4  11  -8   31.21    2.92
   4  11  -7   28.07    2.69
  -4 -11   7   26.25    2.62
   4  11  -6  148.34    6.18
  -4 -11   6  142.98    6.25
   4  11  -6  155.31    5.51
   4  11  -5   32.40    2.72
   4  11  -5   34.89    2.45
  -4 -11   5   33.35    2.85
   4  11  -4   22.47    2.33
   4  11  -4   20.65    1.98
  -4 -11   4   20.37    2.19
   4  11  -4   19.96    1.48
  -4 -11   3    3.02    1.12
   4  11  -3    2.99    0.77
   4  11  -2    3.84    0.64
  -4 -11   2    3.40    1.04
   4  11  -2    2.43    0.84
   4  11  -1   14.97    1.18
  -4 -11   1   13.13    1.58
   4  11   0   33.27    1.88
  -4 -11   0   36.11    2.49
   4  11   1    3.12    0.74
  -4 -11  -1    2.45    0.91
   4  11   2   15.31    1.43
  -4 -11  -2   15.29    1.56
   4  11   3    9.42    1.23
   4  11   3   11.20    1.28
  -4 -11  -3    8.20    1.20
  -4 -11  -3    8.47    1.28
   4  11   4   81.02    3.59
  -4 -11  -4   85.32    3.47
   4  11   4   86.04    3.48
  -4 -11  -4   84.95    3.70
  -4 -11  -5  142.13    4.31
   4  11   5  145.78    4.69
  -4 -11  -5  146.51    5.04
  -4 -11  -6   28.28    1.68
   4  11   6   27.04    1.82
  -4 -11  -6   24.03    1.94
  -4 -11  -7   71.63    2.77
   4  11   7   77.41    3.13
  -4 -11  -7   73.94    3.42
   4  11   7   76.50    3.81
  -4 -11  -8  209.51    5.50
  -4 -11  -8  207.78    6.37
   4  11   8  212.89    5.82
   4  11   8  216.23    7.02
   4  11   9    8.40    1.45
   4  11   9    9.24    1.08
   4  11   9    8.27    1.48
  -4 -11  -9    7.04    1.18
   4  11  10  213.56    7.10
   4  11  10  207.71    5.69
  -4 -11 -10  199.90    6.37
   4  11  10  208.93    7.12
   4  11  11    0.90    0.98
   4  11  11    0.42    0.60
   4  11  11    2.88    1.17
  -4 -11 -11   -0.30    0.88
   4  11  12   89.34    4.37
  -4 -11 -12   89.01    4.05
   4  11  12   86.96    4.47
   4  11  13    1.10    0.91
   4  11  13   -0.27    0.99
  -4 -11 -13    1.26    0.96
   4  11  14   15.17    1.91
   4  11  14   13.09    1.97
  -4 -11 -14   15.21    1.76
   4  11  15    3.21    1.17
   4  11  15    0.74    1.06
  -4 -11 -15    3.63    1.23
   4  11  16   22.30    2.20
   4  11  16   22.07    2.44
  -4 -11 -16   17.63    2.07
  -4 -11 -17    7.15    1.51
   4  11  17   11.23    1.90
   4  12  -7   20.88    2.54
   4  12  -6  117.80    5.63
  -4 -12   6  110.60    5.57
   4  12  -6  117.46    4.84
   4  12  -5    0.30    1.04
   4  12  -5    0.02    0.76
  -4 -12   5   -1.49    1.13
   4  12  -4   70.88    4.13
   4  12  -4   71.01    3.75
  -4 -12   4   70.70    4.14
   4  12  -4   74.70    3.15
   4  12  -3    1.18    0.91
  -4 -12   3    0.81    0.96
   4  12  -3    0.10    0.61
   4  12  -2    1.36    0.92
  -4 -12   2    2.59    1.16
   4  12  -2    1.02    0.71
  -4 -12   1   34.39    2.60
   4  12  -1   39.61    2.80
   4  12   0    7.19    0.97
  -4 -12   0    5.32    1.20
   4  12   1   38.34    2.23
  -4 -12  -1   40.08    2.62
   4  12   2   42.18    2.42
  -4 -12  -2   41.16    2.56
  -4 -12  -3   50.75    2.81
  -4 -12  -3   56.14    3.11
  -4 -12  -4   23.21    1.71
   4  12   4   19.53    1.72
  -4 -12  -4   24.15    1.88
  -4 -12  -4   18.53    1.81
  -4 -12  -5  108.80    3.91
   4  12   5  112.10    4.12
  -4 -12  -5  112.44    4.45
  -4 -12  -6  139.90    4.49
   4  12   6  147.83    4.76
  -4 -12  -6  141.32    5.11
   4  12   7   17.61    2.00
  -4 -12  -7   12.67    1.26
   4  12   7   14.12    1.41
  -4 -12  -7   13.24    1.54
   4  12   8  158.02    6.00
  -4 -12  -8  145.59    4.52
   4  12   8  141.22    4.53
  -4 -12  -8  143.41    5.14
   4  12   9   45.77    3.16
  -4 -12  -9   42.35    2.64
   4  12   9   43.70    2.26
   4  12   9   48.75    3.98
   4  12  10  155.53    6.10
  -4 -12 -10  145.91    5.27
   4  12  10  146.72    5.96
   4  12  11   -1.02    1.22
   4  12  11   -0.38    0.91
  -4 -12 -11    1.72    0.86
   4  12  12    5.75    1.42
   4  12  12    4.93    1.36
  -4 -12 -12    6.97    1.32
   4  12  13    9.70    1.69
   4  12  13   10.98    1.86
  -4 -12 -13   12.16    1.59
   4  12  14    4.79    1.34
  -4 -12 -14    2.70    1.01
   4  12  14    5.98    1.45
   4  12  15    0.30    1.04
   4  12  15    2.44    1.42
  -4 -12 -15    1.04    0.93
   4  12  16    4.94    1.30
   4  12  16    3.76    1.32
  -4 -12 -16    5.15    1.45
  -4 -12 -17   31.00    2.75
   4  13  -5   17.23    2.26
  -4 -13   5   14.93    2.15
   4  13  -5   13.71    1.76
   4  13  -4   17.56    2.28
   4  13  -4   14.26    1.79
  -4 -13   4   17.87    2.19
   4  13  -3    0.59    0.85
  -4 -13   3    2.00    1.18
   4  13  -3    1.57    0.77
   4  13  -2    1.53    1.00
  -4 -13   2    1.93    1.06
   4  13  -2    0.47    0.68
   4  13  -1    4.42    1.26
  -4 -13   1    3.07    1.16
   4  13   0   23.05    2.28
  -4 -13   0   22.86    2.17
   4  13   1   -0.57    0.96
  -4 -13  -1    1.83    0.95
   4  13   2  291.72    9.00
  -4 -13  -2  284.25    8.18
   4  13   3  124.08    5.41
  -4 -13  -3  119.20    4.64
  -4 -13  -3  124.66    4.99
   4  13   4   -0.04    0.91
  -4 -13  -4   -0.30    0.77
  -4 -13  -4    1.10    0.83
   4  13   5   36.76    2.89
  -4 -13  -5   35.26    2.25
   4  13   5   33.70    2.24
  -4 -13  -5   32.14    2.41
   4  13   6    0.12    0.90
  -4 -13  -6    0.61    0.67
   4  13   6    0.65    0.67
  -4 -13  -6    0.69    0.85
   4  13   7  447.97   11.94
  -4 -13  -7  411.68    9.89
   4  13   7  429.98    9.94
  -4 -13  -7  412.22   10.58
   4  13   8    4.74    1.39
  -4 -13  -8    4.36    1.06
   4  13   9  325.22    9.74
  -4 -13  -9  291.80    8.36
   4  13  10   46.52    3.37
  -4 -13 -10   42.30    2.72
   4  13  10   45.04    3.31
   4  13  11   28.94    2.67
  -4 -13 -11   23.75    2.09
   4  13  11   26.22    2.62
   4  13  12    1.35    1.11
   4  13  12    3.28    1.34
  -4 -13 -12    1.93    0.96
   4  13  13    3.46    1.37
   4  13  13    3.77    1.36
  -4 -13 -13    1.47    0.92
   4  13  14    4.69    1.29
  -4 -13 -14    4.67    1.20
   4  13  14    2.99    1.21
   4  13  15    2.85    1.38
  -4 -13 -15    2.76    1.12
   4  13  16   17.47    2.28
   4  14  -4   11.70    1.82
  -4 -14   4   12.98    1.93
   4  14  -3    1.94    1.06
  -4 -14   3    0.52    0.94
   4  14  -2   -0.01    1.14
  -4 -14   2    0.45    1.09
   4  14  -2   -0.35    0.73
   4  14  -1    1.36    1.83
  -4 -14   1   -0.15    0.91
   4  14   0   62.55    3.90
  -4 -14   0   68.64    3.87
   4  14   1    1.93    1.08
  -4 -14  -1   -0.61    0.79
   4  14   2   78.21    4.40
  -4 -14  -2   74.49    3.78
   4  14   3   39.32    3.12
  -4 -14  -3   41.20    2.70
  -4 -14  -3   36.20    2.76
   4  14   4   50.96    3.51
  -4 -14  -4   45.77    2.76
  -4 -14  -4   41.28    2.90
   4  14   5   53.02    3.68
  -4 -14  -5   46.29    3.00
   4  14   6   52.26    3.65
  -4 -14  -6   51.92    3.13
   4  14   7  118.83    5.53
  -4 -14  -7  112.61    4.71
   4  14   8   54.26    3.77
  -4 -14  -8   51.94    3.07
   4  14   9  133.48    5.96
  -4 -14  -9  119.24    4.86
   4  14  10    2.17    1.27
   4  14  10    3.80    1.47
  -4 -14 -10   -0.72    0.83
   4  14  11   -2.22    1.34
  -4 -14 -11    0.13    0.78
   4  14  11   -0.93    1.07
   4  14  12   11.41    1.90
  -4 -14 -12   11.31    1.59
   4  14  12   11.89    1.85
   4  14  13   -1.42    1.25
   4  14  13    0.44    1.15
  -4 -14 -13   -0.13    0.89
   4  14  14    0.37    0.97
  -4 -14 -14   -1.24    0.94
   4  14  15   -1.01    1.10
   4  14  16   42.47    3.45
   4  15  -3   11.11    1.82
   4  15  -2   11.82    1.88
  -4 -15   2   10.87    1.82
   4  15  -1    7.08    1.53
  -4 -15   1    6.79    1.56
   4  15   0   23.10    2.49
  -4 -15   0   21.48    2.33
   4  15   1   42.63    3.39
  -4 -15  -1   42.72    3.09
   4  15   2   41.25    3.30
  -4 -15  -2   40.16    2.86
   4  15   3   51.53    3.73
  -4 -15  -3   49.00    3.08
  -4 -15  -3   51.33    3.36
   4  15   4    8.71    1.65
  -4 -15  -4    8.13    1.28
  -4 -15  -4    8.50    1.45
   4  15   5   78.92    4.53
  -4 -15  -5   63.74    3.67
   4  15   6   48.63    3.61
  -4 -15  -6   35.00    2.66
   4  15   7   28.86    2.83
  -4 -15  -7   29.57    2.45
   4  15   8   37.81    3.22
  -4 -15  -8   29.10    2.42
   4  15   9   15.67    2.06
  -4 -15  -9   16.83    1.88
   4  15  10   33.95    3.12
  -4 -15 -10   29.39    2.37
   4  15  11    0.65    1.03
   4  15  11    2.41    1.10
  -4 -15 -11   -0.65    0.90
   4  15  12   21.08    2.49
  -4 -15 -12   13.10    1.73
   4  16  -2    2.97    1.40
   4  16  -1   10.83    1.89
  -4 -16   1   11.80    1.97
   4  16   0    4.81    1.47
  -4 -16   0    7.46    1.50
   4  16   1   21.99    2.52
  -4 -16  -1   16.66    2.14
   4  16   2   59.68    4.09
  -4 -16  -2   60.38    3.66
   4  16   3   57.80    4.05
  -4 -16  -3   52.10    3.30
  -4 -16  -3   48.90    3.48
   4  16   4   32.11    3.05
  -4 -16  -4   30.37    2.44
  -4 -16  -4   26.69    2.53
   4  16   5   56.25    4.05
  -4 -16  -5   45.00    3.20
   4  16   6    0.70    1.18
  -4 -16  -6    1.44    1.24
   4  16   7   85.49    5.02
  -4 -16  -7   78.74    4.14
  -4 -16  -8   -0.03    0.84
  -4 -16  -9   41.40    2.95
  -4 -17  -1    9.69    1.73
  -4 -17  -2   26.72    2.68
  -4 -17  -3   18.80    2.29
  -4 -17  -4   20.66    2.36
  -4 -17  -5    7.60    1.57
  -4 -17  -6    0.69    0.97
   5 -13  -2    6.27    1.64
   5 -13  -1    1.07    1.24
   5 -12  -6    8.48    1.87
   5 -12  -5    5.22    1.58
   5 -12  -4   -0.34    1.01
   5 -12  -3    1.66    1.13
   5 -12  -2    2.80    1.20
   5 -12  -1   20.47    2.31
   5 -12   0    3.78    1.28
   5 -11  -8   31.10    2.98
  -5  11   8   33.95    3.11
   5 -11  -7   27.13    2.79
  -5  11   7   28.04    2.79
   5 -11  -6   84.64    4.74
  -5  11   6   76.83    4.60
   5 -11  -5   12.26    1.95
  -5  11   5    9.41    1.76
   5 -11  -4   -0.29    1.00
  -5  11   4   -0.06    0.96
   5 -11  -3   -0.53    1.21
  -5  11   3    1.05    0.96
   5 -11  -2   -1.04    1.00
  -5  11   2    0.73    1.08
   5 -11  -1    2.37    1.25
  -5  11   1    0.81    0.99
   5 -11   0    8.26    1.49
  -5  11   0    8.67    1.72
   5 -11   1   16.46    2.01
   5 -11   1   19.34    2.07
  -5  11  -1   14.81    2.08
   5 -11   2   -0.68    1.04
   5 -11   2   -1.69    1.14
  -5  11  -2    0.62    0.98
   5 -11   3   58.18    3.82
  -5  11  -3   60.51    3.96
   5 -11   4    5.87    1.54
  -5  11  -4    5.39    1.40
  -5  10  12    3.62    1.41
  -5  10  11   11.89    1.96
   5 -10 -10    0.57    1.10
  -5  10  10   -0.13    0.92
   5 -10  -9   12.64    2.01
  -5  10   9   11.48    1.94
   5 -10  -8    1.92    1.01
  -5  10   8    0.45    0.99
   5 -10  -7    3.99    1.30
  -5  10   7    4.65    1.48
   5 -10  -6    0.09    1.01
  -5  10   6    0.50    1.13
   5 -10  -5   -0.46    0.95
  -5  10   5   -0.76    1.08
   5 -10  -4    0.80    1.13
  -5  10   4   -0.25    0.97
   5 -10  -3    4.47    1.48
  -5  10   3    3.07    1.15
   5 -10  -2   15.08    2.02
   5 -10  -2   14.68    1.53
  -5  10   2   11.37    1.85
   5 -10  -1    6.49    1.52
   5 -10  -1    6.71    1.11
  -5  10   1    7.04    1.58
   5 -10   0    2.56    1.22
   5 -10   0   -0.34    0.91
  -5  10   0    2.71    1.30
   5 -10   1   23.33    2.32
   5 -10   1   25.59    2.23
  -5  10  -1   19.43    2.28
   5 -10   2    2.26    1.07
   5 -10   2    2.08    1.42
  -5  10  -2    2.58    1.15
   5 -10   3   52.21    3.27
   5 -10   3   41.25    3.19
  -5  10  -3   36.82    2.98
   5 -10   4    6.33    1.55
  -5  10  -4    7.48    1.55
   5 -10   5   38.65    3.26
  -5  10  -5   28.70    2.72
  -5   9  15    2.00    1.27
  -5   9  14    9.37    1.79
  -5   9  13   27.39    2.69
   5  -9 -12    8.52    1.81
  -5   9  12    5.79    1.53
  -5   9  12    3.21    1.39
   5  -9 -11   12.65    2.07
  -5   9  11   12.19    1.81
  -5   9  11   16.17    2.26
   5  -9 -10    3.11    1.34
  -5   9  10    5.22    1.39
   5  -9  -9    2.48    1.25
  -5   9   9    1.36    1.08
   5  -9  -8   11.19    1.80
  -5   9   8   11.11    1.76
   5  -9  -7   -0.04    0.97
  -5   9   7   -0.12    0.96
   5  -9  -6   27.13    2.56
  -5   9   6   29.50    2.74
   5  -9  -5    0.42    0.88
  -5   9   5    1.24    1.19
   5  -9  -4    0.11    0.94
   5  -9  -4   -0.53    0.57
  -5   9   4   -0.16    0.98
   5  -9  -3    3.34    1.18
   5  -9  -3    3.15    0.76
  -5   9   3    3.72    1.19
   5  -9  -2   45.41    3.11
   5  -9  -2   41.28    2.38
  -5   9   2   43.73    3.14
   5  -9  -1    2.33    1.11
   5  -9  -1    6.45    1.06
  -5   9   1    5.27    1.32
   5  -9   0   49.49    3.21
   5  -9   0   53.35    2.99
  -5   9   0   56.71    3.51
   5  -9   1   16.91    1.94
   5  -9   1    9.54    1.39
  -5   9  -1   12.57    1.79
   5  -9   2   16.16    1.90
   5  -9   2   10.84    1.57
  -5   9  -2   12.53    1.76
   5  -9   3   13.92    1.97
   5  -9   3   17.67    2.06
  -5   9  -3   11.98    1.74
   5  -9   4   37.01    2.66
   5  -9   4   27.94    2.74
  -5   9  -4   30.90    2.61
   5  -9   5    0.60    1.05
  -5   9  -5    4.58    1.27
  -5   9  -6   69.04    4.33
   5  -9   6   83.90    4.80
  -5   9  -7    2.02    1.13
  -5   8  15    0.39    1.14
  -5   8  14    0.74    1.06
   5  -8 -13   40.34    3.36
  -5   8  13   42.36    3.45
  -5   8  13   38.68    3.08
   5  -8 -12    2.95    1.37
  -5   8  12    3.35    1.27
  -5   8  12    5.49    1.51
   5  -8 -11   28.58    2.77
  -5   8  11   29.79    2.71
  -5   8  11   32.00    2.92
   5  -8 -10    6.93    1.62
  -5   8  10    8.72    1.54
  -5   8  10    4.36    1.25
   5  -8  -9    1.78    1.02
  -5   8   9    1.01    1.09
   5  -8  -8   35.09    2.92
  -5   8   8   36.28    2.83
   5  -8  -7   50.86    3.39
  -5   8   7   52.24    3.42
   5  -8  -6   17.00    2.05
   5  -8  -6   17.44    1.03
  -5   8   6   19.18    2.09
   5  -8  -5    1.17    0.97
   5  -8  -5    0.29    0.44
  -5   8   5    1.00    0.94
   5  -8  -4    3.40    1.14
   5  -8  -4    5.60    0.79
  -5   8   4    3.52    1.16
   5  -8  -3    9.92    1.64
   5  -8  -3    9.50    1.02
  -5   8   3    9.75    1.59
   5  -8  -2   23.87    2.27
   5  -8  -2   24.29    1.76
  -5   8   2   24.02    2.25
   5  -8  -1   10.90    1.61
   5  -8  -1   11.00    1.37
  -5   8   1    9.79    1.56
   5  -8   0   63.63    3.49
   5  -8   0   60.15    3.13
  -5   8   0   58.85    3.45
   5  -8   1   34.43    2.54
   5  -8   1   32.49    2.34
  -5   8  -1   28.89    2.42
   5  -8   2    9.89    1.48
   5  -8   2    9.80    1.52
  -5   8  -2   11.18    1.58
   5  -8   3   42.78    2.81
   5  -8   3   45.94    3.06
  -5   8  -3   44.59    2.97
   5  -8   4   10.65    1.46
   5  -8   4   11.08    1.70
  -5   8  -4   10.08    1.57
   5  -8   5   68.78    3.52
   5  -8   5   62.93    3.91
  -5   8  -5   62.91    3.51
   5  -8   6   71.92    3.56
  -5   8  -6   68.90    4.13
   5  -8   6   76.88    4.46
  -5   8  -6   74.47    3.80
  -5   8  -7   15.69    2.15
   5  -8   7   17.28    2.30
  -5   8  -8   24.38    2.60
  -5   7  15   23.86    2.48
   5  -7 -14    0.48    1.16
  -5   7  14    0.07    1.12
   5  -7 -13   15.22    2.14
  -5   7  13   17.27    2.12
  -5   7  13   20.99    2.42
   5  -7 -12    7.69    1.69
  -5   7  12   11.62    1.87
  -5   7  12    9.69    1.64
   5  -7 -11   50.14    3.49
  -5   7  11   53.24    3.61
  -5   7  11   49.64    3.27
   5  -7 -10    3.19    1.33
  -5   7  10    2.57    1.10
  -5   7  10    1.18    1.03
   5  -7  -9   22.25    2.32
  -5   7   9   20.32    2.14
  -5   7   9   19.85    2.16
   5  -7  -8    6.42    1.39
  -5   7   8    4.61    1.21
  -5   7   8    8.38    1.59
   5  -7  -7    6.78    1.45
  -5   7   7    6.44    1.40
   5  -7  -6  115.00    4.91
   5  -7  -6   98.40    2.89
  -5   7   6  111.41    4.76
   5  -7  -5  181.70    6.32
   5  -7  -5  159.02    4.28
  -5   7   5  171.90    6.12
   5  -7  -4   17.62    1.89
  -5   7   4   14.50    1.74
   5  -7  -3    1.44    0.97
  -5   7   3    2.15    1.00
   5  -7  -3    2.38    0.64
   5  -7  -2   42.16    2.81
  -5   7   2   50.58    3.07
   5  -7  -2   45.44    2.30
   5  -7  -2   43.41    1.56
   5  -7  -1   63.03    3.42
   5  -7  -1   62.46    2.90
   5  -7  -1   66.46    2.28
  -5   7   1   57.62    3.31
   5  -7   0   71.57    3.60
   5  -7   0   70.54    2.65
   5  -7   0   69.93    3.23
  -5   7   0   69.78    3.62
   5  -7   1  204.65    6.47
  -5   7  -1  187.17    6.36
   5  -7   1  191.07    5.31
   5  -7   1  187.72    6.06
   5  -7   2   -0.28    0.72
  -5   7  -2    0.67    0.92
   5  -7   2    1.49    0.96
   5  -7   2   -0.19    0.62
   5  -7   3   62.61    3.31
   5  -7   3   67.71    3.62
  -5   7  -3   66.59    3.46
   5  -7   4    0.67    0.85
   5  -7   4    1.30    0.97
  -5   7  -4    1.13    0.78
   5  -7   5  126.06    4.76
   5  -7   5  114.23    5.23
  -5   7  -5  113.29    4.63
  -5   7  -6   14.13    1.91
   5  -7   6   17.75    1.73
   5  -7   6   17.53    2.17
  -5   7  -6   16.90    1.75
   5  -7   7    6.98    1.20
  -5   7  -7    5.09    1.43
   5  -7   7    6.97    1.53
  -5   7  -7    4.95    1.01
  -5   7  -8    2.11    1.12
   5  -7   8    2.97    2.23
  -5   7  -9    2.90    1.32
  -5   7 -10   -0.83    1.24
   5  -6 -16   28.64    2.92
   5  -6 -15    2.70    1.60
  -5   6  15    0.54    0.90
   5  -6 -14   13.23    1.97
  -5   6  14   15.04    1.95
  -5   6  14   17.48    2.38
   5  -6 -13   24.38    2.69
  -5   6  13   24.66    2.29
  -5   6  13   26.06    2.61
   5  -6 -12    1.02    0.96
  -5   6  12    1.67    1.00
  -5   6  12    2.05    1.16
   5  -6 -11   98.65    4.85
  -5   6  11  105.65    5.03
  -5   6  11   99.32    4.56
   5  -6 -10    1.94    1.10
  -5   6  10    3.04    1.13
  -5   6  10    3.92    1.10
   5  -6  -9   41.19    2.99
  -5   6   9   41.14    2.97
  -5   6   9   41.50    2.81
   5  -6  -8    0.76    0.83
   5  -6  -8    0.82    0.35
  -5   6   8   -0.26    0.74
  -5   6   8   -1.40    1.10
   5  -6  -7   -0.06    0.91
   5  -6  -7    0.44    0.37
  -5   6   7    0.14    0.77
  -5   6   7    1.32    0.88
   5  -6  -6    9.47    1.49
   5  -6  -6    8.04    0.77
  -5   6   6    7.13    1.28
   5  -6  -5    2.07    0.93
   5  -6  -5    0.94    0.48
  -5   6   5    1.69    0.99
  -5   6   4   -0.04    0.73
   5  -6  -4    4.93    1.21
  -5   6   3    0.09    0.75
   5  -6  -3    0.14    0.79
  -5   6   2  113.16    4.58
   5  -6  -2  119.87    4.70
   5  -6  -2  113.00    2.88
   5  -6  -1   13.35    1.65
   5  -6  -1   11.48    0.90
  -5   6   1   14.18    1.58
   5  -6   0  101.45    4.24
   5  -6   0   99.01    3.20
  -5   6   0  104.25    4.31
   5  -6   1   57.68    3.12
   5  -6   1   56.78    2.45
   5  -6   1   60.08    2.98
  -5   6  -1   53.93    3.01
   5  -6   2   58.91    3.10
   5  -6   2   55.34    2.58
   5  -6   2   54.50    2.98
  -5   6  -2   54.76    3.04
   5  -6   3   48.22    2.81
   5  -6   3   49.22    2.56
   5  -6   3   52.61    3.03
  -5   6  -3   51.46    2.91
   5  -6   4   14.53    1.73
  -5   6  -4   14.16    1.54
   5  -6   4   13.23    1.57
   5  -6   5   24.59    2.00
  -5   6  -5   22.40    2.11
   5  -6   5   29.89    2.46
  -5   6  -5   25.21    2.01
  -5   6  -6   11.46    1.58
   5  -6   6    9.91    1.64
   5  -6   6   11.34    1.40
  -5   6  -6   10.98    1.41
  -5   6  -7   25.44    2.31
   5  -6   7   26.33    2.09
   5  -6   7   30.46    2.73
  -5   6  -7   33.50    2.28
  -5   6  -8   12.04    1.82
   5  -6   8   13.16    1.94
   5  -6   8   12.09    1.40
  -5   6  -9    2.68    1.31
   5  -6   9    4.81    1.51
  -5   6 -10    6.77    1.50
  -5   6 -11    3.48    1.53
   5  -5 -16   72.62    4.37
   5  -5 -15    4.96    1.57
  -5   5  14   41.76    3.27
  -5   5  14   32.57    2.54
   5  -5 -14   37.30    3.07
  -5   5  13   14.51    1.70
  -5   5  13   15.54    2.13
   5  -5 -13   13.19    1.88
  -5   5  12    8.69    1.46
  -5   5  12    7.74    1.54
   5  -5 -12    4.09    1.20
  -5   5  11   17.13    1.82
  -5   5  11   20.30    2.12
   5  -5 -11   17.33    2.01
  -5   5  10    8.13    1.35
  -5   5  10    5.60    1.34
   5  -5 -10   10.43    1.61
  -5   5  10    6.98    0.48
   5  -5  -9   10.80    1.62
   5  -5  -9    9.47    0.85
  -5   5   9    7.36    1.35
  -5   5   9    7.68    1.24
   5  -5  -8    2.48    1.08
   5  -5  -8    2.76    0.52
  -5   5   8    2.97    1.20
  -5   5   8    3.03    0.99
   5  -5  -7    1.00    0.91
  -5   5   7    2.48    1.04
  -5   5   7    0.59    0.74
   5  -5  -7    0.20    0.38
   5  -5  -6   43.02    2.76
  -5   5   6   46.01    2.81
  -5   5   6   44.23    2.71
   5  -5  -6   39.14    1.75
  -5   5   6   46.92    2.53
   5  -5  -5   84.66    3.91
   5  -5  -5   82.56    2.78
  -5   5   5   90.38    3.90
  -5   5   5   90.57    3.92
   5  -5  -4   38.90    2.55
   5  -5  -4   30.81    1.66
  -5   5   4   39.61    2.50
  -5   5   3   43.12    2.63
   5  -5  -3   41.77    2.64
  -5   5   2   53.57    2.90
   5  -5  -2   52.39    2.90
   5  -5  -2   51.68    1.72
  -5   5   1    2.49    0.90
   5  -5  -1    2.15    0.90
   5  -5  -1    1.08    0.37
   5  -5   0  103.18    4.14
   5  -5   0  100.57    3.14
  -5   5   0   99.79    4.07
   5  -5   1   21.67    1.85
   5  -5   1   20.19    1.39
  -5   5  -1   20.08    1.76
   5  -5   2   51.40    2.80
   5  -5   2   46.59    2.29
  -5   5  -2   46.23    2.68
   5  -5   3   56.38    2.97
   5  -5   3   59.14    3.09
   5  -5   3   51.59    2.57
  -5   5  -3   53.77    2.86
   5  -5   4  119.31    4.47
   5  -5   4  109.76    4.16
   5  -5   4  119.71    4.74
  -5   5  -4  116.41    4.37
  -5   5  -5   14.16    1.56
   5  -5   5   13.34    1.70
   5  -5   5   14.12    1.55
  -5   5  -5   14.82    1.46
  -5   5  -6    4.77    1.13
   5  -5   6    4.79    1.28
  -5   5  -6    5.39    1.06
   5  -5   6    3.52    0.95
   5  -5   6    2.71    0.85
  -5   5  -7   11.58    1.55
   5  -5   7    6.97    1.37
   5  -5   7    9.07    1.29
  -5   5  -7    7.55    1.16
  -5   5  -8    0.08    1.00
   5  -5   8   -0.11    1.02
   5  -5   8   -0.35    0.67
  -5   5  -8    1.59    0.64
  -5   5  -9   -0.33    0.95
   5  -5   9   -0.51    1.45
   5  -5   9   -0.65    0.79
  -5   5 -10    2.01    1.04
   5  -5  10    1.58    1.21
  -5   5 -11   13.94    1.94
  -5   5 -12   19.00    2.28
   5  -4 -16    2.79    1.21
   5  -4 -15   47.92    3.42
  -5   4  14   32.00    2.42
  -5   4  14   32.20    2.93
   5  -4 -14   27.57    2.61
  -5   4  13   49.23    3.42
  -5   4  13   47.63    2.92
   5  -4 -13   49.40    3.28
  -5   4  12    8.78    1.38
  -5   4  12   10.26    1.73
   5  -4 -12    8.46    1.48
  -5   4  11   31.43    2.63
  -5   4  11   34.73    2.43
   5  -4 -11   33.90    2.60
   5  -4 -10    9.96    1.57
  -5   4  10    8.33    1.29
  -5   4  10    7.93    1.41
   5  -4 -10    9.36    0.97
  -5   4  10    9.06    0.77
   5  -4  -9    2.15    1.00
  -5   4   9    1.16    0.74
  -5   4   9    0.58    0.86
   5  -4  -9    0.59    0.43
  -5   4   9    1.56    0.39
   5  -4  -8    5.28    1.19
  -5   4   8    7.84    1.26
  -5   4   8    6.71    1.34
   5  -4  -8    7.29    0.82
  -5   4   8    6.52    0.53
  -5   4   8    7.86    0.54
   5  -4  -7    3.58    1.11
  -5   4   7    3.87    0.91
  -5   4   7    4.58    0.99
  -5   4   7    2.87    1.09
   5  -4  -7    4.02    0.64
  -5   4   7    3.19    0.31
  -5   4   7    4.21    0.33
   5  -4  -6   17.60    1.80
  -5   4   6   21.00    1.84
  -5   4   6   20.83    1.88
   5  -4  -6   17.95    1.19
  -5   4   6   17.56    1.51
   5  -4  -5  122.62    4.69
  -5   4   5  126.67    4.61
  -5   4   5  132.45    4.71
   5  -4  -5  122.48    3.62
  -5   4   5  135.77    4.67
  -5   4   5  129.47    4.23
   5  -4  -4    4.38    1.01
  -5   4   4    4.67    0.95
  -5   4   4    5.87    1.06
   5  -4  -4    5.40    0.74
  -5   4   4    6.36    0.40
  -5   4   4    5.99    1.06
   5  -4  -3   25.78    2.01
   5  -4  -3   30.99    2.05
  -5   4   3   29.63    2.09
  -5   4   3   26.48    1.02
  -5   4   3   30.61    2.09
   5  -4  -2   20.29    1.80
   5  -4  -2   21.82    1.70
  -5   4   2   19.30    1.71
  -5   4   2   21.51    1.03
   5  -4  -1   27.93    2.09
   5  -4  -1   23.97    1.88
   5  -4  -1   28.37    1.94
  -5   4   1   29.90    2.05
  -5   4   1   26.51    1.29
   5  -4  -1   24.73    1.28
   5  -4   0   20.33    1.78
  -5   4   0   17.74    1.18
   5  -4   0   17.17    1.16
  -5   4   0   17.48    1.59
   5  -4   0   21.14    1.75
   5  -4   0   18.81    1.56
   5  -4   1   74.24    3.34
  -5   4  -1   73.84    2.71
   5  -4   1   71.73    2.68
   5  -4   1   79.11    3.40
   5  -4   1   73.80    3.22
  -5   4  -1   70.71    3.23
   5  -4   2   30.23    2.16
   5  -4   2   34.39    1.88
   5  -4   2   35.13    2.21
   5  -4   2   36.92    2.23
  -5   4  -2   35.22    2.23
   5  -4   3  200.09    6.05
   5  -4   3  203.31    5.96
  -5   4  -3  203.55    5.97
   5  -4   3  190.67    5.53
  -5   4  -4   13.86    1.44
   5  -4   4   13.81    1.39
   5  -4   4   13.91    1.38
  -5   4  -5   79.12    3.40
   5  -4   5   82.74    3.91
   5  -4   5   76.28    3.30
  -5   4  -5   81.13    3.40
  -5   4  -6    6.43    1.16
   5  -4   6    5.71    1.28
  -5   4  -6    6.63    1.03
   5  -4   6    7.79    1.12
  -5   4  -7   47.08    2.78
   5  -4   7   46.76    3.12
  -5   4  -7   45.48    2.44
   5  -4   7   44.41    2.42
  -5   4  -8   25.22    2.14
   5  -4   8   26.83    2.54
  -5   4  -9    1.08    0.88
   5  -4   9    3.06    1.25
  -5   4 -10    4.23    1.21
   5  -4  10    4.46    1.27
  -5   4 -11   14.10    1.95
   5  -4  11   11.71    1.85
  -5   4 -12   -0.82    0.99
  -5   4 -13   25.89    2.68
   5  -3 -16    9.62    1.72
   5  -3 -15   32.88    2.78
   5  -3 -14   35.04    2.76
  -5   3  14   35.41    2.45
  -5   3  14   35.90    3.01
   5  -3 -13   44.28    3.03
  -5   3  13   50.32    2.58
  -5   3  13   44.05    2.72
  -5   3  13   46.55    3.35
   5  -3 -12    2.91    1.12
  -5   3  12    1.30    0.82
  -5   3  12    0.09    1.00
  -5   3  12    1.87    0.74
   5  -3 -11   68.44    3.60
  -5   3  11   68.52    3.81
  -5   3  11   73.04    3.42
   5  -3 -11   67.78    2.94
  -5   3  11   72.08    2.93
  -5   3  11   71.57    2.75
  -5   3  11   64.43    2.96
   5  -3 -10    3.89    1.08
  -5   3  10    6.42    1.15
  -5   3  10    4.67    1.30
   5  -3 -10    4.65    0.84
  -5   3  10    5.07    0.89
  -5   3  10    4.51    0.76
   5  -3  -9   31.53    2.34
  -5   3   9   34.59    2.52
  -5   3   9   32.51    2.22
   5  -3  -9   30.61    1.78
  -5   3   9   32.61    1.55
  -5   3   9   32.62    2.09
   5  -3  -8   -0.68    0.80
  -5   3   8   -0.16    0.55
  -5   3   8    0.69    0.74
  -5   3   8    0.48    0.79
   5  -3  -8    0.66    0.46
  -5   3   8   -0.36    0.58
   5  -3  -7    4.33    1.04
  -5   3   7    2.04    0.76
  -5   3   7    2.57    0.78
  -5   3   7    1.27    0.82
   5  -3  -7    1.98    0.57
  -5   3   7    2.78    0.79
  -5   3   7    2.24    0.46
   5  -3  -6   14.69    1.58
  -5   3   6   16.13    1.42
  -5   3   6   17.63    1.62
  -5   3   6   16.77    1.64
   5  -3  -6   14.79    1.47
   5  -3  -6   16.18    1.16
  -5   3   6   15.26    1.45
  -5   3   6   15.77    0.88
   5  -3  -5    7.54    1.23
  -5   3   5    8.10    0.97
  -5   3   5    9.42    1.27
  -5   3   5    7.89    1.13
   5  -3  -5    8.50    1.15
  -5   3   5    7.74    0.60
   5  -3  -5    7.91    0.84
  -5   3   5    8.26    1.14
   5  -3  -4   66.80    3.16
   5  -3  -4   70.63    3.18
  -5   3   4   67.47    3.03
   5  -3  -4   68.52    3.04
  -5   3   4   62.55    3.02
   5  -3  -4   59.71    2.39
  -5   3   4   68.44    1.87
  -5   3   4   61.68    2.54
  -5   3   4   66.86    2.98
  -5   3   3    9.45    1.23
   5  -3  -3    8.69    1.25
  -5   3   3    9.88    1.20
   5  -3  -3    8.17    1.07
   5  -3  -3    9.45    1.22
  -5   3   3   11.00    0.72
   5  -3  -3    8.41    0.93
  -5   3   3   10.58    1.27
   5  -3  -2  101.39    3.92
   5  -3  -2  104.25    3.95
   5  -3  -2  103.88    3.73
  -5   3   2  101.66    3.87
  -5   3   2  102.75    2.74
  -5   3   2  103.79    3.87
   5  -3  -1   11.48    1.26
  -5   3   1   11.07    1.31
   5  -3  -1   12.64    1.43
   5  -3  -1   12.19    1.23
  -5   3   1   11.78    0.88
   5  -3  -1   11.09    0.88
  -5   3   1   10.60    1.25
   5  -3   0  124.98    4.35
   5  -3   0  125.50    4.29
   5  -3   0  117.78    3.99
  -5   3   0  119.46    4.19
   5  -3   0  110.11    3.33
  -5   3   0  117.28    3.35
  -5   3   0  116.51    4.23
   5  -3   1   80.85    3.41
   5  -3   1   80.35    3.34
   5  -3   1   78.33    3.13
  -5   3  -1   79.60    3.32
   5  -3   1   72.49    2.69
  -5   3  -1   81.90    2.78
  -5   3  -1   82.10    3.45
   5  -3   1   73.65    3.31
   5  -3   2   29.06    1.89
   5  -3   2   33.87    2.07
  -5   3  -2   30.62    2.02
   5  -3   2   29.74    1.72
  -5   3  -2   27.78    1.65
  -5   3  -2   29.64    2.03
   5  -3   2   26.34    1.96
   5  -3   3  339.23    8.31
  -5   3  -3  324.47    8.16
  -5   3  -3  337.48    7.94
   5  -3   3  319.65    7.85
  -5   3  -3  339.08    8.58
   5  -3   3  326.51    8.46
  -5   3  -4    4.41    0.87
   5  -3   4    4.00    0.86
  -5   3  -4    3.50    0.83
   5  -3   4    3.09    0.95
   5  -3   4    2.64    0.73
  -5   3  -5  156.94    4.82
  -5   3  -5  150.74    4.84
   5  -3   5  159.90    4.94
   5  -3   5  160.80    5.16
   5  -3   5  157.04    5.28
  -5   3  -6    9.87    1.19
   5  -3   6    8.78    1.13
  -5   3  -6    9.38    1.18
   5  -3   6    8.65    1.25
  -5   3  -7   34.06    2.27
  -5   3  -7   36.44    2.15
   5  -3   7   39.18    2.15
   5  -3   7   41.29    2.85
   5  -3   7   40.30    2.53
  -5   3  -8   15.55    1.66
   5  -3   8   14.13    1.34
   5  -3   8   15.17    1.84
   5  -3   8   13.99    1.63
  -5   3  -9    1.13    0.86
   5  -3   9   -0.04    0.91
   5  -3   9    2.75    0.92
  -5   3 -10   -0.54    0.94
   5  -3  10    0.40    1.10
   5  -3  10   -0.05    0.81
  -5   3 -11    2.18    1.03
   5  -3  11    0.32    1.11
   5  -3  11    0.02    0.79
  -5   3 -12    9.58    1.67
   5  -3  12    8.51    1.77
  -5   3 -13   30.66    2.76
   5  -2 -15    5.23    1.32
   5  -2 -14   50.31    3.18
  -5   2  14   51.92    2.93
  -5   2  14   53.98    3.80
   5  -2 -13   15.64    1.84
  -5   2  13   20.87    1.78
  -5   2  13   21.21    2.30
   5  -2 -12    7.34    1.31
  -5   2  12   11.80    1.38
  -5   2  12   11.53    1.75
  -5   2  12    9.55    1.30
   5  -2 -11   65.54    3.37
  -5   2  11   66.15    3.18
  -5   2  11   66.77    3.73
  -5   2  11   70.38    2.94
   5  -2 -11   64.26    2.99
  -5   2  11   61.74    2.89
  -5   2  11   65.63    2.78
   5  -2 -10   -0.80    0.79
  -5   2  10    0.83    0.74
   5  -2 -10    1.82    0.65
  -5   2  10    2.77    1.12
  -5   2  10    2.48    0.76
   5  -2 -10    1.90    0.70
  -5   2  10    1.78    0.73
   5  -2  -9    3.42    1.01
  -5   2   9    3.42    0.87
   5  -2  -9    5.17    1.03
  -5   2   9    2.74    0.89
   5  -2  -9    3.06    0.76
  -5   2   9    3.14    0.76
  -5   2   9    4.05    0.85
  -5   2   8   -0.27    0.53
   5  -2  -8   -1.12    0.76
  -5   2   8   -0.77    0.77
   5  -2  -8   -0.08    0.58
  -5   2   8   -0.48    0.78
   5  -2  -8   -0.48    0.55
  -5   2   8    0.26    0.59
   5  -2  -7    1.12    0.87
  -5   2   7    2.56    0.76
  -5   2   7    2.22    0.78
  -5   2   7    1.95    0.89
   5  -2  -7    1.88    0.76
   5  -2  -7    0.96    0.46
  -5   2   7    2.01    0.61
   5  -2  -6    1.57    0.79
  -5   2   6    0.35    0.46
   5  -2  -6    0.33    0.66
  -5   2   6    0.54    0.68
  -5   2   6    2.00    0.84
   5  -2  -6    1.22    0.50
  -5   2   6    0.90    0.59
   5  -2  -5    1.87    0.81
  -5   2   5    3.26    0.68
   5  -2  -5    2.04    0.76
  -5   2   5    1.73    0.77
  -5   2   5    1.48    0.80
   5  -2  -5    1.35    0.50
  -5   2   5    1.47    0.69
  -5   2   5    2.00    0.46
   5  -2  -4    4.06    1.02
  -5   2   4    1.97    0.55
   5  -2  -4    1.21    0.66
  -5   2   4    3.41    0.87
  -5   2   4    3.04    0.85
   5  -2  -4    2.04    0.64
  -5   2   4    2.08    0.70
  -5   2   4    1.27    0.43
   5  -2  -3   14.85    1.40
   5  -2  -3   16.73    1.52
  -5   2   3   15.49    1.49
  -5   2   3   14.53    1.34
   5  -2  -3   14.29    1.30
  -5   2   3   14.87    0.91
   5  -2  -3   14.99    1.18
  -5   2   3   16.97    1.47
  -5   2   3   16.32    1.12
   5  -2  -2  364.71    8.70
  -5   2   2  338.92    8.16
   5  -2  -2  359.82    8.61
   5  -2  -2  357.50    8.25
  -5   2   2  347.26    8.53
  -5   2   2  343.37    7.16
  -5   2   2  368.41    8.56
   5  -2  -1   39.22    2.30
   5  -2  -1   42.90    2.31
   5  -2  -1   41.19    2.07
  -5   2   1   40.45    2.29
  -5   2   1   38.06    1.61
  -5   2   1   39.99    2.23
   5  -2  -1   37.24    1.64
   5  -2  -1   39.92    2.28
   5  -2   0   34.01    2.02
   5  -2   0   34.48    1.87
  -5   2   0   32.99    2.01
  -5   2   0   33.83    1.58
   5  -2   0   30.55    2.00
  -5   2   0   39.39    2.18
   5  -2   0   32.57    1.59
   5  -2   1    8.98    1.11
   5  -2   1    6.79    0.89
  -5   2  -1    7.50    1.06
   5  -2   1    6.86    1.10
  -5   2  -1    8.99    1.15
  -5   2  -1    6.90    0.84
   5  -2   1    7.02    0.80
   5  -2   2  201.91    5.41
   5  -2   2  199.63    5.64
  -5   2  -2  192.66    5.60
  -5   2  -2  197.10    5.18
   5  -2   2  194.92    5.21
   5  -2   2  196.78    5.81
  -5   2  -2  211.11    5.95
   5  -2   3   86.16    3.35
  -5   2  -3   90.61    3.45
   5  -2   3   90.22    3.28
  -5   2  -3   92.88    3.30
   5  -2   3   87.01    3.57
  -5   2  -3   95.41    3.70
  -5   2  -4   93.12    3.18
  -5   2  -4   97.62    3.59
   5  -2   4  100.73    3.61
  -5   2  -4   99.32    3.63
   5  -2   4  103.63    3.71
   5  -2   4   97.96    3.84
  -5   2  -4  106.25    3.97
  -5   2  -5  115.74    3.80
  -5   2  -5  119.00    4.06
   5  -2   5  124.02    4.07
  -5   2  -5  121.23    4.30
   5  -2   5  121.09    4.27
   5  -2   5  121.89    4.41
  -5   2  -5  127.84    4.50
  -5   2  -6   57.59    2.62
  -5   2  -6   61.76    2.72
   5  -2   6   56.20    2.57
  -5   2  -6   56.24    2.92
   5  -2   6   62.32    3.05
   5  -2   7   12.83    1.25
  -5   2  -7    9.94    1.24
   5  -2   7   12.13    1.42
  -5   2  -7   10.91    1.44
  -5   2  -8   54.10    2.82
   5  -2   8   56.77    2.51
   5  -2   8   56.55    3.35
   5  -2   8   54.12    2.93
  -5   2  -9   18.64    1.76
   5  -2   9   26.20    1.64
   5  -2   9   26.72    2.41
   5  -2   9   22.29    1.94
  -5   2 -10    1.49    0.78
   5  -2  10    3.50    1.32
   5  -2  10    3.43    1.02
  -5   2 -11   11.43    1.66
   5  -2  11   12.50    1.88
   5  -2  11   12.20    1.58
  -5   2 -12   16.15    1.96
   5  -2  12   14.08    2.09
   5  -2  12   18.37    1.81
  -5   2 -13    5.15    1.56
   5  -2  13    4.46    1.59
   5  -2  13    3.89    1.17
  -5   2 -14   60.23    3.90
  -5   1  15   49.73    3.14
   5  -1 -14    5.53    1.22
  -5   1  14    5.65    1.26
  -5   1  14    8.36    1.65
   5  -1 -13   55.31    3.12
  -5   1  13   60.83    3.22
  -5   1  13   59.97    3.81
   5  -1 -12    6.22    1.13
  -5   1  12    8.38    1.60
  -5   1  12    7.60    1.21
   5  -1 -11   20.76    1.88
   5  -1 -11   18.65    1.61
  -5   1  11   19.58    2.10
  -5   1  11   23.52    1.88
   5  -1 -11   19.31    1.73
  -5   1  11   25.12    1.50
   5  -1 -10   39.92    2.50
  -5   1  10   42.74    2.42
   5  -1 -10   41.08    2.36
  -5   1  10   40.76    2.80
  -5   1  10   39.55    2.32
   5  -1 -10   40.75    2.37
  -5   1  10   43.46    2.05
   5  -1  -9    3.07    0.99
  -5   1   9    4.68    0.92
   5  -1  -9    3.65    0.89
  -5   1   9    3.01    0.93
   5  -1  -9    4.70    0.83
  -5   1   9    3.73    0.80
  -5   1   9    4.65    0.81
  -5   1   8    1.87    0.66
   5  -1  -8    1.54    0.74
   5  -1  -8    3.49    0.89
  -5   1   8    1.24    0.63
  -5   1   8    1.60    0.80
   5  -1  -8    2.66    0.70
  -5   1   8    1.48    0.64
  -5   1   8    1.58    0.60
  -5   1   7   30.69    1.90
   5  -1  -7   32.82    2.13
  -5   1   7   30.11    1.97
   5  -1  -7   27.67    1.87
  -5   1   7   32.70    2.20
  -5   1   7   31.95    1.83
   5  -1  -7   30.91    1.85
  -5   1   7   29.21    1.75
  -5   1   6    7.14    0.92
   5  -1  -6    5.62    0.98
   5  -1  -6    8.99    1.12
  -5   1   6    7.50    1.07
  -5   1   6    7.74    1.13
   5  -1  -6    8.11    0.96
  -5   1   6    8.48    1.01
   5  -1  -5   88.38    3.49
  -5   1   5   89.02    3.04
   5  -1  -5   97.44    3.58
  -5   1   5   88.89    3.45
  -5   1   5   92.53    3.51
   5  -1  -5   86.88    3.09
  -5   1   5   88.85    3.24
  -5   1   4    3.16    0.58
  -5   1   4    3.86    0.87
   5  -1  -4    2.88    0.73
   5  -1  -4    2.88    0.89
  -5   1   4    3.80    0.83
   5  -1  -4    3.42    0.69
  -5   1   4    4.68    0.84
  -5   1   4    3.34    0.62
  -5   1   3   16.88    1.08
   5  -1  -3   16.51    1.39
   5  -1  -3   18.39    1.56
  -5   1   3   15.92    1.36
  -5   1   3   18.95    1.52
   5  -1  -3   15.81    1.23
   5  -1  -3   15.92    1.41
  -5   1   3   15.72    1.31
  -5   1   3   17.14    1.08
  -5   1   2    4.06    0.54
  -5   1   2    4.17    0.90
   5  -1  -2    5.00    0.87
   5  -1  -2    3.47    0.94
  -5   1   2    3.32    0.74
   5  -1  -2    4.60    0.79
   5  -1  -2    2.67    0.66
   5  -1  -2    2.98    0.80
  -5   1   2    4.01    0.61
  -5   1   2    4.79    0.83
  -5   1   1  188.50    5.04
   5  -1  -1  201.04    5.53
   5  -1  -1  188.13    5.02
  -5   1   1  190.80    5.46
  -5   1   1  188.86    4.61
  -5   1   1  201.33    5.46
   5  -1  -1  188.94    5.37
   5  -1   0  308.11    7.08
   5  -1   0  319.11    7.63
  -5   1   0  319.20    7.65
  -5   1   0  314.09    6.82
   5  -1   0  297.63    7.56
   5  -1   0  296.93    6.82
  -5   1   0  319.79    7.68
  -5   1  -1   51.23    2.45
   5  -1   1   50.98    2.15
   5  -1   1   50.46    2.40
  -5   1  -1   49.95    2.08
   5  -1   1   44.61    2.33
   5  -1   1   48.25    2.07
  -5   1  -1   50.51    2.49
  -5   1  -2  631.09   13.29
   5  -1   2  628.22   12.73
   5  -1   2  647.97   13.35
   5  -1   2  639.45   12.90
  -5   1  -2  642.47   12.86
   5  -1   2  634.30   13.50
  -5   1  -2  667.45   13.63
  -5   1  -3   17.53    1.08
  -5   1  -3   18.60    1.50
   5  -1   3   18.36    1.45
   5  -1   3   16.49    1.33
  -5   1  -3   17.82    1.38
   5  -1   3   16.18    1.51
  -5   1  -3   21.20    1.61
  -5   1  -4  209.86    5.04
  -5   1  -4  196.33    5.60
   5  -1   4  209.16    5.65
   5  -1   4  209.56    5.76
  -5   1  -4  202.73    5.65
   5  -1   4  206.74    5.93
  -5   1  -4  218.95    6.08
   5  -1   5    8.60    1.25
  -5   1  -5    7.43    0.85
  -5   1  -5    7.76    1.14
   5  -1   5    7.32    1.14
   5  -1   5    7.80    1.03
  -5   1  -5    7.74    1.05
  -5   1  -6   36.77    1.92
   5  -1   6   36.74    1.98
  -5   1  -6   35.75    2.28
   5  -1   6   41.68    2.41
   5  -1   6   35.08    2.23
  -5   1  -6   41.63    2.41
  -5   1  -7   41.28    2.17
   5  -1   7   41.40    2.09
  -5   1  -7   40.40    2.51
   5  -1   7   41.89    2.45
   5  -1   8   18.88    1.39
  -5   1  -8   17.30    1.52
  -5   1  -8   18.18    1.84
   5  -1   8   17.19    1.64
  -5   1  -9   12.19    1.41
   5  -1   9   11.36    1.09
   5  -1   9   12.59    1.72
  -5   1  -9   11.22    1.61
   5  -1   9   10.38    1.39
  -5   1 -10    9.79    1.46
   5  -1  10   11.15    1.71
   5  -1  10   10.29    1.37
  -5   1 -11   57.50    3.24
   5  -1  11   56.47    3.68
   5  -1  11   59.84    3.16
  -5   1 -12    2.45    1.00
   5  -1  12    6.25    1.52
   5  -1  12    3.62    1.03
  -5   1 -13   57.09    3.58
   5  -1  13   63.38    4.18
   5  -1  13   62.33    3.32
  -5   1 -14    1.90    1.12
  -5   1 -15   51.91    3.66
  -5   0  16   33.91    2.86
   5   0 -15   24.88    2.60
  -5   0  15   33.18    2.69
   5   0 -14   17.85    2.13
  -5   0  14   18.03    2.06
   5   0 -13   90.31    3.87
  -5   0  13   89.36    4.13
   5   0 -13   86.38    4.48
   5   0 -12    0.36    0.73
   5   0 -12   -0.23    0.90
  -5   0  12    1.68    0.99
   5   0 -11   58.60    2.96
   5   0 -11   58.85    2.77
  -5   0  11   57.34    3.05
   5   0 -11   55.64    3.23
   5   0 -10   26.92    1.97
   5   0 -10   29.42    1.95
   5   0 -10   29.36    2.12
  -5   0  10   29.02    2.06
  -5   0  10   31.22    1.54
   5   0 -10   24.28    2.08
   5   0  -9  129.10    4.45
   5   0  -9  123.34    4.23
   5   0  -9  116.43    4.32
  -5   0   9  126.45    4.38
  -5   0   9  124.68    3.60
   5   0  -9  122.57    4.54
  -5   0   8    1.54    0.72
   5   0  -8    2.30    0.80
   5   0  -8    0.73    0.72
   5   0  -8    2.24    0.73
   5   0  -8    2.41    0.75
  -5   0   8    1.41    0.70
  -5   0   8    1.21    0.54
   5   0  -7    2.42    0.90
  -5   0   7    3.16    0.72
   5   0  -7    2.88    0.70
  -5   0   7    3.29    0.84
  -5   0   7    3.09    0.93
   5   0  -7    2.91    0.74
  -5   0   7    1.93    0.74
  -5   0   7    2.43    0.60
  -5   0   6    9.42    1.01
   5   0  -6    8.98    1.12
  -5   0   6   12.51    1.30
   5   0  -6    9.93    1.17
  -5   0   6   10.64    1.30
   5   0  -6    9.09    1.15
  -5   0   6   10.57    1.15
  -5   0   6   10.32    1.02
   5   0  -5   53.12    2.54
  -5   0   5   53.60    2.22
  -5   0   5   54.09    2.55
   5   0  -5   57.74    2.59
  -5   0   5   49.35    2.46
  -5   0   5   54.70    2.43
   5   0  -5   52.89    2.38
  -5   0   5   52.34    2.25
  -5   0   4    0.01    0.39
   5   0  -4   -0.06    0.63
  -5   0   4    0.96    0.66
   5   0  -4   -0.22    0.57
  -5   0   4    0.39    0.58
   5   0  -4    0.63    0.54
   5   0  -4    0.37    0.63
  -5   0   4   -0.26    0.49
   5   0  -3  403.44    9.07
  -5   0   3  378.07    7.88
  -5   0   3  403.49    9.14
  -5   0   3  392.05    8.68
   5   0  -3  405.15    9.08
   5   0  -3  394.51    8.73
   5   0  -3  383.81    8.70
  -5   0   3  387.66    8.72
  -5   0   3  396.27    8.25
  -5   0   2   38.30    1.43
  -5   0   2   43.15    2.25
  -5   0   2   43.00    2.00
   5   0  -2   41.58    2.15
   5   0  -2   42.08    2.03
   5   0  -2   39.16    2.05
  -5   0   2   41.39    2.08
  -5   0   2   40.62    1.78
  -5   0   1   78.62    2.09
  -5   0   1   86.42    3.20
  -5   0   1   80.11    2.75
   5   0  -1   88.03    3.23
   5   0  -1   83.44    3.01
  -5   0   1   82.22    2.67
   5   0  -1   79.82    3.05
  -5   0   1   81.17    3.04
  -5   0   0  172.98    5.00
   5   0   0  167.63    4.37
   5   0   0  171.76    4.91
  -5   0   0  176.89    4.45
  -5   0   0  180.44    4.99
   5   0   0  161.02    4.39
   5   0   0  161.46    4.80
  -5   0  -1  419.15    9.37
   5   0   1  402.64    8.51
   5   0   1  429.92    9.36
  -5   0  -1  410.36    8.76
   5   0   1  401.37    8.80
   5   0   1  407.94    9.31
  -5   0  -1  426.55    9.42
  -5   0  -2  271.14    5.52
  -5   0  -2  283.47    6.99
   5   0   2  269.75    6.20
   5   0   2  293.37    6.99
  -5   0  -2  279.58    6.62
   5   0   2  287.95    6.71
   5   0   2  282.38    7.05
  -5   0  -2  293.36    7.14
  -5   0  -3  260.85    5.42
   5   0   3  255.68    5.92
   5   0   3  260.60    6.56
  -5   0  -3  254.29    6.42
   5   0   3  264.67    6.52
   5   0   3  259.35    6.74
  -5   0  -3  277.98    6.93
  -5   0  -4  152.66    3.75
   5   0   4  147.13    4.47
   5   0   4  154.86    4.65
  -5   0  -4  148.36    4.56
   5   0   4  153.08    4.79
  -5   0  -4  156.89    4.85
  -5   0  -5  131.75    3.58
   5   0   5  127.54    4.04
   5   0   5  135.83    4.42
  -5   0  -5  124.11    4.26
   5   0   5  128.28    4.38
  -5   0  -5  134.22    4.47
  -5   0  -6   24.76    1.46
   5   0   6   21.29    1.53
   5   0   6   25.79    1.87
  -5   0  -6   24.50    1.83
   5   0   6   22.73    1.77
  -5   0  -6   24.84    1.85
  -5   0  -7   59.94    2.51
   5   0   7   56.03    2.46
  -5   0  -7   60.88    3.03
   5   0   7   61.17    2.94
  -5   0  -7   64.72    3.05
   5   0   8    0.81    0.46
  -5   0  -8    1.14    0.59
  -5   0  -8    0.38    0.73
   5   0   8   -0.35    0.74
   5   0   9   13.75    1.13
  -5   0  -9   14.16    1.47
  -5   0  -9   15.77    1.78
   5   0   9   15.07    1.55
   5   0  10   13.50    1.10
  -5   0 -10   15.00    1.59
  -5   0 -10   13.53    1.75
   5   0  10   12.98    1.49
  -5   0 -11   51.66    2.97
   5   0  11   53.22    3.42
   5   0  11   51.38    2.92
  -5   0 -12    1.04    0.89
   5   0  12    2.48    1.09
   5   0  12    2.44    0.86
  -5   0 -13   96.90    4.60
   5   0  13  100.56    5.18
   5   0  13  102.86    4.34
  -5   0 -14   47.96    3.30
   5   0  14   54.78    3.87
   5   0  14   50.40    2.99
  -5   0 -15   31.63    2.90
  -5  -1  16   22.99    2.53
   5   1 -15    9.47    1.81
  -5  -1  15    8.54    1.77
  -5  -1  14   37.20    2.89
   5   1 -14   36.21    3.08
   5   1 -13   29.06    2.03
   5   1 -13   25.27    2.56
  -5  -1  13   31.31    2.53
   5   1 -12  136.77    4.60
  -5  -1  12  129.37    5.16
   5   1 -12  127.04    5.35
   5   1 -11   76.73    3.86
   5   1 -11   82.57    3.36
   5   1 -11   79.10    3.18
  -5  -1  11   77.21    3.73
   5   1 -10   -0.60    0.73
   5   1 -10    1.15    0.81
   5   1 -10    0.12    0.58
  -5  -1  10   -0.06    0.78
  -5  -1  10    0.48    0.35
   5   1  -9    4.51    0.87
   5   1  -9    4.35    1.02
   5   1  -9    4.66    0.90
  -5  -1   9    2.74    0.86
  -5  -1   9    3.22    0.55
   5   1  -8   83.05    3.44
  -5  -1   8   80.47    3.34
   5   1  -8   74.94    3.09
   5   1  -8   79.95    3.16
   5   1  -8   82.62    3.51
  -5  -1   8   78.77    3.37
  -5  -1   8   76.06    2.53
  -5  -1   7    0.98    0.54
   5   1  -7    1.23    0.66
   5   1  -7   -0.03    0.58
   5   1  -7    0.96    0.56
   5   1  -7    2.25    0.81
  -5  -1   7    0.55    0.62
  -5  -1   7    1.45    0.50
   5   1  -6   62.55    2.69
  -5  -1   6   63.98    2.60
   5   1  -6   63.24    2.74
  -5  -1   6   64.15    2.80
   5   1  -6   67.35    2.89
   5   1  -6   64.07    2.63
  -5  -1   6   60.01    2.29
  -5  -1   5    3.98    0.72
   5   1  -5    3.40    0.70
   5   1  -5    1.96    0.67
   5   1  -5    3.66    0.77
   5   1  -5    4.43    0.79
  -5  -1   5    3.03    0.73
  -5  -1   5    3.37    0.66
   5   1  -4   82.31    3.06
  -5  -1   4   77.96    2.55
  -5  -1   4   78.91    3.01
   5   1  -4   83.16    3.11
  -5  -1   4   77.61    3.02
   5   1  -4   77.19    3.00
   5   1  -4   70.99    2.67
   5   1  -4   74.72    2.55
  -5  -1   4   80.59    2.77
  -5  -1   3   44.91    1.67
  -5  -1   3   48.42    2.15
   5   1  -3   47.50    2.29
   5   1  -3   47.20    2.25
   5   1  -3   42.38    2.02
  -5  -1   3   46.39    2.07
  -5  -1   2  246.02    5.17
  -5  -1   2  250.77    5.96
   5   1  -2  261.68    6.54
   5   1  -2  266.01    6.42
  -5  -1   2  255.50    6.00
   5   1  -2  247.73    6.17
  -5  -1   2  261.85    6.24
  -5  -1   1  464.93    8.60
  -5  -1   1  470.03    9.62
   5   1  -1  484.77   10.41
   5   1  -1  501.06   10.30
   5   1  -1  457.54   10.07
  -5  -1   1  479.78    9.83
  -5  -1   1  493.12   10.21
  -5  -1   0  416.20    8.74
   5   1   0  446.81    9.70
  -5  -1   0  428.81    9.13
   5   1   0  453.29    9.64
   5   1   0  433.41    9.51
  -5  -1   0  445.67    9.57
   5   1   1  165.72    4.03
   5   1   1  172.03    4.87
  -5  -1  -1  169.98    4.54
   5   1   1  158.37    4.75
  -5  -1  -1  178.82    4.90
   5   1   1  164.93    4.55
  -5  -1  -2  531.14    9.33
   5   1   2  518.99   10.23
   5   1   2  552.07   11.39
  -5  -1  -2  532.13   11.05
   5   1   2  524.97   11.40
   5   1   2  548.58   11.16
  -5  -1  -2  560.66   11.54
  -5  -1  -3  108.63    2.48
   5   1   3  110.84    2.95
   5   1   3  109.77    3.66
   5   1   3  115.38    3.69
  -5  -1  -3  111.15    3.62
   5   1   3  105.90    3.74
  -5  -1  -3  110.49    3.82
  -5  -1  -4  161.69    3.69
   5   1   4  162.53    4.70
  -5  -1  -4  160.48    4.78
   5   1   4  166.18    4.86
   5   1   4  160.52    4.92
  -5  -1  -4  173.70    5.06
  -5  -1  -5  112.26    3.04
   5   1   5  108.02    3.65
  -5  -1  -5  108.90    3.85
   5   1   5  116.43    3.99
   5   1   5  113.03    3.97
  -5  -1  -5  115.06    4.03
  -5  -1  -6   80.28    2.65
   5   1   6   77.63    2.98
   5   1   6   85.57    3.47
  -5  -1  -6   79.54    3.34
   5   1   6   79.78    3.32
  -5  -1  -6   82.91    3.38
   5   1   7    5.45    0.84
  -5  -1  -7    6.11    0.82
  -5  -1  -7    5.90    1.05
  -5  -1  -7    5.85    1.01
   5   1   7    6.50    1.06
  -5  -1  -8   28.77    1.74
   5   1   8   29.07    1.70
  -5  -1  -8   28.24    2.15
   5   1   8   25.70    1.93
  -5  -1  -8   33.09    2.19
  -5  -1  -9   19.07    1.55
   5   1   9   20.20    1.38
  -5  -1  -9   24.48    2.09
   5   1   9   20.43    1.78
   5   1  10   15.58    1.19
  -5  -1 -10   17.42    1.58
   5   1  10   13.67    1.51
  -5  -1 -10   14.92    1.75
  -5  -1 -11   83.58    3.71
   5   1  11   81.96    2.81
   5   1  11   90.49    4.41
  -5  -1 -11   76.57    4.08
   5   1  11   83.72    3.73
  -5  -1 -12   48.00    2.92
  -5  -1 -12   51.02    3.38
   5   1  12   48.07    3.36
   5   1  12   47.44    2.85
  -5  -1 -13   57.78    3.37
   5   1  13   59.92    3.83
   5   1  13   54.79    3.13
  -5  -1 -14  113.22    5.13
   5   1  14  125.89    5.88
   5   1  14  125.51    4.93
  -5  -1 -15    4.53    1.34
   5   1  15    6.05    1.57
  -5  -1 -16   91.87    4.94
  -5  -2  16   38.70    3.35
  -5  -2  15    3.74    1.20
   5   2 -14  145.88    6.32
  -5  -2  14  138.24    5.94
   5   2 -13    4.22    1.39
  -5  -2  13    2.99    1.06
   5   2 -12   76.64    4.12
   5   2 -12   79.43    3.12
  -5  -2  12   80.10    4.07
   5   2 -11    9.49    1.08
   5   2 -11    8.18    1.36
  -5  -2  11   10.69    1.48
   5   2 -10    1.22    0.62
   5   2 -10    0.27    0.81
   5   2 -10    3.37    0.76
  -5  -2  10    0.46    0.76
   5   2  -9   10.96    1.14
   5   2  -9   11.09    1.47
   5   2  -9   10.37    1.10
  -5  -2   9    7.75    1.20
  -5  -2   9   11.38    0.71
  -5  -2   8   20.68    1.70
   5   2  -8   22.69    1.56
   5   2  -8   19.51    1.68
   5   2  -8   20.60    1.53
  -5  -2   8   22.48    1.85
  -5  -2   8   18.53    1.04
   5   2  -7   34.51    1.87
   5   2  -7   31.84    2.02
  -5  -2   7   33.25    1.99
   5   2  -7   33.92    1.93
   5   2  -7   32.71    2.14
  -5  -2   7   34.60    2.19
  -5  -2   7   31.68    1.46
   5   2  -6    7.58    0.95
  -5  -2   6    8.05    0.96
   5   2  -6    8.04    1.02
   5   2  -6    8.40    1.00
   5   2  -6    8.84    1.11
  -5  -2   6    7.37    1.11
  -5  -2   6    8.01    0.78
  -5  -2   5    0.89    0.47
   5   2  -5    1.25    0.54
   5   2  -5    2.29    0.71
   5   2  -5    1.69    0.69
   5   2  -5    2.08    0.70
  -5  -2   5    1.71    0.70
   5   2  -5    1.66    0.47
  -5  -2   5    1.83    0.53
   5   2  -4  146.13    4.25
   5   2  -4  141.32    3.83
  -5  -2   4  137.08    3.79
   5   2  -4  146.91    4.44
  -5  -2   4  143.14    4.47
   5   2  -4  146.45    4.51
   5   2  -4  135.19    3.84
  -5  -2   4  143.18    3.91
   5   2  -3  242.71    5.33
  -5  -2   3  236.46    5.28
   5   2  -3  244.46    6.25
  -5  -2   3  243.24    6.27
   5   2  -3  246.39    6.30
   5   2  -3  230.97    5.71
  -5  -2   3  239.24    5.76
  -5  -2   2  279.34    5.77
  -5  -2   2  284.97    6.51
   5   2  -2  298.28    7.12
   5   2  -2  296.56    7.09
   5   2  -2  281.89    6.64
   5   2  -2  282.58    5.80
  -5  -2   2  302.12    6.77
  -5  -2   1  349.99    7.50
   5   2  -1  360.45    8.32
   5   2  -1  370.10    8.33
  -5  -2   1  361.48    8.00
   5   2  -1  352.98    7.99
  -5  -2   1  364.89    8.06
  -5  -2   0  322.67    6.78
   5   2   0  343.18    7.86
   5   2   0  341.07    7.82
   5   2   0  312.67    7.52
  -5  -2   0  327.97    7.46
  -5  -2   0  335.19    7.63
  -5  -2  -1  227.00    5.00
   5   2   1  242.13    6.13
  -5  -2  -1  237.21    5.85
   5   2   1  236.06    5.98
  -5  -2  -1  244.50    6.09
   5   2   2  960.52   18.23
   5   2   2  908.75   16.67
  -5  -2  -2  940.96   17.96
   5   2   2  942.21   18.18
   5   2   2  936.11   18.06
  -5  -2  -2  963.16   18.30
   5   2   3   52.34    2.35
   5   2   3   49.62    1.53
  -5  -2  -3   44.87    2.20
   5   2   3   45.23    2.30
  -5  -2  -3   50.89    2.39
   5   2   3   47.52    2.29
   5   2   4  169.66    4.82
   5   2   4  166.60    3.72
   5   2   4  175.81    5.00
  -5  -2  -4  162.22    4.82
   5   2   4  168.11    4.99
  -5  -2  -4  167.00    3.58
  -5  -2  -4  181.39    5.14
  -5  -2  -5   18.32    0.98
   5   2   5   17.03    1.36
  -5  -2  -5   19.46    1.58
   5   2   5   18.23    1.48
   5   2   5   14.34    1.36
  -5  -2  -5   19.35    1.54
   5   2   6    0.58    0.48
  -5  -2  -6    1.23    0.43
   5   2   6   -0.08    0.75
  -5  -2  -6    0.36    0.69
   5   2   6    0.43    0.59
  -5  -2  -6    0.23    0.60
  -5  -2  -7   33.83    1.67
   5   2   7   32.78    1.87
   5   2   7   36.77    2.28
  -5  -2  -7   32.19    2.15
   5   2   7   34.55    2.14
  -5  -2  -7   37.44    2.24
   5   2   8    0.46    0.44
  -5  -2  -8   -0.38    0.50
  -5  -2  -8    1.27    0.73
   5   2   8   -0.30    0.77
  -5  -2  -8    0.07    0.73
   5   2   9    3.90    0.76
  -5  -2  -9    4.33    0.83
  -5  -2  -9    4.30    1.11
   5   2   9    4.19    0.91
   5   2  10   14.92    1.22
  -5  -2 -10   14.66    1.44
  -5  -2 -10   14.87    1.69
   5   2  10   14.04    1.54
  -5  -2 -11  110.80    4.28
   5   2  11  117.86    3.59
  -5  -2 -11  120.65    5.02
   5   2  11  117.69    4.53
  -5  -2 -12   74.55    3.59
  -5  -2 -12   89.79    4.43
   5   2  12   79.09    4.18
   5   2  12   76.36    3.63
  -5  -2 -13  103.92    4.51
  -5  -2 -13  106.55    5.15
   5   2  13   97.38    4.85
   5   2  13  109.74    4.49
  -5  -2 -14  111.00    4.93
   5   2  14  117.33    5.53
   5   2  14  111.43    4.64
  -5  -2 -15   14.70    1.94
   5   2  15   13.63    1.96
   5   2  15   18.56    1.85
  -5  -2 -16  146.63    6.24
  -5  -3  15    3.95    1.50
   5   3 -14   64.53    4.14
  -5  -3  14   60.78    3.94
   5   3 -13   54.28    3.69
  -5  -3  13   50.44    3.49
   5   3 -12   40.30    3.09
  -5  -3  12   48.20    3.28
   5   3 -11    8.47    0.95
   5   3 -11    8.43    1.50
  -5  -3  11    7.33    1.36
   5   3 -10   52.60    3.10
   5   3 -10   53.61    2.30
  -5  -3  10   52.87    3.17
   5   3 -10   52.72    2.45
   5   3  -9   43.76    2.70
   5   3  -9   43.04    2.05
   5   3  -9   44.99    2.24
  -5  -3   9   41.22    2.67
   5   3  -8   50.27    2.74
   5   3  -8   54.47    2.34
   5   3  -8   49.61    2.39
  -5  -3   8   54.81    3.00
  -5  -3   8   52.80    1.54
   5   3  -7    3.99    0.76
  -5  -3   7    5.98    1.04
   5   3  -7    5.15    1.00
   5   3  -7    5.29    0.85
  -5  -3   7    3.33    0.86
  -5  -3   7    5.44    0.60
  -5  -3   6    7.96    1.01
   5   3  -6    8.03    0.90
   5   3  -6    7.86    1.02
   5   3  -6    8.80    1.04
   5   3  -6    6.78    1.07
  -5  -3   6    6.99    1.14
   5   3  -6    7.32    0.69
  -5  -3   6    7.25    0.69
   5   3  -5  258.33    6.23
   5   3  -5  263.99    6.37
   5   3  -5  254.87    6.59
  -5  -3   5  259.94    6.97
   5   3  -5  275.23    7.12
   5   3  -5  260.23    5.80
  -5  -3   5  251.92    5.79
   5   3  -4   31.92    1.63
   5   3  -4   28.35    1.79
  -5  -3   4   32.33    2.01
   5   3  -4   30.70    1.92
   5   3  -4   27.89    1.45
  -5  -3   4   27.95    1.46
   5   3  -3 1032.57   19.10
   5   3  -3 1072.88   20.19
  -5  -3   3 1042.39   20.31
   5   3  -3 1085.33   20.43
   5   3  -3 1027.57   19.37
  -5  -3   3 1032.33   19.41
   5   3  -2   39.85    1.50
   5   3  -2   45.05    2.19
  -5  -3   2   44.74    2.26
   5   3  -2   40.67    2.19
   5   3  -2   40.46    1.89
  -5  -3   2   42.14    1.93
   5   3  -1  208.93    4.32
   5   3  -1  215.57    5.69
   5   3  -1  217.61    5.77
   5   3  -1  207.07    5.32
  -5  -3   1  211.11    5.38
  -5  -3   1  217.60    5.58
   5   3   0  142.72    2.81
   5   3   0  146.93    4.45
  -5  -3   0  144.66    3.52
   5   3   0  155.94    4.51
  -5  -3   0  146.82    4.28
   5   3   0  144.31    4.20
  -5  -3   0  146.78    4.25
   5   3   1  231.92    5.92
  -5  -3  -1  214.36    4.60
   5   3   1  229.54    5.93
  -5  -3  -1  225.74    5.74
   5   3   1  217.95    5.66
  -5  -3  -1  225.54    5.76
   5   3   2  638.66   12.88
  -5  -3  -2  602.64   12.64
   5   3   2  614.83   12.78
   5   3   2  615.87   12.73
  -5  -3  -2  631.39   12.86
   5   3   3   58.68    2.56
  -5  -3  -3   60.71    2.58
   5   3   3   55.71    2.57
   5   3   3   62.48    2.66
  -5  -3  -3   61.26    2.66
   5   3   4   17.57    1.39
   5   3   4   16.62    0.62
   5   3   4   15.11    0.72
   5   3   4   17.81    1.51
  -5  -3  -4   15.32    1.36
   5   3   4   19.35    1.51
  -5  -3  -4   15.89    1.37
   5   3   5    7.04    0.96
   5   3   5    7.55    0.48
   5   3   5    7.00    0.62
   5   3   5    8.07    1.14
  -5  -3  -5    7.26    1.02
   5   3   5    7.99    1.12
  -5  -3  -5    7.50    1.10
   5   3   6    4.91    0.82
   5   3   6    4.09    0.60
  -5  -3  -6    4.88    0.60
  -5  -3  -6    5.21    0.95
   5   3   6    3.93    0.85
  -5  -3  -6    3.43    0.83
   5   3   6    4.49    0.91
   5   3   7    1.21    0.65
   5   3   7    0.90    0.48
  -5  -3  -7    0.93    0.47
  -5  -3  -7    0.96    0.65
   5   3   7   -0.05    0.67
  -5  -3  -7    0.32    0.72
   5   3   7    1.69    0.72
   5   3   8   12.12    1.17
   5   3   8   12.77    1.12
   5   3   8   13.93    1.50
  -5  -3  -8   15.89    1.23
  -5  -3  -8   15.00    1.46
  -5  -3  -8   16.24    1.62
   5   3   9    3.15    0.68
   5   3   9    2.14    0.66
  -5  -3  -9    3.13    0.74
   5   3   9    3.13    0.93
  -5  -3  -9    0.97    0.69
   5   3  10   -0.18    0.46
   5   3  10    0.33    0.68
  -5  -3 -10    1.10    0.70
   5   3  10    0.81    0.70
  -5  -3 -10    1.02    0.94
   5   3  11  494.90   10.43
  -5  -3 -11  484.33   12.17
   5   3  11  481.53   11.58
  -5  -3 -11  480.67   11.24
  -5  -3 -12   28.59    2.49
  -5  -3 -12   29.35    2.16
   5   3  12   31.57    2.32
  -5  -3 -13  105.19    5.02
   5   3  13  115.36    5.09
   5   3  13  106.12    4.46
  -5  -3 -13  103.89    4.45
  -5  -3 -14   24.13    2.27
   5   3  14   24.93    2.51
   5   3  14   22.22    2.12
  -5  -3 -14   25.30    2.57
   5   3  15   41.52    3.33
   5   3  15   37.68    2.68
  -5  -3 -15   37.02    2.84
   5   3  16   89.73    5.03
  -5  -3 -16   89.06    4.67
  -5  -3 -17   25.24    2.57
   5   4 -14    4.38    1.42
  -5  -4  14    7.05    1.56
   5   4 -13   48.57    3.52
  -5  -4  13   43.17    3.35
   5   4 -12   12.24    1.88
  -5  -4  12   14.96    1.99
   5   4 -11   31.16    2.57
  -5  -4  11   32.95    2.72
   5   4 -10   13.94    1.04
   5   4 -10   13.06    1.73
  -5  -4  10   12.68    1.72
   5   4  -9   14.74    1.08
   5   4  -9   16.28    1.70
  -5  -4   9   12.70    1.62
   5   4  -9   12.79    1.24
   5   4  -8    0.58    0.70
   5   4  -8    0.65    0.45
  -5  -4   8    0.29    0.79
   5   4  -8    0.21    0.47
   5   4  -7    7.77    1.15
   5   4  -7   10.16    0.95
   5   4  -7    9.17    1.06
  -5  -4   7    8.24    1.32
   5   4  -6  193.92    4.90
   5   4  -6  195.12    5.58
   5   4  -6  198.05    5.47
  -5  -4   6  193.29    6.02
   5   4  -6  192.77    4.36
   5   4  -5   47.97    2.00
   5   4  -5   39.83    2.10
   5   4  -5   44.99    2.25
  -5  -4   5   39.69    2.41
   5   4  -5   45.17    2.57
  -5  -4   5   43.74    1.72
   5   4  -5   44.35    1.70
   5   4  -4   31.69    1.71
   5   4  -4   28.31    1.78
  -5  -4   4   29.86    2.00
   5   4  -4   33.69    2.16
  -5  -4   4   29.59    1.48
   5   4  -4   33.16    1.53
   5   4  -3  221.98    5.31
   5   4  -3  233.02    6.03
  -5  -4   3  226.94    6.24
   5   4  -3  225.35    6.25
  -5  -4   3  222.65    5.37
   5   4  -3  215.54    5.28
   5   4  -2  431.36    8.67
  -5  -4   2  438.27    9.91
   5   4  -2  437.80    9.94
   5   4  -2  426.95    9.08
  -5  -4   2  438.35    9.18
   5   4  -1   11.11    0.75
  -5  -4   1   12.38    1.28
   5   4  -1   13.26    1.31
  -5  -4   1   11.02    1.01
   5   4  -1   10.81    1.03
   5   4   0  396.70    7.54
   5   4   0  421.61    9.28
   5   4   0  400.57    8.78
  -5  -4   0  406.15    9.09
  -5  -4   0  404.61    8.88
   5   4   1   81.89    1.89
  -5  -4  -1   83.59    2.17
   5   4   1   86.08    3.23
  -5  -4  -1   85.78    3.17
   5   4   1   84.28    3.08
  -5  -4  -1   89.02    3.12
  -5  -4  -2  364.13    6.69
   5   4   2  378.15    8.62
   5   4   2  367.48    6.58
   5   4   2  364.09    8.38
  -5  -4  -2  360.89    8.45
  -5  -4  -2  381.70    8.55
   5   4   3   86.29    1.96
  -5  -4  -3   90.31    3.30
  -5  -4  -3   94.88    3.41
   5   4   3   92.37    3.34
   5   4   3   86.07    3.29
   5   4   4   42.18    1.34
  -5  -4  -4   46.37    2.30
  -5  -4  -4   46.50    2.39
   5   4   4   47.06    2.32
   5   4   4   46.78    2.34
   5   4   5   12.08    0.77
  -5  -4  -5   12.99    1.33
   5   4   5   11.78    1.29
  -5  -4  -5   11.23    1.32
   5   4   5   12.04    1.29
   5   4   6   53.24    1.93
  -5  -4  -6   57.15    2.72
  -5  -4  -6   59.50    2.80
   5   4   6   52.74    2.63
   5   4   6   54.45    2.67
   5   4   7  104.41    3.14
  -5  -4  -7  105.25    4.02
   5   4   7  108.13    4.08
  -5  -4  -7  109.14    4.04
   5   4   7   99.88    3.88
   5   4   8  223.35    5.64
  -5  -4  -8  225.20    6.61
  -5  -4  -8  234.48    6.64
   5   4   8  225.44    6.50
   5   4   9    4.33    0.80
   5   4   9    7.57    1.23
  -5  -4  -9    5.50    1.12
   5   4  10   74.65    3.17
   5   4  10   77.90    3.11
  -5  -4 -10   85.18    3.87
  -5  -4 -10   80.16    3.21
   5   4  10   80.86    3.62
   5   4  11   60.86    2.96
   5   4  11   57.74    2.62
  -5  -4 -11   57.80    3.32
  -5  -4 -11   57.90    2.86
   5   4  11   59.15    3.11
   5   4  12   18.86    1.45
  -5  -4 -12   21.31    1.85
   5   4  12   25.57    2.11
  -5  -4 -12   22.29    2.18
  -5  -4 -13  162.91    6.29
  -5  -4 -13  170.62    5.81
   5   4  13  158.18    5.70
  -5  -4 -14   43.25    3.21
   5   4  14   43.57    3.14
  -5  -4 -14   40.19    2.80
   5   4  14   40.48    2.77
  -5  -4 -15  105.67    5.34
   5   4  15  106.75    5.21
  -5  -4 -15  117.90    5.12
   5   4  15  102.90    4.64
   5   4  16   55.41    3.83
   5   4  16   49.83    3.21
   5   4  17   18.03    2.33
   5   5 -13    0.38    1.10
  -5  -5  13    1.38    1.22
   5   5 -12   18.45    2.31
  -5  -5  12   22.70    2.49
   5   5 -11   -0.12    0.93
  -5  -5  11   -0.50    1.04
   5   5 -10    3.34    1.15
  -5  -5  10    2.90    1.14
   5   5  -9   -0.82    0.90
   5   5  -9    0.09    0.35
   5   5  -9    1.06    0.57
   5   5  -8  146.22    5.28
   5   5  -8  158.29    3.85
  -5  -5   8  149.23    5.63
   5   5  -8  146.45    4.60
   5   5  -7   35.03    2.28
   5   5  -7   36.09    1.58
   5   5  -7   33.65    1.98
  -5  -5   7   33.62    2.45
   5   5  -6  257.57    5.80
   5   5  -6  248.69    6.81
   5   5  -6  249.09    6.59
  -5  -5   6  248.54    7.37
   5   5  -6  257.39    5.31
   5   5  -5    7.74    1.06
   5   5  -5    6.22    0.73
   5   5  -5    8.21    1.05
  -5  -5   5   11.38    1.44
   5   5  -5    9.42    0.77
   5   5  -4  378.96    8.60
  -5  -5   4  380.19    9.42
   5   5  -4  391.71    9.61
   5   5  -4  383.61    7.97
   5   5  -3   31.56    1.69
  -5  -5   3   33.61    2.19
   5   5  -3   35.59    2.20
   5   5  -3   35.94    1.68
   5   5  -2  227.31    5.42
  -5  -5   2  233.93    6.43
   5   5  -2  248.95    6.55
  -5  -5   2  230.14    5.61
   5   5  -2  224.35    5.56
   5   5  -1   99.79    2.85
  -5  -5   1  102.90    3.71
   5   5  -1  105.07    3.77
  -5  -5   1  103.67    3.31
   5   5  -1   93.36    3.18
   5   5   0  300.75    6.22
  -5  -5   0  301.28    7.54
   5   5   0  312.27    7.59
  -5  -5   0  304.12    7.13
   5   5   0  298.00    7.07
   5   5   1   12.96    1.27
   5   5   1   12.26    1.20
  -5  -5  -1   11.88    1.13
  -5  -5  -1   12.73    1.29
   5   5   2   67.19    2.82
  -5  -5  -2   66.69    2.77
  -5  -5  -2   63.15    2.76
   5   5   2   60.64    2.66
   5   5   3   12.93    1.28
   5   5   3   10.73    1.20
  -5  -5  -3   11.82    1.18
  -5  -5  -3   12.98    1.28
   5   5   4  277.93    5.77
  -5  -5  -4  286.12    7.21
   5   5   4  298.14    7.27
  -5  -5  -4  299.88    7.37
   5   5   4  278.29    7.18
   5   5   4  289.51    7.28
   5   5   5   28.36    1.25
  -5  -5  -5   23.90    1.77
  -5  -5  -5   27.31    1.89
   5   5   5   28.93    1.90
   5   5   5   26.61    1.85
   5   5   6   20.53    1.17
   5   5   6   15.87    1.52
   5   5   6   20.78    1.68
  -5  -5  -6   19.35    1.66
  -5  -5  -6   18.95    1.60
   5   5   7   10.92    0.98
  -5  -5  -7   15.12    1.46
  -5  -5  -7   11.45    1.36
   5   5   7   12.71    1.40
   5   5   7   13.91    1.41
   5   5   8  152.72    4.38
   5   5   8  161.79    3.41
  -5  -5  -8  154.62    5.22
   5   5   8  156.29    5.20
   5   5   9   20.68    1.52
  -5  -5  -9   22.99    1.94
   5   5   9   19.57    1.74
   5   5  10   95.52    3.64
  -5  -5 -10  100.21    4.26
   5   5  10  104.84    4.19
   5   5  11   12.94    1.31
   5   5  11   13.14    1.58
  -5  -5 -11   13.68    1.64
   5   5  12    2.77    1.09
  -5  -5 -12    3.75    1.12
  -5  -5 -13   51.42    3.36
   5   5  13   50.30    3.06
  -5  -5 -14  146.24    6.06
   5   5  14  143.74    5.81
   5   5  14  148.92    5.62
  -5  -5 -15   82.30    4.56
   5   5  15   85.14    4.46
   5   5  15   79.75    4.05
  -5  -5 -16  151.97    6.66
   5   5  16  162.61    6.62
   5   5  16  157.27    6.02
   5   5  17   22.65    2.55
   5   6 -12   40.87    3.25
  -5  -6  12   39.26    3.26
   5   6 -11   -0.27    1.08
  -5  -6  11    1.99    1.28
   5   6 -10    6.09    1.46
  -5  -6  10    6.21    1.41
   5   6  -9   10.60    1.52
  -5  -6   9    7.42    1.56
   5   6  -8   71.45    1.86
   5   6  -8   69.09    3.54
  -5  -6   8   74.41    3.94
   5   6  -8   67.20    2.95
   5   6  -7   11.41    1.43
   5   6  -7    9.59    0.71
   5   6  -7   10.32    1.17
  -5  -6   7   10.61    1.49
   5   6  -6   39.02    1.54
   5   6  -6   35.79    2.26
   5   6  -6   38.42    2.18
  -5  -6   6   36.34    2.55
   5   6  -6   36.71    1.35
   5   6  -5    1.22    0.67
   5   6  -5    0.65    0.42
  -5  -6   5   -0.55    0.90
   5   6  -5    0.40    0.41
   5   6  -4  118.97    3.98
  -5  -6   4  120.93    4.54
   5   6  -4  117.99    3.33
   5   6  -3  157.24    4.60
  -5  -6   3  162.39    5.32
   5   6  -3  176.20    5.53
   5   6  -3  159.87    4.28
   5   6  -2   13.13    1.13
   5   6  -2   14.51    1.50
  -5  -6   2   11.90    1.35
   5   6  -2   12.98    1.09
   5   6  -1  227.11    5.40
  -5  -6   1  210.69    6.22
   5   6  -1  229.72    6.37
   5   6  -1  222.97    5.66
  -5  -6   0  185.61    5.49
   5   6   0  190.06    5.52
   5   6   0  184.54    5.07
  -5  -6  -1  110.78    3.89
   5   6   1  110.46    3.89
  -5  -6  -1  109.85    3.89
   5   6   1  107.12    3.66
   5   6   2  317.06    7.58
  -5  -6  -2  298.71    7.51
   5   6   2  282.04    7.25
   5   6   3    0.17    0.59
   5   6   3   -0.89    0.78
  -5  -6  -3    0.40    0.70
   5   6   4  161.43    4.81
  -5  -6  -4  151.09    4.79
   5   6   4  147.30    4.76
   5   6   5    7.99    0.75
   5   6   5    8.85    1.08
   5   6   5    7.55    1.10
  -5  -6  -5    8.17    1.14
   5   6   5    7.18    1.10
   5   6   6    2.57    0.56
   5   6   6    4.08    0.99
  -5  -6  -6    2.84    0.82
   5   6   6    1.44    0.61
   5   6   7    0.58    0.44
   5   6   7    0.61    0.81
  -5  -6  -7    1.55    0.81
   5   6   7   -0.70    0.63
   5   6   8    1.91    0.25
   5   6   8    0.93    0.52
   5   6   8    0.49    0.85
  -5  -6  -8    1.90    0.88
   5   6   9  145.49    4.53
   5   6   9  154.78    3.43
  -5  -6  -9  149.51    5.24
   5   6   9  153.20    5.29
   5   6  10   54.15    2.64
   5   6  10   58.04    1.95
  -5  -6 -10   56.53    3.10
   5   6  10   60.96    3.21
   5   6  11   72.26    3.25
   5   6  11   76.19    2.52
  -5  -6 -11   67.72    3.57
   5   6  11   70.98    3.56
   5   6  12   48.34    2.11
  -5  -6 -12   49.65    3.09
   5   6  12   50.67    3.07
   5   6  13   62.01    2.63
  -5  -6 -13   59.64    3.57
   5   6  13   66.65    3.58
   5   6  14   40.98    2.27
  -5  -6 -14   42.66    3.11
   5   6  14   39.12    2.78
  -5  -6 -15   86.61    4.69
   5   6  15   96.77    4.66
   5   6  15   91.46    4.45
  -5  -6 -16  122.83    5.95
   5   6  16  107.23    5.19
   5   6  16  117.93    5.16
   5   6  17   24.55    2.51
   5   6  17   19.84    2.14
   5   6  18   38.27    3.21
   5   7 -12    0.39    1.09
   5   7 -11    7.44    1.61
  -5  -7  11    8.75    1.70
   5   7 -10    2.85    1.35
  -5  -7  10   -0.27    0.94
   5   7  -9   -0.73    0.96
  -5  -7   9   -0.41    0.90
   5   7  -8   43.12    2.88
  -5  -7   8   43.53    3.12
   5   7  -8   39.93    2.26
   5   7  -7   -0.41    0.93
   5   7  -7    0.35    0.52
  -5  -7   7    0.86    0.86
   5   7  -6   33.27    1.24
   5   7  -6   31.43    2.25
  -5  -7   6   28.05    2.37
   5   7  -6   33.61    1.30
   5   7  -5   86.94    2.50
   5   7  -5   82.25    3.54
  -5  -7   5   79.80    3.87
   5   7  -5   84.56    2.57
   5   7  -4   74.00    3.19
  -5  -7   4   76.60    3.64
   5   7  -4   77.61    2.59
   5   7  -3  136.77    4.37
  -5  -7   3  136.24    4.93
   5   7  -3  135.14    3.90
   5   7  -2    0.33    0.56
  -5  -7   2   -0.50    0.84
   5   7  -2    0.57    0.49
  -5  -7   1  472.23   11.21
   5   7  -1  521.81   11.46
   5   7  -1  476.47   10.37
  -5  -7   0   19.51    1.66
   5   7   0   21.75    1.71
   5   7   0   22.06    1.56
  -5  -7  -1   83.60    3.42
   5   7   1   90.44    3.50
   5   7   1   84.19    3.23
   5   7   2  211.14    5.92
  -5  -7  -2  202.54    5.95
   5   7   2  209.97    5.79
   5   7   3   45.06    2.34
  -5  -7  -3   42.49    2.36
   5   7   3   39.04    2.26
  -5  -7  -4   88.44    1.88
   5   7   4   94.36    3.50
  -5  -7  -4   95.88    3.65
   5   7   4   94.70    3.62
   5   7   5    1.95    0.71
  -5  -7  -5    2.64    0.93
   5   7   5    3.03    0.84
   5   7   6   32.84    2.17
   5   7   6   31.58    1.97
  -5  -7  -6   29.89    2.07
   5   7   6   32.39    2.11
   5   7   6   28.68    1.56
   5   7   6   31.66    2.15
   5   7   7   90.36    3.07
  -5  -7  -7   81.86    3.55
   5   7   7   91.13    3.79
   5   7   8  136.21    4.20
  -5  -7  -8  142.88    4.94
   5   7   8  141.77    5.02
   5   7   9   40.37    2.18
  -5  -7  -9   40.22    2.54
   5   7   9   42.10    2.63
   5   7  10  102.67    3.80
   5   7  10  101.95    2.70
  -5  -7 -10   99.27    4.24
   5   7  10  100.00    4.26
   5   7  11   34.57    1.55
  -5  -7 -11   33.71    2.50
   5   7  11   35.25    2.53
   5   7  12   48.27    1.99
  -5  -7 -12   46.95    3.01
   5   7  12   38.78    2.73
   5   7  13  141.58    4.11
  -5  -7 -13  127.00    5.39
   5   7  13  134.65    5.41
   5   7  14    0.34    0.54
  -5  -7 -14    0.60    0.90
   5   7  14    2.02    0.93
  -5  -7 -15  132.96    5.83
   5   7  15  124.57    5.29
   5   7  15  134.57    5.58
  -5  -7 -16   51.30    3.66
   5   7  16   54.75    3.48
   5   7  16   55.08    3.56
   5   7  17   51.05    3.49
   5   7  17   47.50    3.39
   5   7  18    9.18    1.71
   5   8 -11    1.09    1.13
   5   8 -10    0.51    1.04
  -5  -8  10    0.33    1.01
   5   8  -9    2.08    1.22
  -5  -8   9    4.22    1.41
   5   8  -8   39.85    2.91
  -5  -8   8   42.26    3.17
   5   8  -7    6.31    1.20
  -5  -8   7    6.01    1.34
   5   8  -6   46.43    2.89
  -5  -8   6   52.64    3.31
   5   8  -6   54.34    1.78
   5   8  -5   32.34    1.25
   5   8  -5   32.22    1.27
   5   8  -5   30.16    2.25
  -5  -8   5   29.70    2.43
   5   8  -5   32.11    1.52
   5   8  -4   76.37    2.39
   5   8  -4   70.27    3.29
  -5  -8   4   72.34    3.69
   5   8  -4   72.00    2.60
   5   8  -3  177.58    4.40
   5   8  -3  159.91    5.17
  -5  -8   3  162.68    5.72
   5   8  -3  165.73    4.61
   5   8  -2   99.56    3.17
  -5  -8   2   97.04    4.09
   5   8  -2   96.24    3.34
   5   8  -1  112.95    3.55
  -5  -8   1  114.23    4.36
   5   8  -1  106.48    3.68
   5   8   0  277.75    6.81
  -5  -8   0  282.38    7.58
   5   8   0  291.74    7.69
   5   8   0  272.85    7.00
   5   8   1   98.16    3.49
  -5  -8  -1   96.13    3.81
   5   8   1  104.00    3.91
   5   8   1   98.33    3.65
   5   8   2  207.42    5.69
  -5  -8  -2  190.12    5.76
   5   8   2  204.33    5.88
  -5  -8  -2  195.92    5.96
   5   8   2  195.95    5.72
   5   8   3    0.65    0.70
   5   8   3   -0.45    0.57
   5   8   3   -0.15    0.65
  -5  -8  -3   -0.05    0.70
   5   8   4  145.27    4.72
  -5  -8  -4  133.37    3.12
   5   8   4  142.87    4.57
  -5  -8  -4  134.35    4.66
   5   8   4  135.09    4.69
   5   8   5    8.60    1.20
  -5  -8  -5    7.62    0.48
   5   8   5    9.64    1.11
   5   8   5    9.00    1.34
  -5  -8  -5    7.99    1.21
   5   8   6   15.51    1.38
   5   8   6   13.89    1.53
  -5  -8  -6   13.99    1.49
  -5  -8  -7  103.44    4.13
   5   8   7  113.15    4.01
   5   8   7  111.35    3.67
   5   8   7  109.27    4.34
   5   8   8  333.57    8.04
   5   8   8  350.75    8.50
  -5  -8  -8  328.08    8.71
   5   8   8  336.66    9.01
   5   8   9   11.52    1.24
  -5  -8  -9   10.21    1.43
   5   8   9   11.29    1.50
   5   8  10  293.11    7.55
  -5  -8 -10  272.31    7.98
   5   8  10  286.52    8.27
   5   8  11    5.36    0.66
  -5  -8 -11    5.38    1.21
   5   8  11    5.83    1.26
   5   8  12   58.20    2.19
  -5  -8 -12   51.44    3.19
   5   8  12   54.51    3.32
   5   8  13   53.67    2.26
  -5  -8 -13   53.63    3.37
   5   8  13   50.42    3.27
   5   8  14   33.30    2.36
  -5  -8 -14   32.23    2.67
   5   8  14   30.28    2.60
   5   8  15   66.11    3.32
  -5  -8 -15   67.26    4.13
   5   8  15   60.09    3.72
  -5  -8 -16   82.87    4.64
   5   8  16   88.74    4.33
   5   8  16   86.28    4.58
   5   8  17   12.98    1.88
   5   8  17   12.81    1.85
  -5  -8 -17    9.59    1.76
   5   8  18   29.31    2.81
   5   9 -10    5.79    1.47
   5   9  -9   11.81    1.90
  -5  -9   9   10.88    1.87
   5   9  -8   14.06    1.95
  -5  -9   8   14.78    2.05
   5   9  -7    2.19    1.11
  -5  -9   7    2.16    1.06
   5   9  -6   90.04    4.22
  -5  -9   6   88.12    4.55
   5   9  -5  186.88    3.73
   5   9  -5  178.22    6.12
  -5  -9   5  177.40    6.55
   5   9  -5  186.49    4.73
   5   9  -4   16.13    1.74
   5   9  -4   20.11    1.07
  -5  -9   4   22.61    2.14
   5   9  -4   22.45    1.43
   5   9  -3  189.50    4.63
   5   9  -3  178.90    5.79
  -5  -9   3  179.75    6.25
   5   9  -3  184.55    5.10
   5   9  -2  184.00    4.83
  -5  -9   2  190.30    6.26
   5   9  -2  187.09    5.25
   5   9  -1   32.05    1.75
  -5  -9   1   32.63    2.31
   5   9  -1   32.34    1.96
   5   9   0   99.26    3.43
  -5  -9   0   96.43    4.03
   5   9   0   98.02    3.68
   5   9   1   47.35    2.34
  -5  -9  -1   42.53    2.53
   5   9   1   44.94    2.43
   5   9   2  447.69   10.35
  -5  -9  -2  440.14   10.64
   5   9   2  476.24   10.83
   5   9   2  453.74   10.66
  -5  -9  -2  475.56   11.03
   5   9   3    2.79    0.76
   5   9   3    3.84    0.88
   5   9   3    1.83    0.81
  -5  -9  -3    1.30    0.84
   5   9   4   32.63    2.11
  -5  -9  -4   28.78    1.41
   5   9   4   27.65    1.91
   5   9   4   27.15    2.06
  -5  -9  -4   30.94    2.16
  -5  -9  -5   26.43    1.17
   5   9   5   26.08    1.84
   5   9   5   26.53    2.09
  -5  -9  -5   29.68    2.12
   5   9   6   18.64    1.55
   5   9   6   17.00    1.74
  -5  -9  -6   16.68    1.59
   5   9   7   23.82    1.73
  -5  -9  -7   22.38    1.90
   5   9   7   20.96    1.92
  -5  -9  -8  132.82    4.91
   5   9   8  147.17    4.75
   5   9   8  140.52    5.27
   5   9   8  142.55    4.58
   5   9   9    0.48    0.62
   5   9   9    0.38    0.61
   5   9   9   -0.32    0.77
  -5  -9  -9   -0.25    0.75
   5   9  10   27.70    1.99
  -5  -9 -10   29.34    2.25
   5   9  10   29.17    2.39
  -5  -9 -11  206.33    6.73
   5   9  11  207.31    7.00
  -5  -9 -12   11.90    1.61
   5   9  12   14.97    1.90
  -5  -9 -13   84.42    4.23
   5   9  13   88.00    4.43
   5   9  14   38.35    2.68
  -5  -9 -14   35.06    2.79
   5   9  14   37.08    2.93
   5   9  15   40.80    2.75
  -5  -9 -15   40.90    3.13
   5   9  15   36.15    2.98
  -5  -9 -16   61.75    3.95
   5   9  16   64.35    3.57
   5   9  16   66.32    4.09
   5   9  17   26.21    2.62
  -5  -9 -17   28.02    2.81
   5   9  18   15.35    2.14
   5  10  -9   38.01    3.14
   5  10  -8    2.13    1.10
  -5 -10   8    4.94    1.43
   5  10  -7   45.14    3.23
  -5 -10   7   53.96    3.67
   5  10  -6   28.91    2.51
  -5 -10   6   34.34    2.89
   5  10  -5   39.77    2.82
  -5 -10   5   38.88    2.97
   5  10  -5   42.95    1.98
   5  10  -4   16.78    1.85
  -5 -10   4   21.39    2.20
   5  10  -4   19.12    1.41
   5  10  -3  310.84    6.62
   5  10  -3  282.81    8.24
  -5 -10   3  284.04    8.69
   5  10  -3  302.45    7.41
   5  10  -2   24.46    1.45
  -5 -10   2   23.80    2.18
   5  10  -2   21.04    1.63
   5  10  -1  306.21    7.31
  -5 -10   1  309.28    8.68
   5  10  -1  319.71    7.94
   5  10   0   30.28    1.82
  -5 -10   0   30.64    2.29
   5  10   0   29.02    2.00
   5  10   1  263.79    6.82
  -5 -10  -1  258.11    7.42
   5  10   1  255.41    7.10
   5  10   2  224.40    6.25
  -5 -10  -2  218.52    6.56
   5  10   2  216.15    6.46
  -5 -10  -2  224.84    6.79
   5  10   3   18.18    1.61
   5  10   3   17.08    1.53
  -5 -10  -3   17.53    1.66
   5  10   3   18.32    1.73
  -5 -10  -3   17.77    1.73
   5  10   4   53.43    2.84
   5  10   4   51.83    2.68
   5  10   4   46.75    2.74
  -5 -10  -4   51.95    2.88
  -5 -10  -5  169.74    4.30
   5  10   5  187.73    5.54
   5  10   5  172.95    5.80
  -5 -10  -5  169.37    5.66
  -5 -10  -6   38.74    1.61
   5  10   6   41.69    2.36
  -5 -10  -6   40.71    2.55
   5  10   6   41.33    2.65
  -5 -10  -7  134.83    4.96
   5  10   7  138.23    4.60
   5  10   7  135.47    5.18
  -5 -10  -8   25.33    2.07
   5  10   8   24.62    1.81
   5  10   8   21.73    2.04
   5  10   9   94.90    3.71
  -5 -10  -9   94.21    4.10
   5  10   9   94.63    4.38
   5  10  10   38.60    2.32
  -5 -10 -10   36.66    2.54
   5  10  10   39.58    2.86
  -5 -10 -11   69.36    3.63
   5  10  11   64.48    3.72
   5  10  12   17.54    2.09
  -5 -10 -12   14.76    1.75
   5  10  13   92.00    4.36
  -5 -10 -13   89.64    4.39
   5  10  13  101.31    4.90
   5  10  14   31.70    2.60
  -5 -10 -14   32.61    2.76
   5  10  14   35.57    2.99
   5  10  15  114.39    4.91
  -5 -10 -15  104.84    5.07
   5  10  15  100.51    5.17
  -5 -10 -16   32.10    2.84
   5  10  16   35.37    3.02
  -5 -10 -17   21.28    2.42
   5  10  17   26.61    2.74
   5  11  -8   29.36    2.85
   5  11  -7   17.95    2.26
  -5 -11   7   24.86    2.64
   5  11  -6  123.52    5.52
  -5 -11   6  123.27    5.76
   5  11  -5   28.29    2.53
  -5 -11   5   34.58    2.93
   5  11  -4   54.80    3.38
  -5 -11   4   59.93    3.70
   5  11  -4   60.58    2.69
  -5 -11   3   91.97    4.53
   5  11  -3   91.69    3.54
  -5 -11   2   21.96    2.19
   5  11  -2   26.05    1.87
   5  11  -1  296.84    7.21
  -5 -11   1  309.32    8.80
   5  11  -1  303.10    7.93
   5  11   0  135.21    4.34
  -5 -11   0  136.57    5.23
   5  11   0  139.41    4.85
   5  11   1  210.32    5.97
  -5 -11  -1  207.58    6.65
   5  11   1  214.37    6.43
   5  11   2   17.22    1.55
  -5 -11  -2   18.10    1.79
   5  11   2   17.78    1.76
   5  11   3   34.81    2.24
  -5 -11  -3   33.31    2.26
   5  11   3   33.87    2.36
  -5 -11  -3   33.51    2.40
   5  11   4   10.13    1.36
  -5 -11  -4    7.04    1.28
  -5 -11  -5   -0.30    0.53
   5  11   5    1.00    0.71
   5  11   5   -0.97    0.92
  -5 -11  -5   -0.28    0.76
  -5 -11  -6   12.00    1.04
   5  11   6   12.69    1.34
   5  11   6   15.09    1.79
  -5 -11  -6   11.57    1.50
  -5 -11  -7   19.19    1.23
   5  11   7   18.97    1.60
  -5 -11  -7   16.16    1.74
   5  11   7   19.53    2.02
   5  11   8   12.61    1.37
   5  11   8   13.71    1.75
  -5 -11  -8   13.93    1.62
  -5 -11  -9   44.90    2.79
   5  11   9   41.03    2.39
   5  11   9   43.51    3.00
   5  11  10  234.27    6.53
  -5 -11 -10  215.11    6.99
   5  11  10  229.04    7.66
  -5 -11 -11   72.95    3.76
   5  11  11   80.64    4.30
   5  11  12   33.63    2.75
  -5 -11 -12   40.24    2.86
   5  11  12   42.63    3.25
   5  11  13   32.27    2.65
  -5 -11 -13   30.08    2.56
   5  11  13   38.10    3.10
   5  11  14   34.73    2.81
  -5 -11 -14   34.62    2.80
   5  11  14   34.31    2.99
   5  11  15  127.69    5.50
  -5 -11 -15  123.68    5.57
   5  11  15  135.66    6.09
  -5 -11 -16   12.47    1.93
   5  11  16   14.15    2.12
  -5 -11 -17   38.98    3.23
   5  12  -7   19.21    2.35
   5  12  -6  161.91    6.74
  -5 -12   6  170.58    7.10
   5  12  -6  169.44    6.20
   5  12  -5   26.76    2.60
  -5 -12   5   21.15    2.45
   5  12  -5   24.46    2.26
   5  12  -4  192.61    7.10
  -5 -12   4  211.23    7.65
  -5 -12   3   19.71    2.23
   5  12  -3   17.27    1.60
  -5 -12   2   23.80    2.37
   5  12  -2   19.53    1.75
  -5 -12   1   55.65    3.36
   5  12  -1   55.39    2.95
   5  12   0  112.83    3.92
  -5 -12   0  116.09    4.91
   5  12   0  112.73    4.45
   5  12   1   69.38    3.10
  -5 -12  -1   68.92    3.59
   5  12   1   67.04    3.39
   5  12   2  164.43    5.33
  -5 -12  -2  158.45    5.65
   5  12   2  157.54    5.62
  -5 -12  -3   36.40    2.45
   5  12   3   38.02    2.64
  -5 -12  -3   35.41    2.62
   5  12   4    0.91    1.11
  -5 -12  -4    1.10    0.86
  -5 -12  -5   12.26    1.17
   5  12   5   10.01    1.49
  -5 -12  -5   11.00    1.48
  -5 -12  -6    7.38    0.93
   5  12   6   11.69    1.68
  -5 -12  -6    6.03    1.15
  -5 -12  -7   16.11    1.26
   5  12   7   15.59    1.53
   5  12   7   19.28    2.11
  -5 -12  -7   16.85    1.78
   5  12   8   60.54    2.94
  -5 -12  -8   55.58    3.18
   5  12   8   56.50    3.53
  -5 -12  -9   41.81    2.77
   5  12   9   36.27    2.27
   5  12   9   36.74    2.88
  -5 -12 -10  121.00    4.95
   5  12  10  122.55    5.46
   5  12  11   32.55    2.78
  -5 -12 -11   31.73    2.49
   5  12  11   32.44    2.81
   5  12  12   64.21    3.86
  -5 -12 -12   60.98    3.54
   5  12  12   58.35    3.89
   5  12  13   36.66    2.97
  -5 -12 -13   35.09    2.75
   5  12  13   34.59    3.01
   5  12  14   42.69    3.21
  -5 -12 -14   36.80    2.90
   5  12  14   40.74    3.31
   5  12  15   75.54    4.28
  -5 -12 -15   74.82    4.22
   5  12  15   72.04    4.53
   5  12  16   31.09    2.75
  -5 -12 -16   26.43    2.58
  -5 -12 -17    3.08    1.22
   5  13  -5   70.22    4.30
  -5 -13   5   74.11    4.57
   5  13  -5   69.74    3.99
   5  13  -4   43.46    3.30
   5  13  -4   39.05    2.97
  -5 -13   4   40.21    3.23
   5  13  -3   45.68    3.18
  -5 -13   3   49.48    3.53
  -5 -13   2    9.31    1.65
   5  13  -2   10.39    1.38
  -5 -13   1  104.31    4.94
   5  13  -1  118.14    4.64
  -5 -13   0   18.54    2.09
   5  13   0   21.93    2.06
  -5 -13  -1   34.68    2.63
   5  13   1   33.83    2.49
  -5 -13  -2   25.55    2.23
   5  13   2   23.04    2.19
  -5 -13  -3    9.45    1.39
  -5 -13  -3    3.54    1.06
   5  13   3    6.76    1.40
  -5 -13  -4   21.35    1.70
  -5 -13  -4   23.09    2.02
  -5 -13  -4   20.83    2.08
   5  13   4   19.78    2.07
  -5 -13  -5  129.10    4.33
   5  13   5  123.01    5.25
  -5 -13  -5  136.99    5.32
   5  13   6   13.55    1.78
  -5 -13  -6   11.88    1.61
  -5 -13  -7  146.57    5.56
   5  13   7  149.52    6.03
   5  13   8    3.37    1.26
  -5 -13  -8    5.88    1.28
   5  13   9   41.64    3.20
  -5 -13  -9   40.61    2.77
   5  13   9   35.23    2.90
   5  13  10   10.96    1.82
   5  13  10   15.54    2.08
  -5 -13 -10   10.52    1.55
   5  13  11   57.98    3.82
  -5 -13 -11   50.84    3.22
   5  13  11   55.49    3.77
   5  13  12   62.23    4.00
  -5 -13 -12   59.70    3.55
   5  13  12   66.50    4.22
   5  13  13   94.54    4.96
  -5 -13 -13   83.81    4.38
   5  13  13  107.82    5.44
   5  13  14   39.57    3.21
  -5 -13 -14   36.17    2.90
   5  13  14   40.60    3.38
   5  13  15   23.10    2.58
  -5 -13 -15   22.50    2.37
   5  13  16   10.24    1.91
  -5 -13 -16   12.84    1.94
   5  14  -4   29.03    2.83
   5  14  -4   35.84    3.06
   5  14  -3   69.38    4.16
  -5 -14   3   71.65    4.40
   5  14  -2    1.99    1.22
  -5 -14   2    3.98    1.39
   5  14  -2    3.47    1.07
   5  14  -1   94.49    4.87
  -5 -14   1   91.71    4.77
   5  14  -1   88.93    4.14
   5  14   0   17.19    2.23
  -5 -14   0   13.58    1.84
   5  14   0   16.65    1.88
   5  14   1   25.24    2.56
  -5 -14  -1   22.74    2.25
   5  14   1   21.69    2.13
   5  14   2   12.43    1.95
  -5 -14  -2   10.12    1.55
   5  14   2   10.45    1.53
  -5 -14  -3    6.77    1.36
   5  14   3    8.50    1.45
  -5 -14  -3    7.75    1.48
  -5 -14  -4    1.08    0.74
   5  14   4    2.06    1.12
  -5 -14  -4    2.07    0.98
   5  14   5   60.98    3.72
  -5 -14  -5   61.15    3.59
   5  14   6    4.91    1.40
   5  14   6    5.31    1.40
  -5 -14  -6    6.28    1.38
   5  14   7    3.53    1.36
   5  14   7    5.10    1.42
  -5 -14  -7    2.60    1.00
   5  14   8  130.36    5.92
  -5 -14  -8  111.83    4.91
   5  14   8  124.21    5.65
   5  14   9   21.07    2.44
   5  14   9   20.72    2.32
  -5 -14  -9   21.89    2.19
   5  14  10   17.21    2.19
   5  14  10   18.48    2.36
  -5 -14 -10   17.69    1.95
   5  14  11   64.20    4.23
  -5 -14 -11   62.55    3.62
   5  14  11   66.59    4.25
   5  14  12   29.02    2.91
   5  14  12   27.33    2.81
  -5 -14 -12   25.14    2.37
   5  14  13   85.36    4.84
  -5 -14 -13   77.42    4.21
   5  14  14   31.45    2.91
  -5 -14 -14   25.75    2.50
   5  14  15   43.93    3.52
  -5 -14 -15   43.17    3.23
   5  15  -3   35.69    3.13
   5  15  -2   16.08    2.20
  -5 -15   2   16.96    2.17
   5  15  -1   50.94    3.66
  -5 -15   1   42.01    3.28
   5  15  -1   42.22    2.93
   5  15   0    0.05    1.02
  -5 -15   0   -0.24    1.09
   5  15   0    0.52    0.91
   5  15   1   23.57    2.59
  -5 -15  -1   24.96    2.52
   5  15   1   21.21    2.26
   5  15   2    1.12    1.03
  -5 -15  -2    2.84    1.20
   5  15   2    2.91    1.07
  -5 -15  -2    1.69    1.17
   5  15   3   14.04    2.07
  -5 -15  -3    8.93    1.60
   5  15   3   11.32    1.79
  -5 -15  -3   10.60    1.73
   5  15   4   -0.71    1.09
  -5 -15  -4   -0.23    0.94
   5  15   4    0.61    0.96
  -5 -15  -4   -1.04    1.08
   5  15   5   12.80    1.97
  -5 -15  -5    7.58    1.52
   5  15   5    9.82    1.81
   5  15   6   21.15    2.46
  -5 -15  -6   15.84    2.08
   5  15   6   18.26    2.23
   5  15   7   14.45    2.17
  -5 -15  -7   12.47    1.78
   5  15   7   11.78    1.88
   5  15   8   33.47    3.06
  -5 -15  -8   31.71    2.61
   5  15   8   33.17    3.00
   5  15   9   22.05    2.59
   5  15   9   15.84    2.22
  -5 -15  -9   18.78    2.11
   5  15  10   72.58    4.54
  -5 -15 -10   61.58    3.66
   5  15  10   72.28    4.50
   5  15  11    6.96    1.74
  -5 -15 -11    7.02    1.42
   5  15  12   66.20    4.41
  -5 -15 -12   65.42    3.83
  -5 -15 -13   18.97    2.10
  -5 -16   1    8.62    1.85
   5  16   0   23.11    2.67
  -5 -16   0   23.65    2.52
   5  16   0   21.85    2.35
   5  16   1    4.52    1.69
  -5 -16  -1    0.51    1.14
   5  16   1    4.23    1.34
   5  16   2    0.46    1.11
  -5 -16  -2    1.22    1.00
   5  16   2    1.10    1.01
  -5 -16  -2    2.61    1.17
   5  16   3    1.37    1.25
  -5 -16  -3   -0.04    0.92
   5  16   3    0.80    1.01
  -5 -16  -3   -0.17    1.03
   5  16   4   -1.37    1.18
  -5 -16  -4    1.47    0.84
  -5 -16  -4    0.06    1.01
   5  16   4    0.88    1.14
   5  16   5    8.11    1.68
  -5 -16  -5    4.87    1.41
   5  16   5    5.05    1.41
  -5 -16  -6    1.59    1.11
   5  16   6    1.78    1.24
  -5 -16  -7   46.24    3.27
   5  16   7   47.09    3.64
   5  16   8   17.12    2.35
  -5 -16  -8   15.93    1.94
  -5 -16  -9   37.70    2.92
  -5 -16 -10   44.46    3.15
  -5 -16 -11    4.17    1.34
  -5 -17  -1    1.98    1.19
   5  17   1   -0.26    1.06
  -5 -17  -2    0.18    0.98
   5  17   2   -0.25    1.14
   5  17   3    2.41    1.31
  -5 -17  -3    1.50    1.01
   5  17   4    1.84    1.13
  -5 -17  -4    3.11    1.23
  -5 -17  -5    3.02    1.37
  -5 -17  -6    6.86    1.53
  -5 -17  -7   51.99    3.57
  -5 -17  -8    4.32    1.37
  -5 -17  -9   49.49    3.42
   6 -11  -4    4.58    1.45
   6 -11  -3    9.62    1.81
   6 -11  -2   -0.08    1.13
   6 -11  -1    3.75    1.20
   6 -11   0    2.24    1.27
   6 -11   1    5.65    1.44
   6 -10  -7  162.62    7.03
  -6  10   7  160.39    6.96
   6 -10  -6   46.71    3.67
  -6  10   6   51.18    3.79
   6 -10  -5   73.71    4.53
  -6  10   5   78.06    4.63
   6 -10  -4   -1.24    1.26
  -6  10   4    1.65    1.13
   6 -10  -3    9.17    1.78
  -6  10   3    5.51    1.51
   6 -10  -2   -1.48    1.25
  -6  10   2    1.72    1.26
   6 -10  -1   -0.04    1.14
  -6  10   1    1.04    1.05
   6 -10   0   32.86    2.88
  -6  10   0   36.23    3.13
   6 -10   1   11.11    1.73
   6 -10   1   13.62    1.81
  -6  10  -1   10.09    1.75
   6 -10   2    2.08    1.20
   6 -10   2    3.95    1.31
  -6  10  -2    1.23    1.14
   6 -10   3    6.09    1.40
   6 -10   3    4.88    1.32
  -6  10  -3    5.47    1.52
   6 -10   4    1.72    1.32
  -6  10  -4   -0.43    1.17
  -6   9  11    5.11    1.32
  -6   9  10    8.70    1.79
   6  -9  -9    2.34    1.22
  -6   9   9    2.20    1.35
   6  -9  -8   22.38    2.56
  -6   9   8   24.31    2.66
   6  -9  -7   17.31    2.30
  -6   9   7   12.96    1.89
   6  -9  -6    1.28    1.19
  -6   9   6    0.94    0.97
   6  -9  -5   21.42    2.45
  -6   9   5   16.00    2.16
   6  -9  -4    1.58    1.16
  -6   9   4   -0.20    1.02
   6  -9  -3   37.79    3.03
  -6   9   3   33.37    2.97
   6  -9  -2   -1.36    1.07
   6  -9  -2   -0.14    0.70
  -6   9   2    1.99    1.41
   6  -9  -1    1.17    1.09
   6  -9  -1    2.67    0.95
  -6   9   1    2.88    1.18
   6  -9   0    0.00    0.94
   6  -9   0   -0.02    0.74
  -6   9   0    0.05    0.98
   6  -9   1   -0.88    1.10
   6  -9   1   -0.71    0.84
  -6   9  -1   -0.26    0.95
   6  -9   2    2.30    1.14
   6  -9   2    1.62    0.93
  -6   9  -2    1.94    1.18
   6  -9   3   -0.31    0.99
   6  -9   3    0.31    0.98
  -6   9  -3   -0.89    1.07
   6  -9   4    0.55    0.93
   6  -9   4    0.30    1.03
  -6   9  -4   -1.86    1.16
  -6   9  -5    6.27    1.76
   6  -9   5    4.61    1.42
  -6   9  -5    4.20    1.40
  -6   9  -6   49.84    3.70
  -6   8  13    5.15    1.44
  -6   8  12    2.23    1.04
   6  -8 -11    1.02    1.06
  -6   8  11    0.28    0.95
  -6   8  11    0.28    1.03
   6  -8 -10   19.42    2.42
  -6   8  10   17.52    2.32
  -6   8  10   17.63    2.31
   6  -8  -9    7.71    1.71
  -6   8   9    8.54    1.73
   6  -8  -8   19.28    2.39
  -6   8   8   24.33    2.53
   6  -8  -7    0.78    1.14
  -6   8   7    1.27    1.08
   6  -8  -6   12.11    1.93
  -6   8   6   10.72    1.81
   6  -8  -5   13.52    1.97
  -6   8   5   12.87    1.88
   6  -8  -4   11.35    1.78
   6  -8  -4   12.20    1.22
  -6   8   4   11.01    1.77
   6  -8  -3   10.79    1.73
   6  -8  -3    8.53    1.09
  -6   8   3    8.31    1.60
   6  -8  -2   -0.03    0.98
   6  -8  -2   -0.13    0.63
  -6   8   2    1.28    1.18
   6  -8  -1   -0.32    0.94
   6  -8  -1    0.02    0.62
  -6   8   1    0.37    0.94
   6  -8   0   -0.21    0.98
   6  -8   0   -0.57    0.76
  -6   8   0    1.96    1.08
   6  -8   1    4.74    1.34
   6  -8   1    6.81    1.29
  -6   8  -1    4.82    1.39
   6  -8   2    1.16    0.91
   6  -8   2    2.54    1.17
  -6   8  -2    2.93    1.20
   6  -8   3   -0.79    0.86
   6  -8   3   -0.63    1.04
  -6   8  -3    1.02    1.05
   6  -8   4    3.25    1.29
   6  -8   4    1.26    0.97
  -6   8  -4    2.30    1.08
  -6   8  -5   14.09    2.00
   6  -8   5   14.64    1.87
   6  -8   5   14.90    2.03
  -6   8  -5   12.34    1.83
  -6   8  -6    1.58    1.20
   6  -8   6    3.39    1.47
  -6   8  -6    2.91    0.98
  -6   8  -7   21.06    2.45
  -6   8  -8   23.86    2.66
  -6   7  15    6.51    1.96
  -6   7  14    7.86    1.67
  -6   7  13   21.02    2.39
   6  -7 -12   -0.04    0.93
  -6   7  12    1.76    1.12
  -6   7  12    3.08    1.43
   6  -7 -11    1.87    1.12
  -6   7  11   -0.69    0.95
  -6   7  11   -0.32    1.03
   6  -7 -10    2.64    1.18
  -6   7  10    4.50    1.37
  -6   7  10    4.89    1.44
   6  -7  -9    5.39    1.34
  -6   7   9    9.53    1.76
  -6   7   9    7.50    1.56
   6  -7  -8   18.54    2.28
  -6   7   8   11.75    1.76
   6  -7  -7    3.10    1.16
  -6   7   7    3.81    1.26
   6  -7  -6   38.85    3.01
  -6   7   6   40.00    3.01
   6  -7  -5   26.03    2.52
  -6   7   5   28.69    2.53
   6  -7  -4    3.99    1.19
  -6   7   4    4.96    1.34
   6  -7  -3   12.14    1.74
  -6   7   3   13.46    1.85
   6  -7  -2    1.26    0.99
  -6   7   2    0.94    0.88
   6  -7  -1    7.76    1.45
   6  -7  -1    8.52    1.19
  -6   7   1    7.38    1.43
   6  -7   0   12.36    1.73
   6  -7   0   11.38    1.44
  -6   7   0    9.36    1.51
   6  -7   1    9.26    1.53
   6  -7   1    8.10    1.29
  -6   7  -1    9.42    1.58
   6  -7   2   13.89    1.73
   6  -7   2   15.37    1.82
  -6   7  -2   15.38    1.95
   6  -7   3   18.40    2.01
   6  -7   3   15.99    1.85
  -6   7  -3   19.53    2.04
   6  -7   4    6.57    1.40
   6  -7   4    3.08    1.19
  -6   7  -4    5.51    1.35
   6  -7   5   74.09    3.84
  -6   7  -5   68.24    3.81
   6  -7   5   77.17    4.37
  -6   7  -5   74.44    3.92
  -6   7  -6    0.71    1.05
   6  -7   6    3.00    1.12
   6  -7   6    2.73    1.12
  -6   7  -6    2.35    1.08
  -6   7  -7   50.28    3.46
   6  -7   7   60.44    4.06
  -6   7  -8   19.15    2.27
  -6   7  -9   17.45    2.15
   6  -6 -14    3.90    1.51
  -6   6  14    1.29    1.01
   6  -6 -13   17.49    2.31
  -6   6  13   19.87    2.23
   6  -6 -12    2.59    1.02
  -6   6  12    2.58    1.23
  -6   6  12    4.14    1.48
   6  -6 -11    3.18    1.27
  -6   6  11    1.03    0.96
  -6   6  11    4.74    1.60
   6  -6 -10   11.85    1.86
  -6   6  10    6.74    1.48
  -6   6  10    9.28    1.63
   6  -6  -9    1.71    1.12
  -6   6   9    1.96    1.14
  -6   6   9   -1.55    1.17
   6  -6  -8    1.97    1.10
  -6   6   8    5.41    1.31
  -6   6   8    4.49    1.44
   6  -6  -7   55.86    3.53
  -6   6   7   54.83    3.42
  -6   6   7   52.57    3.36
   6  -6  -6   50.80    3.32
   6  -6  -6   46.76    2.10
  -6   6   6   48.88    3.23
   6  -6  -5   50.16    3.23
   6  -6  -5   44.59    2.14
  -6   6   5   47.72    3.09
   6  -6  -4   11.56    1.66
   6  -6  -4   11.37    1.17
  -6   6   4   12.07    1.66
  -6   6   3   56.37    3.35
   6  -6  -3   60.84    3.53
  -6   6   2    5.02    1.25
   6  -6  -2    3.83    1.12
  -6   6   1    0.74    0.84
   6  -6  -1    0.86    0.83
   6  -6  -1    0.84    0.44
  -6   6   0    1.76    0.93
   6  -6   0   -0.13    0.80
   6  -6   0   -0.51    0.57
  -6   6  -1    0.48    0.80
   6  -6   1    1.09    0.94
   6  -6   1    1.11    0.64
  -6   6  -2   13.83    1.72
   6  -6   2   15.40    1.84
   6  -6   2   12.88    1.62
   6  -6   2   15.31    1.42
   6  -6   3   52.57    3.16
   6  -6   3   53.00    3.24
  -6   6  -3   53.86    3.19
   6  -6   4    3.10    1.25
   6  -6   4    0.76    0.83
  -6   6  -4    0.51    0.72
   6  -6   5   30.32    2.45
  -6   6  -5   31.73    2.45
   6  -6   5   36.55    2.85
  -6   6  -5   28.89    2.34
  -6   6  -6    1.98    1.10
   6  -6   6   -0.47    1.02
  -6   6  -6    3.07    1.09
   6  -6   6    3.16    1.23
   6  -6   7   38.84    2.72
  -6   6  -7   31.93    2.64
   6  -6   7   42.75    3.40
  -6   6  -7   32.94    2.57
   6  -6   8   63.20    3.47
  -6   6  -8   62.90    3.78
   6  -6   8   62.95    4.23
  -6   6  -9   34.95    2.90
  -6   6 -10    0.80    1.02
   6  -5 -15    5.06    1.62
   6  -5 -14   -1.65    1.28
  -6   5  14    0.60    1.04
   6  -5 -13    9.76    1.73
  -6   5  13   10.28    1.73
  -6   5  13   13.25    2.10
   6  -5 -12    8.39    1.68
  -6   5  12    5.67    1.34
  -6   5  12    6.08    1.50
   6  -5 -11    6.70    1.46
  -6   5  11    5.61    1.29
  -6   5  11    7.43    1.49
   6  -5 -10   65.65    3.89
  -6   5  10   66.52    3.93
  -6   5  10   68.25    3.77
   6  -5  -9    0.20    0.93
  -6   5   9   -0.53    0.83
  -6   5   9    1.65    0.95
   6  -5  -8   50.96    3.34
  -6   5   8   47.18    3.17
  -6   5   8   51.07    3.20
   6  -5  -7   23.18    2.23
   6  -5  -7   19.04    1.32
  -6   5   7   22.21    2.12
  -6   5   7   18.82    2.01
   6  -5  -6  126.78    5.22
   6  -5  -6  117.75    3.73
  -6   5   6  127.22    5.09
  -6   5   6  124.37    5.06
   6  -5  -5   83.24    4.08
   6  -5  -5   75.26    2.90
  -6   5   5   80.20    3.94
   6  -5  -4   24.84    2.21
   6  -5  -4   23.02    1.58
  -6   5   4   28.91    2.34
  -6   5   3    9.48    1.43
   6  -5  -3    9.78    1.52
  -6   5   2    3.02    1.06
   6  -5  -2    3.72    1.11
  -6   5   1    5.79    1.13
   6  -5  -1    2.61    0.91
   6  -5  -1    4.77    0.68
  -6   5   0   12.34    1.52
   6  -5   0   13.64    1.84
   6  -5   0   12.94    1.13
  -6   5  -1    6.88    1.24
   6  -5   1    6.50    1.21
   6  -5   1    7.13    0.93
   6  -5   2    0.37    0.85
  -6   5  -2    0.91    0.69
   6  -5   2   -0.58    0.53
   6  -5   3   22.57    1.74
   6  -5   3   21.14    2.03
  -6   5  -3   21.24    1.96
   6  -5   4   69.39    3.59
   6  -5   4   68.93    3.68
  -6   5  -4   68.81    3.52
  -6   5  -5   -0.64    0.80
   6  -5   5    0.14    1.05
  -6   5  -5    0.11    0.65
   6  -5   5   -0.32    0.79
   6  -5   6  171.36    5.96
  -6   5  -6  160.89    5.70
   6  -5   6  175.95    6.60
  -6   5  -6  152.90    5.57
  -6   5  -7   10.99    1.52
   6  -5   7   14.46    2.00
   6  -5   7    9.73    1.44
  -6   5  -7    8.22    1.30
   6  -5   8   77.92    3.87
  -6   5  -8   70.72    3.84
   6  -5   8   81.80    4.65
  -6   5  -9    9.97    1.58
   6  -5   9   12.99    2.01
   6  -5   9   12.84    1.65
  -6   5 -10   17.72    2.17
  -6   5 -11   17.54    2.17
   6  -4 -16   14.55    2.16
   6  -4 -15   17.94    2.21
  -6   4  14   15.71    1.94
   6  -4 -14   14.20    2.05
  -6   4  13    7.70    1.38
  -6   4  13   11.64    1.88
   6  -4 -13    9.74    1.74
  -6   4  12    4.27    1.17
  -6   4  12    5.36    1.37
   6  -4 -12    1.90    1.08
  -6   4  11   22.58    2.15
  -6   4  11   18.02    2.13
   6  -4 -11   23.96    2.38
  -6   4  10   52.83    3.42
  -6   4  10   53.64    3.21
   6  -4 -10   44.03    3.17
  -6   4   9    4.56    1.18
  -6   4   9    2.99    1.16
   6  -4  -9    4.09    1.11
  -6   4   9    3.91    0.50
   6  -4  -8   85.19    4.23
  -6   4   8   89.90    4.25
  -6   4   8   90.49    4.14
  -6   4   8   90.58    2.14
  -6   4   8   85.44    2.12
   6  -4  -8   84.92    3.12
   6  -4  -7    0.38    0.92
  -6   4   7    1.44    0.88
  -6   4   7    0.37    0.82
   6  -4  -7    0.76    0.57
  -6   4   7   -0.06    0.21
  -6   4   7    0.16    0.19
   6  -4  -6   17.42    1.88
  -6   4   6   17.60    1.57
  -6   4   6   19.34    1.87
  -6   4   6   16.26    1.76
   6  -4  -6   18.16    1.35
  -6   4   6   17.81    0.65
   6  -4  -5   68.84    3.59
  -6   4   5   62.65    3.33
  -6   4   5   65.34    3.41
   6  -4  -5   58.82    2.57
  -6   4   5   66.65    1.65
  -6   4   5   63.01    2.90
   6  -4  -4  112.82    4.71
  -6   4   4  122.96    4.79
   6  -4  -4  114.50    3.86
  -6   4   4  124.62    2.84
   6  -4  -3    0.25    0.78
  -6   4   3    0.22    0.73
   6  -4  -3    0.70    0.55
  -6   4   3    0.70    0.32
  -6   4   2    3.75    1.08
   6  -4  -2    2.25    0.95
  -6   4   2    3.32    0.54
  -6   4   1    1.87    0.93
   6  -4  -1    0.51    0.87
  -6   4   1   -0.18    0.43
   6  -4  -1   -0.10    0.38
   6  -4   0    7.19    1.28
  -6   4   0    3.48    0.90
  -6   4   0    4.94    0.79
   6  -4   0    4.84    0.74
   6  -4   1    0.74    0.82
  -6   4  -1    1.05    0.85
  -6   4  -1   -0.20    0.50
   6  -4   1    0.62    0.46
   6  -4   2    0.32    0.88
  -6   4  -2    0.68    0.81
  -6   4  -2    0.47    0.55
   6  -4   2    1.35    0.62
   6  -4   3    2.38    1.00
  -6   4  -3    0.92    0.69
   6  -4   3    1.06    0.54
  -6   4  -4   12.50    1.51
   6  -4   4   12.45    1.63
  -6   4  -5   77.30    3.39
  -6   4  -5   74.40    3.55
  -6   4  -6   71.41    3.37
   6  -4   6   69.49    3.90
  -6   4  -6   71.36    3.45
  -6   4  -7   35.84    2.44
   6  -4   7   30.99    2.69
  -6   4  -7   31.43    2.24
  -6   4  -8   10.98    1.45
   6  -4   8   10.98    1.84
  -6   4  -9    3.64    1.09
   6  -4   9    4.06    1.30
  -6   4 -10   49.99    3.36
   6  -4  10   60.26    4.12
  -6   4 -11   10.58    1.77
  -6   4 -12   32.72    2.89
   6  -3 -15    8.85    1.63
   6  -3 -14   20.03    2.29
   6  -3 -13   15.37    1.92
  -6   3  13   18.41    1.98
  -6   3  13   21.24    2.54
   6  -3 -12    3.54    1.25
  -6   3  12    3.31    1.00
  -6   3  12    2.27    1.06
   6  -3 -11   99.38    4.64
  -6   3  11   99.39    4.42
  -6   3  11  104.07    4.93
   6  -3 -10   11.61    1.68
  -6   3  10   12.34    1.65
  -6   3  10   15.89    1.91
   6  -3  -9   83.20    4.13
  -6   3   9   87.05    4.26
  -6   3   9   88.53    4.02
   6  -3  -9   86.84    3.32
   6  -3  -8   83.09    3.99
  -6   3   8   74.39    3.81
  -6   3   8   81.58    3.81
   6  -3  -8   76.94    3.05
  -6   3   8   78.40    2.50
  -6   3   7   34.94    2.20
   6  -3  -7   36.26    2.59
  -6   3   7   32.47    2.44
  -6   3   7   37.42    2.52
   6  -3  -7   29.97    1.82
  -6   3   7   33.17    1.43
   6  -3  -6   22.40    2.06
  -6   3   6   27.62    1.85
  -6   3   6   27.80    2.19
  -6   3   6   27.24    2.19
  -6   3   6   26.11    1.19
   6  -3  -6   22.40    1.56
   6  -3  -5    3.87    1.15
  -6   3   5    2.89    0.78
  -6   3   5    4.68    1.07
  -6   3   5    5.54    1.14
   6  -3  -5    5.06    0.82
  -6   3   5    3.69    0.52
   6  -3  -4   55.52    3.05
  -6   3   4   53.09    2.89
  -6   3   4   56.09    3.08
  -6   3   4   56.70    1.86
   6  -3  -4   54.55    2.50
  -6   3   4   56.18    2.47
   6  -3  -3  118.37    4.63
  -6   3   3  116.90    4.55
  -6   3   3  121.05    3.15
   6  -3  -3  111.51    3.87
   6  -3  -2    0.26    0.78
  -6   3   2   -0.41    0.80
   6  -3  -2    0.69    0.62
  -6   3   2   -0.46    0.40
   6  -3  -1   -0.56    0.76
  -6   3   1    1.55    0.85
   6  -3  -1    0.56    0.61
  -6   3   1    0.86    0.43
   6  -3  -1    0.98    0.49
   6  -3   0    1.50    0.86
  -6   3   0    2.48    0.91
   6  -3   0    0.34    0.54
  -6   3   0    1.78    0.55
   6  -3   0    1.44    0.51
   6  -3   1   14.69    1.59
   6  -3   1   15.27    1.48
  -6   3  -1   13.75    1.50
   6  -3   1   13.49    1.21
   6  -3   1   13.76    1.58
  -6   3  -1   14.08    1.19
  -6   3  -2   14.76    1.57
   6  -3   2   16.42    1.52
   6  -3   2   14.26    1.34
   6  -3   2   18.42    1.84
  -6   3  -2   15.08    1.31
   6  -3   3   67.61    3.12
  -6   3  -3   63.46    3.17
  -6   3  -3   64.38    2.89
   6  -3   3   64.56    2.90
   6  -3   3   60.35    3.25
  -6   3  -4    0.12    0.68
  -6   3  -4   -0.35    0.61
   6  -3   4    1.28    0.89
  -6   3  -4    0.56    0.69
   6  -3   4    1.43    0.76
  -6   3  -5   60.59    2.80
  -6   3  -5   63.66    3.13
  -6   3  -5   58.82    3.05
   6  -3   5   62.35    3.35
  -6   3  -6   27.82    2.06
  -6   3  -6   29.37    2.00
   6  -3   6   35.03    2.53
  -6   3  -7   23.44    1.89
   6  -3   7   23.38    2.11
  -6   3  -8   49.69    2.84
   6  -3   8   50.29    3.47
   6  -3   8   40.48    2.87
  -6   3  -9   42.33    2.75
   6  -3   9   45.22    3.38
   6  -3   9   46.41    3.06
  -6   3 -10   62.00    3.51
   6  -3  10   67.11    4.25
   6  -3  10   67.63    3.75
  -6   3 -11   17.55    1.99
   6  -3  11   19.09    2.50
   6  -3  11   14.02    1.89
  -6   3 -12    0.94    1.16
  -6   3 -13   23.17    2.44
   6  -2 -15    0.37    0.93
   6  -2 -14    2.48    1.31
   6  -2 -13    1.74    1.00
  -6   2  13    1.24    0.78
  -6   2  13    2.11    1.26
   6  -2 -12   10.02    1.55
  -6   2  12   10.99    1.38
  -6   2  12    8.07    1.37
  -6   2  12    9.01    1.63
   6  -2 -11   42.77    2.90
  -6   2  11   40.84    2.67
  -6   2  11   40.78    3.04
  -6   2  11   45.99    2.55
   6  -2 -10   30.00    2.42
  -6   2  10   34.34    2.42
  -6   2  10   30.49    2.59
   6  -2 -10   29.12    2.01
  -6   2  10   32.26    2.11
   6  -2  -9  117.28    4.79
  -6   2   9  117.55    4.64
  -6   2   9  114.13    4.85
   6  -2  -9  112.03    4.10
  -6   2   9  127.15    4.36
  -6   2   8   68.01    3.16
   6  -2  -8   67.55    3.47
  -6   2   8   71.31    3.46
  -6   2   8   69.25    3.56
   6  -2  -8   61.78    2.83
  -6   2   8   63.79    2.99
   6  -2  -7   54.44    3.07
  -6   2   7   54.37    2.67
  -6   2   7   52.71    2.99
  -6   2   7   54.16    2.96
   6  -2  -7   50.04    2.45
  -6   2   7   55.34    2.78
  -6   2   7   51.90    2.10
   6  -2  -6    9.25    1.38
  -6   2   6    9.76    1.14
  -6   2   6    9.65    1.32
  -6   2   6    8.05    1.26
   6  -2  -6    8.46    1.07
  -6   2   6    8.34    1.15
  -6   2   6    7.50    0.81
   6  -2  -5   88.10    3.86
  -6   2   5   81.22    3.09
  -6   2   5   87.99    3.75
  -6   2   5   95.36    3.94
  -6   2   5   88.31    2.72
   6  -2  -5   87.88    3.27
  -6   2   5   89.34    3.64
   6  -2  -4   20.97    1.88
  -6   2   4   20.67    1.40
  -6   2   4   20.82    1.74
  -6   2   4   21.73    1.85
   6  -2  -4   17.55    1.57
  -6   2   4   19.98    1.18
  -6   2   4   21.40    1.73
  -6   2   3    9.55    0.93
  -6   2   3    9.23    1.26
   6  -2  -3   11.53    1.44
  -6   2   3   12.21    1.61
   6  -2  -3   11.32    1.17
  -6   2   3   11.23    0.91
  -6   2   3   10.94    1.26
  -6   2   2   14.88    1.49
   6  -2  -2   14.92    1.58
   6  -2  -2   17.12    1.49
  -6   2   2   15.56    1.10
   6  -2  -2   13.37    1.26
  -6   2   2   17.58    1.66
   6  -2  -1   23.13    1.92
   6  -2  -1   22.76    1.65
  -6   2   1   20.79    1.76
  -6   2   1   22.59    1.36
   6  -2  -1   21.30    1.83
   6  -2   0   30.88    1.91
  -6   2   0   30.62    2.18
  -6   2   0   30.55    1.65
   6  -2   0   27.33    2.07
   6  -2   0   28.33    1.66
  -6   2  -1    0.58    0.67
   6  -2   1    0.43    0.66
   6  -2   1   -0.91    0.79
  -6   2  -1   -0.27    0.51
   6  -2   1    0.01    0.45
  -6   2  -2   74.90    3.41
   6  -2   2   82.04    3.47
   6  -2   2   75.42    3.10
   6  -2   2   78.59    3.09
  -6   2  -2   77.06    3.00
   6  -2   2   76.37    3.52
  -6   2  -3    3.21    0.96
   6  -2   3    2.92    0.77
   6  -2   3    3.05    0.80
   6  -2   3    4.42    1.15
  -6   2  -3    2.44    0.78
   6  -2   3    3.65    0.82
   6  -2   4   13.06    1.37
   6  -2   4   14.21    1.37
  -6   2  -4   11.89    1.42
  -6   2  -4   11.87    1.11
   6  -2   4   12.58    1.53
  -6   2  -4   15.57    1.48
   6  -2   4   13.50    1.38
  -6   2  -5   81.03    3.07
  -6   2  -5   76.91    3.44
   6  -2   5   84.75    3.51
  -6   2  -5   77.87    3.47
   6  -2   5   82.09    3.78
  -6   2  -6   36.67    2.10
   6  -2   6   35.25    2.21
  -6   2  -6   36.19    2.43
   6  -2   6   36.32    2.53
  -6   2  -7   64.83    2.96
   6  -2   7   67.88    3.09
  -6   2  -7   59.21    3.28
   6  -2   7   62.36    3.35
   6  -2   8   95.70    3.72
  -6   2  -8   89.90    3.77
   6  -2   8   87.11    4.08
  -6   2  -9   36.86    2.48
   6  -2   9   41.98    3.15
   6  -2   9   40.64    2.76
  -6   2 -10   85.97    3.97
   6  -2  10   86.64    4.71
   6  -2  10   79.76    4.01
  -6   2 -11   21.88    2.12
   6  -2  11   24.58    2.57
   6  -2  11   25.26    2.31
  -6   2 -12   -0.27    0.95
   6  -2  12   -0.46    0.93
  -6   2 -13   61.74    3.80
  -6   2 -14   14.09    2.01
   6  -1 -14    5.36    1.27
  -6   1  14    5.18    1.18
  -6   1  14    8.92    1.87
   6  -1 -13   -1.25    1.01
  -6   1  13   -0.04    0.84
  -6   1  13   -0.15    0.94
   6  -1 -12   33.44    2.53
  -6   1  12   37.56    2.51
  -6   1  12   34.08    2.90
   6  -1 -11   43.57    2.79
  -6   1  11   44.25    3.16
  -6   1  11   42.67    2.57
   6  -1 -10  111.34    4.58
  -6   1  10  110.15    4.87
   6  -1 -10  105.39    4.21
  -6   1  10  117.50    4.32
  -6   1  10  111.20    3.85
   6  -1  -9   27.16    2.18
  -6   1   9   31.41    2.25
  -6   1   9   29.22    2.39
   6  -1  -9   27.84    1.98
  -6   1   9   29.62    2.02
  -6   1   9   28.77    1.88
  -6   1   8  269.62    7.22
   6  -1  -8  260.69    7.57
  -6   1   8  275.65    7.60
  -6   1   8  272.97    7.89
   6  -1  -8  256.70    7.06
  -6   1   8  269.87    6.97
   6  -1  -7   14.29    1.57
  -6   1   7   16.78    1.45
  -6   1   7   18.19    1.72
  -6   1   7   18.27    1.79
   6  -1  -7   15.04    1.39
  -6   1   7   16.83    1.48
   6  -1  -6   38.23    2.43
  -6   1   6   36.84    2.03
  -6   1   6   37.11    2.38
  -6   1   6   39.11    2.41
   6  -1  -6   37.70    2.15
  -6   1   6   42.82    2.31
  -6   1   6   40.33    1.92
  -6   1   5   16.92    1.28
   6  -1  -5   15.86    1.64
  -6   1   5   15.03    1.52
  -6   1   5   17.22    1.66
   6  -1  -5   15.63    1.37
  -6   1   5   17.79    1.49
  -6   1   5   17.23    1.23
  -6   1   4   12.57    1.06
   6  -1  -4   15.32    1.55
  -6   1   4   13.92    1.43
  -6   1   4    8.23    1.19
   6  -1  -4   13.05    1.24
  -6   1   4   12.69    1.04
  -6   1   4   12.76    1.38
  -6   1   3   10.49    0.88
   6  -1  -3   12.43    1.34
   6  -1  -3   11.71    1.38
  -6   1   3   10.50    1.36
  -6   1   3   10.63    1.25
   6  -1  -3   11.21    1.17
   6  -1  -3   10.69    1.32
  -6   1   3   10.87    0.94
  -6   1   3   14.31    1.38
  -6   1   2    1.43    0.42
   6  -1  -2    2.35    0.75
   6  -1  -2    1.38    0.77
  -6   1   2    2.20    0.79
  -6   1   2    2.40    0.89
   6  -1  -2    3.95    0.85
   6  -1  -2    2.68    0.84
  -6   1   2    1.59    0.51
  -6   1   2    2.15    0.71
   6  -1  -1    1.53    0.76
  -6   1   1    1.26    0.72
   6  -1  -1    2.14    0.69
   6  -1  -1    2.03    0.77
  -6   1   1    1.57    0.55
  -6   1   1    0.95    0.67
  -6   1   0   38.85    2.34
   6  -1   0   41.76    2.37
   6  -1   0   40.99    2.06
  -6   1   0   38.16    1.86
   6  -1   0   38.76    2.34
  -6   1   0   41.77    2.39
   6  -1   0   34.13    1.85
  -6   1  -1   19.86    1.75
   6  -1   1   19.10    1.38
   6  -1   1   19.74    1.63
  -6   1  -1   18.71    1.38
  -6   1  -1   17.58    1.62
   6  -1   1   18.86    1.41
   6  -1   1   19.96    1.71
  -6   1  -2   58.18    2.91
   6  -1   2   54.45    2.42
   6  -1   2   60.84    2.89
  -6   1  -2   58.01    2.54
   6  -1   2   57.92    2.96
   6  -1   2   54.20    2.51
  -6   1  -3   26.84    1.36
  -6   1  -3   26.26    1.91
   6  -1   3   23.38    1.57
   6  -1   3   27.13    1.87
   6  -1   3   25.72    1.74
  -6   1  -3   26.88    1.79
   6  -1   3   30.10    2.15
  -6   1  -4   84.88    2.76
   6  -1   4   81.36    3.11
   6  -1   4   84.95    3.46
   6  -1   4   84.80    3.45
  -6   1  -4   83.54    3.40
   6  -1   4   82.11    3.65
  -6   1  -5   56.57    2.31
   6  -1   5   53.43    2.69
  -6   1  -5   58.67    2.92
   6  -1   5   65.15    3.21
  -6   1  -6  174.93    4.88
   6  -1   6  173.14    5.31
  -6   1  -6  168.29    5.61
   6  -1   6  176.74    5.81
  -6   1  -7   57.45    2.63
   6  -1   7   58.99    2.84
  -6   1  -7   59.45    3.22
   6  -1   7   58.91    3.17
  -6   1  -8   68.72    3.04
   6  -1   8   63.18    2.90
  -6   1  -8   68.13    3.60
   6  -1   8   69.92    3.52
   6  -1   9   23.56    1.73
  -6   1  -9   26.33    1.98
   6  -1   9   23.51    2.08
  -6   1  -9   22.70    2.21
  -6   1 -10  145.35    5.20
   6  -1  10  149.64    6.18
   6  -1  10  144.96    5.49
  -6   1 -11   24.73    2.16
   6  -1  11   26.13    2.63
   6  -1  11   22.78    2.20
  -6   1 -12    7.83    1.35
   6  -1  12   10.48    1.92
   6  -1  12    9.70    1.80
  -6   1 -13   18.50    2.10
   6  -1  13   22.42    2.21
  -6   1 -14    2.80    1.18
  -6   0  15   15.01    1.96
  -6   0  14   29.95    2.55
   6   0 -13   17.18    1.77
  -6   0  13   17.25    1.87
  -6   0  13   14.65    2.00
   6   0 -12    3.18    1.08
  -6   0  12    3.55    1.02
  -6   0  12    5.12    1.48
   6   0 -11  177.69    5.99
  -6   0  11  191.39    6.90
  -6   0  11  187.92    6.14
   6   0 -10   13.46    1.58
  -6   0  10   11.99    1.71
  -6   0  10   12.32    1.51
  -6   0  10   12.06    1.16
   6   0  -9  109.07    4.37
  -6   0   9  117.25    4.85
  -6   0   9  114.17    4.36
  -6   0   9  118.46    3.80
  -6   0   8   72.46    3.18
   6   0  -8   75.42    3.42
  -6   0   8   70.72    3.56
   6   0  -8   70.75    3.25
  -6   0   8   72.68    3.28
  -6   0   8   68.92    2.83
  -6   0   7    5.12    0.86
   6   0  -7    7.34    1.26
  -6   0   7    5.94    1.07
   6   0  -7    7.00    1.05
  -6   0   7    6.20    1.06
  -6   0   7    7.65    0.97
   6   0  -6   92.54    3.79
  -6   0   6   98.55    3.42
  -6   0   6  100.29    3.95
   6   0  -6   99.96    3.93
  -6   0   6   94.58    3.87
   6   0  -6   98.58    3.70
  -6   0   6  101.13    3.57
  -6   0   5    1.02    0.50
  -6   0   5    1.18    0.69
   6   0  -5    1.86    0.89
   6   0  -5    0.70    0.59
  -6   0   5    1.51    0.72
   6   0  -5   -0.07    0.51
  -6   0   5    1.50    0.61
  -6   0   5    0.54    0.54
   6   0  -4  105.79    4.02
  -6   0   4  106.92    3.19
  -6   0   4  108.64    4.09
  -6   0   4  106.03    3.81
   6   0  -4  111.68    4.10
   6   0  -4  104.76    3.75
  -6   0   4  106.54    3.41
  -6   0   4  109.89    3.84
   6   0  -4   97.26    3.68
  -6   0   3    0.82    0.36
  -6   0   3    1.14    0.75
   6   0  -3    2.12    0.86
   6   0  -3    1.09    0.64
  -6   0   3   -0.23    0.60
   6   0  -3    1.62    0.63
  -6   0   3    0.93    0.70
   6   0  -3    1.19    0.73
  -6   0   3    1.35    0.58
  -6   0   2    1.09    0.34
  -6   0   2    1.70    0.80
   6   0  -2    1.07    0.59
  -6   0   2    1.74    0.66
   6   0  -2    1.65    0.66
  -6   0   2    0.90    0.62
   6   0  -2    1.87    0.81
  -6   0   2    0.60    0.46
  -6   0   1   -0.20    0.24
  -6   0   1   -0.42    0.70
   6   0  -1   -0.46    0.62
  -6   0   1    0.34    0.59
   6   0  -1    0.65    0.53
  -6   0   1   -0.75    0.65
   6   0  -1   -0.05    0.66
  -6   0   1   -0.52    0.56
  -6   0   0   22.51    1.77
   6   0   0   20.71    1.40
   6   0   0   23.54    1.76
  -6   0   0   22.76    1.46
   6   0   0   24.14    1.87
  -6   0   0   23.00    0.90
  -6   0   0   23.09    1.74
   6   0   1   16.93    1.50
  -6   0  -1   14.93    1.49
   6   0   1   13.56    1.09
  -6   0  -1   15.52    1.46
   6   0   1   12.98    1.23
   6   0   1   14.45    1.46
  -6   0  -1   14.09    1.23
  -6   0  -2   24.86    0.99
   6   0   2   21.56    1.37
   6   0   2   21.57    1.67
  -6   0  -2   26.17    1.71
  -6   0  -2   25.17    1.80
   6   0   2   21.77    1.75
   6   0   2   22.63    1.61
  -6   0  -3  428.80    8.24
   6   0   3  408.91    9.02
   6   0   3  433.94    9.99
  -6   0  -3  422.08    9.67
   6   0   3  432.66    9.80
   6   0   3  417.16   10.14
  -6   0  -3  450.61   10.40
  -6   0  -4   46.19    1.73
   6   0   4   45.18    2.06
   6   0   4   44.96    2.42
   6   0   4   49.85    2.55
  -6   0  -4   51.70    2.56
   6   0   4   45.13    2.59
  -6   0  -5  220.11    5.20
   6   0   5  213.11    6.08
   6   0   5  223.79    6.40
  -6   0  -5  220.12    6.32
   6   0   5  212.85    6.46
  -6   0  -6   59.14    2.33
   6   0   6   58.64    2.75
  -6   0  -6   60.63    3.04
   6   0   6   51.75    2.89
  -6   0  -7   65.45    2.66
   6   0   7   61.80    2.84
  -6   0  -7   66.67    3.38
   6   0   7   68.00    3.35
  -6   0  -8  280.40    7.05
   6   0   8  270.37    7.10
  -6   0  -8  271.98    8.02
   6   0   8  282.69    7.94
   6   0   9    5.87    0.94
  -6   0  -9    5.15    0.97
  -6   0  -9    5.27    1.20
   6   0   9    3.86    1.06
  -6   0 -10  239.69    6.88
  -6   0 -10  244.68    7.95
   6   0  10  235.12    7.33
  -6   0 -11   39.93    2.60
  -6   0 -11   41.49    3.16
   6   0  11   47.64    3.37
   6   0  11   37.41    2.71
  -6   0 -12   42.42    2.83
   6   0  12   42.69    3.35
   6   0  12   44.37    2.98
  -6   0 -13    4.88    1.49
   6   0  13    6.85    1.71
   6   0  13    4.61    1.24
  -6   0 -14   16.05    2.01
   6   0  14   15.89    1.91
  -6   0 -15   -0.81    1.00
  -6  -1  15    1.94    1.13
   6   1 -14    5.81    1.48
  -6  -1  14    4.51    1.26
  -6  -1  13   52.01    3.35
   6   1 -13   49.78    3.48
   6   1 -12   19.11    1.72
   6   1 -12   13.09    1.85
  -6  -1  12   14.33    1.75
   6   1 -11   44.35    2.60
  -6  -1  11   41.53    2.81
   6   1 -11   36.26    2.72
   6   1 -10   99.48    4.01
  -6  -1  10  104.91    4.36
   6   1 -10  100.17    4.31
   6   1  -9   27.49    2.02
  -6  -1   9   30.21    2.24
  -6  -1   9   31.47    1.68
   6   1  -9   33.06    2.28
  -6  -1   8   13.98    1.38
   6   1  -8   14.65    1.49
   6   1  -8   16.25    1.56
   6   1  -8   15.07    1.51
  -6  -1   8   15.54    1.58
  -6  -1   8   13.55    1.18
   6   1  -7  163.72    5.23
  -6  -1   7  159.63    4.95
   6   1  -7  172.82    5.39
  -6  -1   7  169.64    5.60
  -6  -1   7  170.64    5.43
   6   1  -7  178.72    5.54
   6   1  -7  161.29    5.00
  -6  -1   7  162.89    4.66
   6   1  -6   93.05    3.66
  -6  -1   6   90.14    3.26
   6   1  -6   99.02    3.82
  -6  -1   6   95.57    3.85
  -6  -1   6   95.61    3.74
   6   1  -6   97.68    3.77
  -6  -1   6   91.88    3.28
   6   1  -5   58.33    2.80
  -6  -1   5   57.23    2.31
  -6  -1   5   57.34    2.88
   6   1  -5   59.88    2.85
   6   1  -5   59.93    2.80
  -6  -1   5   55.06    2.48
   6   1  -5   57.20    2.55
  -6  -1   4    9.92    0.86
   6   1  -4    9.16    1.16
   6   1  -4    8.69    1.13
  -6  -1   4    9.55    1.16
   6   1  -4    8.37    1.11
  -6  -1   4    8.92    1.03
   6   1  -4   10.45    1.15
  -6  -1   4    9.00    1.06
  -6  -1   3   51.44    1.83
  -6  -1   3   49.71    2.35
   6   1  -3   55.46    2.70
   6   1  -3   51.87    2.54
   6   1  -3   50.49    2.45
  -6  -1   3   55.60    2.51
  -6  -1   3   52.49    2.34
  -6  -1   2  213.46    4.61
  -6  -1   2  222.32    5.67
   6   1  -2  226.65    6.27
   6   1  -2  227.03    6.12
   6   1  -2  218.01    5.95
  -6  -1   2  231.19    6.06
  -6  -1   2  215.47    5.62
  -6  -1   1   47.38    1.32
  -6  -1   1   49.27    2.12
   6   1  -1   52.11    2.59
  -6  -1   1   48.14    2.20
   6   1  -1   50.27    2.48
   6   1  -1   47.84    2.46
  -6  -1   1   49.62    2.46
  -6  -1   0   83.13    2.79
   6   1   0   86.46    3.42
  -6  -1   0   81.99    3.00
   6   1   0   86.85    3.38
   6   1   0   75.74    3.23
  -6  -1   0   83.51    3.34
   6   1   1    3.49    0.77
   6   1   1    2.27    0.54
  -6  -1  -1    3.26    0.82
  -6  -1  -1    2.23    0.72
   6   1   1    3.39    0.90
   6   1   1    1.35    0.55
   6   1   2  103.67    3.07
   6   1   2  107.40    3.89
  -6  -1  -2  104.87    3.62
   6   1   2  101.94    3.87
   6   1   2  107.88    3.72
  -6  -1  -2  113.61    4.06
  -6  -1  -3   98.82    2.19
   6   1   3   96.02    2.89
   6   1   3   94.94    3.63
  -6  -1  -3  100.27    3.60
   6   1   3   91.56    3.71
  -6  -1  -3   98.84    3.82
   6   1   3   96.62    3.60
  -6  -1  -4  106.16    2.62
   6   1   4  103.38    3.07
   6   1   4  102.29    3.81
  -6  -1  -4  106.56    3.89
   6   1   4  108.54    3.95
   6   1   4   99.43    3.94
  -6  -1  -4  108.88    4.12
  -6  -1  -5  430.03    8.49
   6   1   5  419.65    8.84
   6   1   5  432.47    9.89
  -6  -1  -5  413.28   10.01
   6   1   5  448.91   10.26
   6   1   5  417.72   10.22
   6   1   6    8.93    1.08
  -6  -1  -6    8.07    0.81
  -6  -1  -6    7.22    1.20
   6   1   6    7.57    1.22
  -6  -1  -7  165.30    4.47
   6   1   7  159.52    4.95
  -6  -1  -7  160.76    5.49
   6   1   7  161.51    5.46
  -6  -1  -8   96.05    3.35
   6   1   8   92.20    3.51
  -6  -1  -8   93.84    4.14
   6   1   8   90.50    3.99
  -6  -1  -9  241.96    6.40
   6   1   9  235.45    6.34
  -6  -1  -9  233.32    7.40
   6   1   9  235.36    7.16
  -6  -1 -10   88.19    3.59
   6   1  10   84.79    3.31
  -6  -1 -10   89.45    4.34
   6   1  10   86.96    4.01
  -6  -1 -11   -1.05    0.89
  -6  -1 -11   -2.07    1.23
   6   1  11   -0.17    0.85
  -6  -1 -12    0.39    0.76
   6   1  12    0.18    0.92
  -6  -1 -12    0.75    1.00
   6   1  12    0.09    0.79
  -6  -1 -13    1.89    0.84
   6   1  13    4.46    1.35
   6   1  13    4.12    1.20
  -6  -1 -14    5.41    1.35
   6   1  14    4.43    1.41
   6   1  14    6.56    1.47
  -6  -1 -15    1.56    1.22
  -6  -1 -16   31.75    2.91
  -6  -2  15    3.49    1.26
  -6  -2  14   27.17    2.66
   6   2 -14   33.56    3.06
   6   2 -13   23.54    2.41
  -6  -2  13   22.84    2.30
  -6  -2  12   30.56    2.60
   6   2 -12   31.56    2.63
   6   2 -11   58.47    3.43
   6   2 -11   57.07    2.83
  -6  -2  11   57.54    3.46
   6   2 -10   28.74    2.25
   6   2 -10   33.04    2.13
   6   2 -10   32.66    2.18
  -6  -2  10   31.90    2.45
   6   2  -9  108.06    4.38
   6   2  -9  115.04    4.13
   6   2  -9  111.21    4.17
  -6  -2   9  115.83    4.65
  -6  -2   9  115.54    3.28
  -6  -2   8    0.54    0.65
   6   2  -8   -0.43    0.69
   6   2  -8    0.81    0.65
   6   2  -8    1.07    0.70
  -6  -2   8   -0.51    0.82
  -6  -2   8    0.17    0.42
   6   2  -7   34.77    2.09
   6   2  -7   37.33    2.17
  -6  -2   7   36.11    2.13
   6   2  -7   33.52    2.14
  -6  -2   7   33.80    2.31
  -6  -2   7   34.03    1.73
   6   2  -6   43.19    2.31
  -6  -2   6   43.98    2.16
   6   2  -6   42.28    2.37
  -6  -2   6   42.48    2.50
   6   2  -6   42.36    2.50
   6   2  -6   42.91    2.19
  -6  -2   6   42.40    2.01
   6   2  -5   75.62    3.14
  -6  -2   5   76.83    2.79
   6   2  -5   77.12    3.29
  -6  -2   5   84.67    3.48
   6   2  -5   78.33    3.35
   6   2  -5   75.39    2.86
   6   2  -5   74.35    2.78
  -6  -2   5   74.62    2.85
   6   2  -4   27.83    1.85
  -6  -2   4   25.62    1.39
  -6  -2   4   26.12    1.76
   6   2  -4   26.12    1.84
  -6  -2   4   25.96    1.87
   6   2  -4   25.18    1.83
   6   2  -4   23.37    1.55
   6   2  -4   24.54    1.41
  -6  -2   4   24.40    1.60
  -6  -2   3   11.50    0.83
   6   2  -3   14.88    1.37
  -6  -2   3   13.10    1.19
   6   2  -3   15.23    1.45
  -6  -2   3   13.21    1.23
   6   2  -3   11.33    1.16
  -6  -2   3   11.15    1.19
  -6  -2   2  132.32    3.13
  -6  -2   2  133.90    3.95
   6   2  -2  145.80    4.65
   6   2  -2  144.57    4.60
   6   2  -2  124.50    4.14
  -6  -2   2  137.76    4.24
  -6  -2   2  139.00    4.29
  -6  -2   1   56.97    2.23
   6   2  -1   56.33    2.74
   6   2  -1   60.41    2.75
   6   2  -1   56.19    2.58
  -6  -2   1   53.84    2.47
  -6  -2   1   60.53    2.66
  -6  -2   0  172.13    4.44
   6   2   0  192.82    5.52
   6   2   0  188.51    5.43
  -6  -2   0  177.94    5.05
   6   2   0  174.10    5.22
  -6  -2   0  185.58    5.33
   6   2   1   15.96    1.47
   6   2   1   16.31    1.46
  -6  -2  -1   18.75    1.54
   6   2   1   14.58    1.44
  -6  -2  -1   15.74    1.31
   6   2   2  232.63    6.33
  -6  -2  -2  219.69    6.00
   6   2   2  215.89    6.20
  -6  -2  -2  245.63    6.47
   6   2   2  229.20    6.13
   6   2   3  109.53    2.93
   6   2   3  120.32    4.10
  -6  -2  -3  116.47    3.95
   6   2   3  112.81    4.10
   6   2   3  120.50    4.07
  -6  -2  -3  119.75    4.23
   6   2   4  103.33    2.82
   6   2   4  109.05    3.92
  -6  -2  -4  110.59    3.91
   6   2   4  106.67    4.03
   6   2   4  107.22    3.94
  -6  -2  -4  116.78    4.21
  -6  -2  -5   68.59    1.98
   6   2   5   67.12    2.14
   6   2   5   67.60    2.97
   6   2   5   73.20    3.21
  -6  -2  -5   67.80    3.09
   6   2   5   64.67    3.12
  -6  -2  -5   69.68    3.22
  -6  -2  -6  147.79    3.72
   6   2   6  144.62    4.68
  -6  -2  -6  146.24    4.98
   6   2   6  148.95    5.08
  -6  -2  -7  252.36    5.87
   6   2   7  254.34    6.69
  -6  -2  -7  241.54    7.14
   6   2   7  247.44    7.14
  -6  -2  -8  204.90    5.27
   6   2   8  196.55    5.66
  -6  -2  -8  197.86    6.37
   6   2   8  191.01    6.17
  -6  -2  -9   33.34    1.92
   6   2   9   33.11    2.00
  -6  -2  -9   32.30    2.44
   6   2   9   33.94    2.39
  -6  -2 -10  149.07    4.76
   6   2  10  142.46    4.56
  -6  -2 -10  141.54    5.58
   6   2  10  144.70    5.32
  -6  -2 -11    0.26    0.74
  -6  -2 -11    0.44    0.86
   6   2  11    1.20    0.94
  -6  -2 -12   13.96    1.61
  -6  -2 -12   12.65    1.92
   6   2  12    9.59    1.47
  -6  -2 -13   -0.19    0.75
  -6  -2 -13    1.36    1.16
   6   2  13   -1.03    0.94
  -6  -2 -14    6.63    1.50
   6   2  14    7.91    1.70
   6   2  14    5.67    1.23
  -6  -2 -15   -1.20    1.04
   6   2  15   -0.65    0.98
  -6  -2 -16   41.82    3.22
   6   3 -14   35.58    3.13
  -6  -3  14   32.62    3.16
   6   3 -13   53.03    3.63
  -6  -3  13   50.02    3.57
   6   3 -12   35.78    2.96
  -6  -3  12   33.84    2.83
   6   3 -11    7.61    0.99
   6   3 -11    5.14    1.18
  -6  -3  11    5.58    1.29
   6   3 -10    6.84    0.96
   6   3 -10    8.83    1.41
  -6  -3  10    6.77    1.34
   6   3  -9   57.65    3.11
   6   3  -9   58.39    2.68
   6   3  -9   53.26    2.74
  -6  -3   9   53.70    3.19
   6   3  -8   99.41    4.00
   6   3  -8   96.26    3.58
   6   3  -8   99.54    3.84
  -6  -3   8  100.86    4.30
  -6  -3   8  100.43    2.94
   6   3  -7   94.75    3.49
   6   3  -7   89.67    3.60
  -6  -3   7  103.91    3.80
   6   3  -7   98.39    3.79
  -6  -3   7   93.33    4.05
  -6  -3   7   95.11    2.99
   6   3  -6  148.45    4.56
   6   3  -6  143.07    4.49
  -6  -3   6  144.43    4.50
   6   3  -6  148.58    4.84
  -6  -3   6  145.93    5.08
  -6  -3   6  147.53    4.09
   6   3  -6  141.19    4.04
   6   3  -5    6.89    0.91
   6   3  -5    8.13    1.11
   6   3  -5    7.65    1.05
   6   3  -5    8.03    1.19
  -6  -3   5    7.32    1.18
   6   3  -5    8.35    0.93
  -6  -3   5    7.14    0.88
   6   3  -4   30.55    1.60
   6   3  -4   31.18    2.00
  -6  -3   4   34.62    2.20
   6   3  -4   29.56    2.05
   6   3  -4   28.21    1.66
  -6  -3   4   29.09    1.71
   6   3  -3   58.20    2.07
   6   3  -3   62.91    2.91
  -6  -3   3   62.41    2.94
   6   3  -3   61.99    2.94
   6   3  -3   55.63    2.44
  -6  -3   3   58.98    2.52
  -6  -3   2   33.55    1.75
   6   3  -2   34.71    2.12
   6   3  -2   39.32    2.24
   6   3  -2   34.24    1.34
   6   3  -2   31.71    1.87
  -6  -3   2   34.58    2.03
  -6  -3   2   34.30    1.91
  -6  -3   1   13.18    1.02
   6   3  -1   16.00    1.47
   6   3  -1   17.61    1.48
  -6  -3   1   15.82    1.34
   6   3  -1   12.30    1.23
  -6  -3   1   12.65    1.28
   6   3   0  210.68    5.90
  -6  -3   0  190.98    4.69
   6   3   0  223.04    6.01
   6   3   0  194.09    5.55
  -6  -3   0  206.42    5.64
  -6  -3   0  208.61    5.71
   6   3   1   19.44    1.55
  -6  -3  -1   18.17    1.02
   6   3   1   20.12    1.60
  -6  -3  -1   19.89    1.54
   6   3   1   19.06    1.58
  -6  -3  -1   20.33    1.57
   6   3   2  103.27    3.79
  -6  -3  -2   98.96    3.62
   6   3   2  102.85    3.85
   6   3   2   99.70    3.74
  -6  -3  -2  107.59    3.84
   6   3   3   52.35    2.59
  -6  -3  -3   45.56    2.39
   6   3   3   50.84    2.59
   6   3   3   53.84    2.59
  -6  -3  -3   51.33    2.58
   6   3   4   87.03    3.43
  -6  -3  -4   88.21    3.47
   6   3   4   82.88    3.50
   6   3   4   92.42    3.58
  -6  -3  -4   89.69    3.65
   6   3   5  204.92    5.85
   6   3   5  198.93    4.14
  -6  -3  -5  190.23    5.82
   6   3   5  196.85    5.99
   6   3   5  214.11    6.11
  -6  -3  -5  214.80    6.20
   6   3   6  122.15    4.21
   6   3   6  118.81    2.88
  -6  -3  -6  122.38    4.45
   6   3   6  122.79    4.47
   6   3   7  158.24    4.96
  -6  -3  -7  157.74    5.37
  -6  -3  -7  160.48    4.12
   6   3   7  161.57    5.38
   6   3   8  393.10    9.36
  -6  -3  -8  386.16   10.07
  -6  -3  -8  409.14    8.68
   6   3   8  397.90   10.00
   6   3   9    0.48    0.57
  -6  -3  -9    1.40    0.67
   6   3   9    1.81    0.93
  -6  -3  -9    0.61    0.76
   6   3  10   12.51    1.27
  -6  -3 -10   14.86    1.40
  -6  -3 -10   12.87    1.65
   6   3  10   14.23    1.62
   6   3  11    5.07    0.93
  -6  -3 -11    3.62    0.89
  -6  -3 -11    4.70    1.25
   6   3  11    3.70    1.01
  -6  -3 -12    7.55    1.23
  -6  -3 -12    8.61    1.58
   6   3  12    9.31    1.46
  -6  -3 -13    2.66    0.88
  -6  -3 -13    7.24    1.60
   6   3  13    3.49    1.04
  -6  -3 -14    3.22    1.05
   6   3  14    4.17    1.28
   6   3  14    1.12    0.90
  -6  -3 -14    3.22    1.24
  -6  -3 -15    1.60    1.00
   6   3  15    0.94    1.12
   6   3  15    1.21    1.05
  -6  -3 -16   17.68    2.17
   6   4 -13   25.41    2.61
  -6  -4  13   28.01    2.78
   6   4 -12   13.11    1.88
  -6  -4  12   14.99    2.13
   6   4 -11  105.78    4.87
  -6  -4  11  111.49    5.21
   6   4 -10   26.06    2.32
   6   4 -10   26.68    1.65
  -6  -4  10   28.69    2.54
   6   4  -9   67.70    3.51
   6   4  -9   76.23    2.91
  -6  -4   9   78.10    3.96
   6   4  -9   68.83    3.13
   6   4  -8   53.05    2.89
   6   4  -8   50.76    2.35
   6   4  -8   54.30    2.71
  -6  -4   8   45.99    2.98
   6   4  -7   29.18    1.74
   6   4  -7   28.74    2.01
   6   4  -7   26.54    1.92
  -6  -4   7   25.41    2.13
  -6  -4   7   27.30    1.37
   6   4  -6   28.23    1.73
   6   4  -6   28.73    1.87
   6   4  -6   27.92    1.91
  -6  -4   6   26.56    2.12
   6   4  -6   27.34    1.44
  -6  -4   6   27.93    1.50
   6   4  -5   45.92    2.22
   6   4  -5   41.05    2.10
   6   4  -5   47.41    2.50
  -6  -4   5   39.08    2.49
  -6  -4   5   43.55    1.99
   6   4  -5   43.54    1.94
   6   4  -4   27.86    1.56
   6   4  -4   26.09    1.84
  -6  -4   4   25.68    2.00
   6   4  -4   22.86    1.46
  -6  -4   4   25.22    1.54
   6   4  -3   10.02    0.92
   6   4  -3   11.04    1.22
   6   4  -3   13.55    1.42
  -6  -4   3   12.03    1.41
   6   4  -3   11.09    1.07
  -6  -4   3   10.10    1.01
   6   4  -2    0.49    0.37
   6   4  -2    0.55    0.56
  -6  -4   2    0.93    0.76
   6   4  -2   -0.26    0.59
   6   4  -2    0.50    0.62
  -6  -4   2    0.33    0.55
   6   4  -1   29.60    1.15
   6   4  -1   29.99    1.95
   6   4  -1   33.85    2.08
   6   4  -1   29.24    1.79
  -6  -4   1   27.99    1.87
  -6  -4   1   28.54    1.77
   6   4   0  122.51    2.54
   6   4   0  129.02    4.36
  -6  -4   0  117.12    3.22
   6   4   0  125.86    4.33
   6   4   0  120.49    4.00
  -6  -4   0  122.66    4.14
  -6  -4   0  124.86    4.09
   6   4   1   83.62    3.38
  -6  -4  -1   81.34    2.31
   6   4   1   85.87    3.44
  -6  -4  -1   83.53    3.33
   6   4   1   85.24    3.28
  -6  -4  -1   89.62    3.39
   6   4   2  111.40    4.01
   6   4   2  112.56    4.07
  -6  -4  -2  108.76    3.89
   6   4   2  104.23    3.84
  -6  -4  -2  116.57    4.03
   6   4   3  116.08    4.10
  -6  -4  -3  111.88    4.01
   6   4   3  122.97    4.25
   6   4   3  116.51    4.10
   6   4   3  102.05    3.91
  -6  -4  -3  121.54    4.20
   6   4   4   35.60    2.15
  -6  -4  -4   33.76    2.15
   6   4   4   34.87    2.18
   6   4   4   37.64    2.27
  -6  -4  -4   37.02    2.26
   6   4   5  447.11    8.55
   6   4   5  479.32   10.65
  -6  -4  -5  451.22   10.64
   6   4   5  490.68   10.94
   6   4   5  455.67   10.72
  -6  -4  -5  479.77   10.95
   6   4   6    0.41    0.54
   6   4   6    0.94    0.39
   6   4   6   -0.12    0.74
  -6  -4  -6    0.75    0.79
   6   4   7  228.82    5.39
   6   4   7  238.02    6.51
   6   4   7  236.23    4.53
  -6  -4  -7  229.95    6.83
   6   4   7  235.82    6.86
   6   4   8  208.71    5.27
   6   4   8  212.68    6.03
  -6  -4  -8  209.15    6.52
   6   4   8  205.17    6.42
   6   4   9   63.89    2.66
   6   4   9   65.37    2.97
  -6  -4  -9   70.20    3.55
   6   4   9   66.73    3.39
   6   4  10    1.37    0.69
   6   4  10    0.60    0.59
   6   4  10    0.58    0.82
  -6  -4 -10    0.58    0.88
   6   4  11    0.65    0.59
   6   4  11    2.01    0.73
   6   4  11    0.80    0.83
  -6  -4 -11    3.53    1.16
   6   4  12    7.33    1.38
  -6  -4 -12    7.52    1.52
   6   4  13   21.21    2.19
  -6  -4 -13   22.82    2.40
   6   4  14    1.58    1.08
  -6  -4 -14   -0.32    0.94
   6   4  14    0.78    0.91
   6   4  15    1.67    1.03
  -6  -4 -15    0.80    1.19
   6   4  15    0.98    0.98
   6   4  16    9.18    1.81
   6   4  16   11.27    1.87
   6   5 -13    0.50    0.94
  -6  -5  13    2.01    1.25
   6   5 -12   24.17    2.49
  -6  -5  12   22.83    2.51
   6   5 -11  126.00    5.52
  -6  -5  11  135.09    5.93
   6   5 -10   49.56    3.20
  -6  -5  10   51.68    3.46
   6   5  -9  170.28    6.09
   6   5  -9  183.31    4.76
  -6  -5   9  180.24    6.63
   6   5  -8   -0.28    0.49
   6   5  -8    0.31    0.82
  -6  -5   8   -0.40    1.02
   6   5  -8    1.64    0.74
   6   5  -7   69.16    2.63
   6   5  -7   63.20    3.11
   6   5  -7   66.27    3.09
  -6  -5   7   68.05    3.62
   6   5  -6   68.10    2.67
   6   5  -6   69.87    3.09
   6   5  -6   66.85    3.09
  -6  -5   6   69.10    3.53
   6   5  -6   66.38    2.29
   6   5  -5    5.92    0.90
   6   5  -5    6.10    0.88
   6   5  -5    5.02    0.96
  -6  -5   5    4.43    1.17
  -6  -5   5    3.59    0.66
   6   5  -5    3.65    0.63
   6   5  -4    2.53    0.71
   6   5  -4    0.83    0.72
  -6  -5   4    1.55    0.85
  -6  -5   4    1.58    0.52
   6   5  -4    1.38    0.54
   6   5  -3    4.01    0.74
   6   5  -3    5.47    0.98
  -6  -5   3    2.19    0.91
  -6  -5   3    3.53    0.70
   6   5  -3    4.13    0.77
   6   5  -2   30.55    1.48
   6   5  -2   32.55    2.07
  -6  -5   2   31.70    2.15
   6   5  -2   33.67    2.20
  -6  -5   2   28.91    1.77
   6   5  -2   33.60    1.83
   6   5  -1   31.42    1.37
  -6  -5   1   39.52    2.35
   6   5  -1   37.08    2.25
  -6  -5   1   34.14    1.96
   6   5  -1   33.14    1.90
   6   5   0  319.12    6.31
   6   5   0  334.30    8.28
  -6  -5   0  326.03    7.83
   6   5   0  300.31    7.61
  -6  -5   0  325.36    8.08
   6   5   1    2.59    0.35
  -6  -5  -1    2.98    0.46
   6   5   1    3.19    0.85
   6   5   1    2.43    0.72
  -6  -5  -1    2.13    0.74
  -6  -5  -1    2.30    0.82
   6   5   2  321.21    5.89
  -6  -5  -2  316.88    6.09
   6   5   2  340.58    8.29
  -6  -5  -2  343.34    8.18
  -6  -5  -2  320.67    8.08
   6   5   2  314.06    7.94
   6   5   3   65.86    1.53
  -6  -5  -3   63.97    2.94
   6   5   3   66.97    3.09
  -6  -5  -3   69.86    3.09
   6   5   3   66.07    3.01
   6   5   4   23.81    0.89
   6   5   4   26.05    1.89
  -6  -5  -4   26.96    1.93
  -6  -5  -4   23.74    1.84
   6   5   4   22.14    1.70
   6   5   4   27.24    2.00
   6   5   5  253.13    5.27
  -6  -5  -5  248.99    7.04
  -6  -5  -5  272.50    7.33
   6   5   5  281.38    7.35
   6   5   5  261.52    7.17
   6   5   6    1.27    0.40
   6   5   6    0.95    0.78
  -6  -5  -6    1.05    0.76
   6   5   7  173.28    4.36
  -6  -5  -7  179.52    5.76
   6   5   7  178.33    5.77
   6   5   8   58.81    2.33
  -6  -5  -8   58.71    3.17
   6   5   8   59.78    3.14
   6   5   9  115.19    3.72
  -6  -5  -9  118.49    4.72
   6   5   9  118.48    4.68
   6   5  10    4.48    0.97
   6   5  10    2.77    0.84
   6   5  10    3.70    1.14
  -6  -5 -10    4.36    1.08
   6   5  11    1.60    0.73
   6   5  11    1.35    0.67
   6   5  11    0.90    0.83
  -6  -5 -11    2.16    1.12
   6   5  12    0.97    0.77
   6   5  12   -0.41    0.96
  -6  -5 -12    1.01    0.94
   6   5  13    1.59    1.01
  -6  -5 -13    0.99    1.06
  -6  -5 -14   30.76    2.80
   6   5  14   32.60    2.65
   6   5  15   10.19    1.77
   6   5  15    9.67    1.68
  -6  -5 -15   13.76    2.18
   6   5  16   63.40    4.16
   6   5  16   62.62    3.80
   6   6 -12   66.13    4.09
  -6  -6  12   53.53    3.93
   6   6 -11   26.22    2.60
  -6  -6  11   21.20    2.41
   6   6 -10   45.68    3.14
  -6  -6  10   45.50    3.33
   6   6  -9  109.00    4.76
  -6  -6   9  111.37    5.18
   6   6  -8   68.43    3.52
   6   6  -8   69.23    2.41
  -6  -6   8   69.72    3.91
   6   6  -7    1.99    0.74
   6   6  -7    1.06    0.47
   6   6  -7    1.15    0.69
  -6  -6   7   -0.60    0.97
   6   6  -7    1.40    0.40
   6   6  -6  340.85    7.53
   6   6  -6  322.31    8.44
   6   6  -6  334.77    8.56
  -6  -6   6  313.57    9.20
   6   6  -6  340.63    7.09
   6   6  -5   34.86    1.80
   6   6  -5   34.35    2.11
   6   6  -5   31.20    2.11
  -6  -6   5   31.78    2.43
   6   6  -5   32.96    1.61
   6   6  -4   32.65    1.92
   6   6  -4   32.85    2.15
  -6  -6   4   29.58    2.26
   6   6  -4   33.36    1.72
   6   6  -3   40.59    2.01
  -6  -6   3   38.27    2.51
   6   6  -3   41.42    2.01
   6   6  -2   15.47    1.17
  -6  -6   2   14.55    1.58
   6   6  -2   17.35    1.35
   6   6  -1    6.01    0.74
  -6  -6   1    4.80    0.99
  -6  -6   1    5.07    0.93
   6   6  -1    5.77    0.92
   6   6   0  258.24    5.68
   6   6   0  270.76    7.27
  -6  -6   0  262.14    6.76
  -6  -6   0  265.02    7.19
   6   6   0  254.53    6.68
   6   6   1    1.35    0.68
   6   6   1    0.51    0.68
  -6  -6  -1   -0.02    0.59
  -6  -6  -1   -0.12    0.70
   6   6   2  254.79    6.91
  -6  -6  -2  250.72    6.70
  -6  -6  -2  240.11    6.74
   6   6   2  233.00    6.54
   6   6   3  116.97    4.20
  -6  -6  -3  112.68    4.06
  -6  -6  -3  100.68    3.97
   6   6   3  100.42    3.90
   6   6   4   20.82    1.71
  -6  -6  -4   20.23    1.70
   6   6   4   19.34    0.94
   6   6   4   16.18    1.57
  -6  -6  -4   17.92    1.63
   6   6   5   43.96    1.61
   6   6   5   46.73    2.56
  -6  -6  -5   38.93    2.43
   6   6   5   51.58    2.74
   6   6   6   73.69    2.33
  -6  -6  -6   69.85    3.30
   6   6   6   68.99    3.35
   6   6   7  273.50    6.20
  -6  -6  -7  274.55    7.65
   6   6   7  272.03    7.68
   6   6   8  159.01    4.39
  -6  -6  -8  159.03    5.55
   6   6   8  166.13    5.65
   6   6   9    5.99    0.87
   6   6   9    5.88    1.17
  -6  -6  -9    5.23    1.15
   6   6  10  189.29    5.50
   6   6  10  202.38    4.04
  -6  -6 -10  182.14    6.40
   6   6  10  184.91    6.37
   6   6  11   39.96    2.31
   6   6  11   42.00    1.55
  -6  -6 -11   39.03    2.81
   6   6  11   39.05    2.74
   6   6  12    4.04    0.62
   6   6  12    4.29    1.27
  -6  -6 -12    6.37    1.49
   6   6  13    1.16    1.01
  -6  -6 -13    2.56    1.28
   6   6  14    3.26    1.19
  -6  -6 -14    2.85    1.29
   6   6  15    1.22    1.09
  -6  -6 -15    4.09    1.33
   6   6  16   19.69    2.31
   6   6  16   21.23    2.24
   6   6  17   26.71    2.84
   6   6  17   23.89    2.53
   6   7 -12   52.60    3.83
   6   7 -11   44.73    3.39
  -6  -7  11   49.61    3.73
   6   7 -10   36.13    2.91
  -6  -7  10   40.18    3.23
   6   7  -9   35.43    2.77
  -6  -7   9   40.57    3.20
   6   7  -8  169.87    6.02
  -6  -7   8  156.85    6.39
   6   7  -7   95.89    4.21
   6   7  -7  103.67    2.93
  -6  -7   7  100.21    4.80
   6   7  -6  112.06    3.23
   6   7  -6  101.76    4.17
  -6  -7   6   97.83    4.65
   6   7  -6  107.60    3.02
   6   7  -5  167.30    4.41
   6   7  -5  157.46    5.18
  -6  -7   5  148.62    5.79
   6   7  -5  162.11    4.27
   6   7  -4   44.81    2.39
  -6  -7   4   43.83    2.83
   6   7  -4   45.23    2.05
   6   7  -3  143.00    4.39
  -6  -7   3  135.43    5.13
   6   7  -3  138.21    4.16
   6   7  -2    9.77    1.06
  -6  -7   2   10.18    1.43
   6   7  -2   10.32    1.12
   6   7  -1    7.62    0.92
  -6  -7   1    7.90    1.32
   6   7  -1    7.29    0.99
  -6  -7   0    3.53    0.99
   6   7   0    1.81    0.77
   6   7   1    8.66    1.17
  -6  -7  -1    8.03    1.17
   6   7   2  306.59    7.89
  -6  -7  -2  291.73    7.86
   6   7   2  281.97    7.52
   6   7   3  133.81    4.63
  -6  -7  -3  129.12    4.64
   6   7   3  123.33    4.46
   6   7   4  212.21    6.20
  -6  -7  -4  214.01    6.29
   6   7   4  193.34    6.06
  -6  -7  -5   49.24    2.72
   6   7   5   50.78    2.70
   6   7   5   47.28    2.72
   6   7   5   47.18    1.84
   6   7   6   59.86    2.21
   6   7   6   68.16    3.18
  -6  -7  -6   61.48    3.14
   6   7   6   61.95    3.19
   6   7   7   97.39    3.08
  -6  -7  -7   94.72    4.02
   6   7   7   91.27    4.01
   6   7   8   64.71    2.56
  -6  -7  -8   66.01    3.36
   6   7   8   63.22    3.34
   6   7   9   75.92    2.98
  -6  -7  -9   76.06    3.73
   6   7   9   81.08    3.87
   6   7  10  218.95    6.08
  -6  -7 -10  221.22    7.12
   6   7  10  225.70    7.18
   6   7  11   15.42    0.77
   6   7  11   13.35    1.36
   6   7  11   15.03    1.82
  -6  -7 -11   18.83    1.96
   6   7  12   12.06    1.73
  -6  -7 -12   10.66    1.72
  -6  -7 -13   32.47    2.76
   6   7  13   31.44    2.64
   6   7  14   -0.03    1.04
  -6  -7 -14   -0.41    0.96
   6   7  15   25.50    2.51
  -6  -7 -15   21.87    2.43
   6   7  16   25.32    2.51
   6   7  16   22.79    2.44
   6   7  17    7.10    1.50
   6   7  17    6.50    1.55
   6   8 -11   78.70    4.60
   6   8 -10   17.42    2.18
  -6  -8  10   22.54    2.58
   6   8  -9   80.89    4.31
  -6  -8   9   82.34    4.72
   6   8  -8   23.29    2.32
  -6  -8   8   26.27    2.65
   6   8  -7   76.16    3.86
  -6  -8   7   82.74    4.42
   6   8  -6   33.87    1.45
   6   8  -6   31.81    2.35
  -6  -8   6   31.73    2.68
   6   8  -6   30.68    1.42
   6   8  -5    0.50    0.73
   6   8  -5    0.00    0.45
  -6  -8   5    1.65    0.96
   6   8  -5    1.24    0.58
   6   8  -4   -0.22    0.72
  -6  -8   4   -0.56    0.91
   6   8  -4    0.47    0.46
   6   8  -3   54.01    2.64
  -6  -8   3   50.38    3.07
   6   8  -3   52.96    2.39
   6   8  -2   30.96    1.93
  -6  -8   2   30.22    2.34
   6   8  -2   32.88    1.93
   6   8  -1    0.06    0.56
  -6  -8   1    0.40    0.78
   6   8  -1    0.13    0.61
  -6  -8   0    4.41    1.11
   6   8   0    2.05    0.70
  -6  -8  -1    1.08    0.78
   6   8   1    0.21    0.64
  -6  -8  -1   -0.13    0.78
   6   8   2  149.65    4.96
  -6  -8  -2  152.06    5.22
  -6  -8  -3  423.49   10.34
   6   8   3  415.62   10.09
  -6  -8  -4  145.65    5.09
   6   8   4  140.09    4.94
  -6  -8  -5  297.15    8.15
   6   8   5  303.64    8.23
  -6  -8  -6  228.96    6.81
   6   8   6  218.34    5.47
   6   8   6  223.49    6.82
   6   8   7   26.44    1.60
  -6  -8  -7   30.52    2.25
   6   8   7   29.40    2.27
   6   8   8    6.19    0.92
   6   8   8    6.53    1.17
  -6  -8  -8    6.53    1.28
   6   8   9   44.10    2.27
  -6  -8  -9   40.32    2.70
   6   8   9   48.02    2.98
   6   8  10  124.39    4.24
  -6  -8 -10  114.99    4.86
   6   8  10  112.59    4.89
  -6  -8 -11   29.20    2.45
   6   8  11   29.95    2.47
   6   8  12    1.09    0.96
  -6  -8 -12    2.17    1.13
   6   8  13    6.57    1.44
  -6  -8 -13    7.84    1.61
   6   8  14   12.18    2.67
  -6  -8 -14   11.09    1.74
  -6  -8 -15   41.39    3.22
   6   8  15   33.92    2.92
   6   8  16   47.61    3.34
   6   8  16   49.36    3.53
   6   8  17   30.98    2.86
   6   8  17   38.44    3.10
   6   9 -10   11.33    1.86
   6   9  -9   49.47    3.46
  -6  -9   9   52.31    3.83
   6   9  -8   18.39    2.16
  -6  -9   8   20.64    2.37
   6   9  -7   60.08    3.54
  -6  -9   7   69.63    4.18
   6   9  -6   -0.55    0.97
  -6  -9   6    0.24    1.03
   6   9  -5   40.53    1.64
   6   9  -5   37.97    2.59
  -6  -9   5   34.13    2.76
   6   9  -5   36.75    1.81
   6   9  -4   -0.29    0.69
   6   9  -4    0.71    0.47
  -6  -9   4    0.74    0.97
   6   9  -4    0.79    0.55
   6   9  -3   40.44    1.98
   6   9  -3   39.63    2.44
  -6  -9   3   39.56    2.82
   6   9  -3   42.23    2.17
   6   9  -2   52.48    2.41
   6   9  -2   51.36    2.68
  -6  -9   2   52.97    3.14
   6   9  -2   58.61    2.68
   6   9  -1   20.73    1.54
  -6  -9   1   19.44    1.95
   6   9  -1   22.34    1.72
   6   9   0  121.51    4.13
  -6  -9   0  119.74    4.76
   6   9   0  120.26    4.26
   6   9   1    0.73    0.63
  -6  -9  -1    0.59    0.78
   6   9   1    0.04    0.68
  -6  -9  -1    4.21    1.05
   6   9   2  352.41    8.73
  -6  -9  -2  344.17    9.15
   6   9   2  336.71    8.74
   6   9   3   78.11    3.46
  -6  -9  -3   81.66    3.73
   6   9   3   74.26    3.46
  -6  -9  -4  105.81    2.59
  -6  -9  -4  106.95    4.35
   6   9   4  104.16    4.23
  -6  -9  -5  163.84    5.63
   6   9   5  166.40    5.65
  -6  -9  -6  161.89    5.62
   6   9   6  160.97    5.65
  -6  -9  -7   41.81    2.68
   6   9   7   41.57    2.14
   6   9   7   42.03    2.75
   6   9   8  139.73    4.40
  -6  -9  -8  136.03    5.16
   6   9   8  136.41    5.31
   6   9   9   39.18    2.22
  -6  -9  -9   39.42    2.72
   6   9   9   40.04    2.83
   6   9  10   29.68    2.00
  -6  -9 -10   27.04    2.30
   6   9  10   25.40    2.36
  -6  -9 -11   -0.54    1.05
   6   9  11    0.38    0.88
   6   9  12    9.90    1.68
  -6  -9 -12    7.63    1.39
   6   9  13    3.19    1.13
  -6  -9 -13    2.57    1.03
  -6  -9 -14   34.55    2.90
   6   9  14   29.48    2.71
   6   9  15   30.72    2.45
  -6  -9 -15   31.33    2.90
   6   9  15   30.58    2.83
  -6  -9 -16  102.00    5.36
   6   9  16  110.07    5.41
   6   9  17   15.10    2.09
   6  10  -9   17.27    2.20
   6  10  -8   48.59    3.45
  -6 -10   8   53.35    3.92
   6  10  -7    8.94    1.56
  -6 -10   7    7.78    1.60
   6  10  -6   60.29    3.56
  -6 -10   6   69.15    4.15
   6  10  -5    7.94    1.53
  -6 -10   5    9.13    1.65
   6  10  -4    3.99    1.13
  -6 -10   4    3.47    1.13
   6  10  -4    2.44    0.63
   6  10  -3  141.76    5.13
  -6 -10   3  140.58    5.71
   6  10  -3  139.61    4.50
   6  10  -2    7.92    1.26
   6  10  -2    6.77    0.93
  -6 -10   2    6.34    1.30
   6  10  -2    6.41    0.98
   6  10  -1   62.68    2.75
  -6 -10   1   66.49    3.55
   6  10  -1   58.41    2.87
   6  10   0   65.91    2.94
  -6 -10   0   66.52    3.54
   6  10   0   64.11    3.08
   6  10   1   15.94    1.47
  -6 -10  -1   11.92    1.57
   6  10   1   11.65    1.41
   6  10   2  238.40    6.85
  -6 -10  -2  241.07    7.27
  -6 -10  -2  250.54    7.49
   6  10   2  243.60    7.07
  -6 -10  -3   49.98    2.98
   6  10   3   48.38    2.84
  -6 -10  -4  506.28    9.81
  -6 -10  -4  488.27   12.04
   6  10   4  491.65   11.98
  -6 -10  -5    9.01    0.66
   6  10   5   10.51    1.51
  -6 -10  -5    8.83    1.35
  -6 -10  -6  327.54    9.03
   6  10   6  338.65    9.27
  -6 -10  -7   94.16    4.22
   6  10   7   97.84    4.41
  -6 -10  -8  140.43    5.34
   6  10   8  143.43    4.67
   6  10   8  140.39    5.54
   6  10   9    1.63    0.74
  -6 -10  -9    0.94    0.95
   6  10   9    1.96    0.97
  -6 -10 -10    3.22    1.12
   6  10  10    3.44    1.23
  -6 -10 -11    5.28    1.30
   6  10  11    6.74    1.45
  -6 -10 -12    3.50    1.16
   6  10  12    5.92    1.44
  -6 -10 -13   15.91    1.98
   6  10  13   19.54    2.21
   6  10  14    3.98    1.26
  -6 -10 -14    5.23    1.60
   6  10  15   90.43    4.46
  -6 -10 -15   85.63    4.71
   6  10  15   87.22    4.82
  -6 -10 -16   64.97    4.25
   6  10  16   67.82    4.33
   6  11  -8    0.50    0.99
   6  11  -7   28.84    2.64
   6  11  -6    9.09    1.63
  -6 -11   6    7.98    1.45
   6  11  -5    6.07    1.41
  -6 -11   5    6.18    1.56
   6  11  -4   12.76    1.71
  -6 -11   4   12.53    1.93
   6  11  -4   12.22    1.22
   6  11  -3   59.99    3.37
  -6 -11   3   57.99    3.66
   6  11  -3   65.97    2.94
   6  11  -2    2.39    0.93
  -6 -11   2    2.72    1.10
   6  11  -2    2.71    0.87
   6  11  -1   37.18    2.09
  -6 -11   1   35.01    2.69
   6  11  -1   34.91    2.31
   6  11   0  295.92    7.65
  -6 -11   0  295.57    8.73
   6  11   0  302.95    8.13
   6  11   1  181.36    5.63
  -6 -11  -1  186.64    6.39
   6  11   1  179.06    5.93
  -6 -11  -2   34.94    2.54
  -6 -11  -2   38.32    2.73
   6  11   2   34.40    2.41
  -6 -11  -3   39.16    2.72
   6  11   3   28.91    2.26
  -6 -11  -4   81.57    2.74
  -6 -11  -4   85.66    4.04
   6  11   4   80.37    3.93
  -6 -11  -5  308.10    6.58
  -6 -11  -5  293.58    8.59
   6  11   5  297.87    8.69
  -6 -11  -6    1.49    0.39
   6  11   6    2.93    1.03
  -6 -11  -6    0.64    0.80
  -6 -11  -7  414.74   10.81
   6  11   7  414.09   11.06
  -6 -11  -8   22.78    2.12
   6  11   8   28.00    2.54
   6  11   9    7.47    1.49
  -6 -11  -9    6.41    1.27
  -6 -11 -10    2.83    1.10
   6  11  10    4.72    1.36
  -6 -11 -11   34.60    2.73
   6  11  11   37.03    2.98
  -6 -11 -12   15.24    2.02
   6  11  12   17.70    2.26
  -6 -11 -13   51.43    3.46
   6  11  13   45.27    3.39
   6  11  14    9.03    1.61
  -6 -11 -14    6.56    1.50
   6  11  14    5.78    1.22
   6  11  15   86.86    4.57
  -6 -11 -15   86.92    4.77
   6  11  15   92.39    5.05
  -6 -11 -16   18.44    2.34
   6  12  -7   14.82    2.08
   6  12  -6   -0.72    1.01
   6  12  -5    1.26    1.00
  -6 -12   5    2.83    1.26
   6  12  -4    2.06    1.08
  -6 -12   4    1.69    1.18
   6  12  -3   17.78    1.98
  -6 -12   3   18.45    2.27
   6  12  -3   18.56    1.60
  -6 -12   2   14.42    1.96
   6  12  -2   11.85    1.40
  -6 -12   1   47.23    3.25
   6  12  -1   46.28    2.72
  -6 -12   0  104.46    4.80
   6  12   0   98.66    4.23
   6  12   1  162.36    5.33
  -6 -12  -1  162.66    6.03
   6  12   1  162.75    5.73
  -6 -12  -2  111.17    4.77
   6  12   2  108.17    4.56
  -6 -12  -2  112.10    4.94
   6  12   3   19.93    2.00
  -6 -12  -3   20.18    2.09
   6  12   4   46.49    3.01
  -6 -12  -4   47.39    3.07
   6  12   5  121.48    5.12
  -6 -12  -5  124.74    5.13
  -6 -12  -6   70.19    3.74
   6  12   6   65.53    3.76
  -6 -12  -7  157.58    5.91
   6  12   7  161.82    6.21
   6  12   8    2.32    1.13
  -6 -12  -8    3.51    1.11
   6  12   9   32.98    2.77
  -6 -12  -9   28.18    2.39
   6  12  10    3.14    1.39
  -6 -12 -10    3.29    1.05
   6  12  11   13.00    1.91
  -6 -12 -11   12.70    1.80
  -6 -12 -12   14.49    1.94
   6  12  12   17.80    2.28
  -6 -12 -13   12.71    1.82
   6  12  13   15.02    2.09
   6  12  14   40.59    3.19
  -6 -12 -14   43.63    3.29
   6  12  14   39.31    3.33
   6  12  15   30.82    2.84
  -6 -12 -15   29.95    2.79
   6  13  -6    3.66    1.48
   6  13  -5    2.44    1.30
   6  13  -4    1.92    1.34
  -6 -13   4    1.50    1.00
   6  13  -3   18.80    2.18
  -6 -13   3   22.53    2.51
  -6 -13   2   49.32    3.53
   6  13  -2   45.48    2.69
  -6 -13   1   55.12    3.68
   6  13  -1   63.82    3.34
  -6 -13   0   51.82    3.42
   6  13   0   50.35    3.04
  -6 -13  -1   30.89    2.61
   6  13   1   35.04    2.60
  -6 -13  -2   98.01    4.56
   6  13   2   94.93    4.40
  -6 -13  -2   93.11    4.66
  -6 -13  -3   49.84    3.13
   6  13   3   46.55    3.07
  -6 -13  -3   48.74    3.26
   6  13   4   87.26    4.39
  -6 -13  -4  102.39    4.74
   6  13   5    4.11    1.29
  -6 -13  -5    3.89    1.25
   6  13   6   53.39    3.45
  -6 -13  -6   47.27    3.17
   6  13   7   20.20    2.21
  -6 -13  -7   15.92    1.87
   6  13   8   10.30    1.67
  -6 -13  -8   13.07    1.82
   6  13   9    1.18    1.02
  -6 -13  -9   -0.45    0.92
   6  13  10    1.22    1.11
  -6 -13 -10   -0.35    1.03
   6  13  11    0.32    0.95
  -6 -13 -11   -0.07    0.92
   6  13  12    4.94    1.48
   6  13  12    6.84    1.57
  -6 -13 -12    6.09    1.51
   6  13  13   30.51    2.92
   6  13  13   30.01    2.95
  -6 -13 -13   26.43    2.55
   6  13  14    9.94    1.87
  -6 -13 -14    9.90    1.71
  -6 -13 -15   33.23    2.90
   6  13  15   29.26    2.84
   6  14  -4    1.87    1.08
   6  14  -4    1.02    1.28
   6  14  -3   36.12    3.06
  -6 -14   3   32.75    3.01
  -6 -14   2    1.99    1.26
  -6 -14   1   66.86    4.13
   6  14  -1   61.95    3.43
  -6 -14   0   61.12    3.83
   6  14   0   62.15    3.49
  -6 -14  -1   84.01    4.41
   6  14   1   81.68    4.26
  -6 -14  -2   69.14    3.92
   6  14   2   66.34    3.73
  -6 -14  -2   68.64    4.07
  -6 -14  -3   17.11    1.97
   6  14   3   14.96    1.95
  -6 -14  -3   20.56    2.33
   6  14   4   17.87    2.07
  -6 -14  -4   15.42    2.08
   6  14   5   25.23    2.54
  -6 -14  -5   25.86    2.45
   6  14   6   25.41    2.56
  -6 -14  -6   27.80    2.57
   6  14   7   12.45    1.84
  -6 -14  -7   11.41    1.75
  -6 -14  -8   36.91    2.89
   6  14   8   38.00    3.12
   6  14   9    5.01    1.39
  -6 -14  -9    4.48    1.16
   6  14  10   -0.47    1.09
  -6 -14 -10    1.09    0.99
   6  14  11   13.58    2.08
   6  14  11    7.01    1.51
  -6 -14 -11    9.97    1.74
   6  14  12    3.88    1.50
  -6 -14 -12    2.02    0.97
   6  14  13   92.54    5.16
  -6 -14 -13   87.38    4.67
   6  14  14    3.97    1.51
  -6 -14 -14    2.81    1.25
  -6 -14 -15   66.81    4.15
   6  15  -3   15.75    2.18
   6  15  -2   16.28    2.15
   6  15  -1   33.84    3.08
  -6 -15   1   32.59    3.08
   6  15   0   13.65    2.11
  -6 -15   0   15.77    2.21
   6  15   0   15.01    1.83
  -6 -15  -1   67.04    4.09
   6  15   1   69.90    3.93
  -6 -15  -2   38.79    3.07
   6  15   2   34.32    2.80
  -6 -15  -2   38.98    3.19
  -6 -15  -3   18.88    2.11
   6  15   3   19.38    2.25
  -6 -15  -3   19.37    2.26
   6  15   4    3.47    1.24
  -6 -15  -4    3.21    1.26
   6  15   5   47.08    3.56
  -6 -15  -5   43.58    3.26
   6  15   6    7.33    1.57
  -6 -15  -6    5.86    1.48
  -6 -15  -7   66.43    3.94
   6  15   7   63.50    4.12
   6  15   8    0.80    1.02
   6  15   8    1.03    1.60
  -6 -15  -8   -0.05    0.92
   6  15   9   39.02    3.35
   6  15   9   34.27    3.18
  -6 -15  -9   28.15    2.68
   6  15  10   24.36    2.74
  -6 -15 -10   18.81    2.11
  -6 -15 -11   -1.65    1.09
  -6 -15 -12    1.72    0.96
  -6 -15 -13   46.42    3.39
  -6 -15 -14    1.22    1.05
  -6 -16   0   13.24    2.12
  -6 -16  -1   10.45    1.70
   6  16   1    9.13    1.66
  -6 -16  -2   43.01    3.29
   6  16   2   40.54    3.16
  -6 -16  -2   45.33    3.54
  -6 -16  -3   18.17    2.21
   6  16   3   17.52    2.18
  -6 -16  -3   17.50    2.27
   6  16   4   54.10    3.81
  -6 -16  -4   55.72    3.78
   6  16   5    7.49    1.61
  -6 -16  -5   10.40    1.90
   6  16   6   55.78    3.87
  -6 -16  -6   60.32    3.93
  -6 -16  -7   35.53    2.97
   6  16   7   30.11    2.94
  -6 -16  -8    2.06    1.09
  -6 -16  -9   20.43    2.31
  -6 -16 -10   19.99    2.27
  -6 -16 -11    2.08    1.14
  -6 -16 -12    9.36    1.77
  -6 -17  -2   23.53    2.71
   6  17   2   34.30    3.05
  -6 -17  -3   13.23    2.05
   6  17   3   13.64    2.08
  -6 -17  -5    5.78    1.58
  -6 -17  -6   23.61    2.55
  -6 -17  -7    2.41    1.18
  -6 -17  -8    5.87    1.53
  -6 -17  -9    0.37    1.16
  -6 -17 -10   -0.73    1.01
   7 -10   0    9.85    1.88
   7 -10   1    0.06    1.05
   7 -10   2    3.37    1.45
   7  -9  -5   13.28    2.22
   7  -9  -4    1.44    1.11
  -7   9   4    0.72    1.17
   7  -9  -3   17.16    2.28
  -7   9   3   19.00    2.44
   7  -9  -2    7.86    1.80
  -7   9   2   12.77    2.07
   7  -9  -1   19.84    2.49
  -7   9   1   19.21    2.40
   7  -9   0    3.12    1.38
  -7   9   0    3.61    1.57
   7  -9   1    1.09    1.20
   7  -9   1    2.32    1.02
  -7   9  -1    1.74    1.07
   7  -9   2   -0.07    0.98
   7  -9   2    3.83    1.34
  -7   9  -2    2.05    1.13
   7  -9   3   14.54    2.13
   7  -9   3   20.24    2.29
  -7   9  -3   14.76    2.16
   7  -9   4    3.37    1.56
  -7   9  -4    7.09    1.84
  -7   8   9    3.33    1.31
   7  -8  -8   12.39    2.10
  -7   8   8   10.29    1.83
   7  -8  -7    0.54    1.05
  -7   8   7    4.52    1.56
   7  -8  -6   11.34    1.98
  -7   8   6   11.29    2.01
   7  -8  -5    4.52    1.37
  -7   8   5    7.29    1.63
   7  -8  -4    7.22    1.66
  -7   8   4    6.70    1.62
   7  -8  -3    7.89    1.73
  -7   8   3    5.58    1.53
   7  -8  -2   14.83    2.09
   7  -8  -2   14.95    1.65
  -7   8   2   15.04    2.04
   7  -8  -1   17.70    2.27
   7  -8  -1   22.71    2.04
  -7   8   1   21.73    2.46
   7  -8   0    4.81    1.40
   7  -8   0    6.45    1.33
  -7   8   0    5.22    1.46
   7  -8   1    0.77    1.19
   7  -8   1    1.60    1.11
  -7   8  -1    2.77    1.33
   7  -8   2    0.24    0.99
   7  -8   2    0.08    0.99
  -7   8  -2   -1.01    1.03
   7  -8   3   11.90    1.84
   7  -8   3   11.35    1.80
  -7   8  -3   17.39    2.21
   7  -8   4   17.56    2.20
   7  -8   4   18.14    2.20
  -7   8  -4   14.02    2.01
   7  -8   5   59.36    3.80
  -7   8  -5   57.48    3.73
   7  -8   5   53.35    3.91
  -7   8  -5   51.29    3.69
  -7   7  12    0.96    1.32
  -7   7  11   12.00    1.96
   7  -7 -10    1.82    1.29
  -7   7  10    3.60    1.30
  -7   7  10    4.54    1.53
   7  -7  -9    6.71    1.52
  -7   7   9    5.22    1.46
   7  -7  -8    1.49    1.31
  -7   7   8    0.10    1.00
   7  -7  -7   16.84    2.20
  -7   7   7   20.41    2.41
   7  -7  -6    7.75    1.68
  -7   7   6    6.99    1.54
   7  -7  -5    1.96    1.25
  -7   7   5    1.60    1.10
   7  -7  -4    1.79    1.02
  -7   7   4    1.53    1.14
   7  -7  -3    1.53    1.13
  -7   7   3   -1.72    1.14
   7  -7  -2   14.84    2.06
  -7   7   2   15.65    2.03
   7  -7  -1    3.67    1.29
  -7   7   1    1.87    1.14
   7  -7   0   19.50    2.26
   7  -7   0   18.50    1.87
  -7   7   0   19.84    2.25
   7  -7   1   11.97    1.85
   7  -7   1   11.70    1.64
  -7   7  -1    9.99    1.78
   7  -7   2   42.03    3.11
   7  -7   2   40.78    2.96
  -7   7  -2   39.61    3.14
   7  -7   3    0.54    1.04
   7  -7   3    0.22    0.93
  -7   7  -3   -1.06    1.05
   7  -7   4   -0.25    1.03
   7  -7   4   -0.36    0.98
  -7   7  -4    0.82    1.02
  -7   7  -5    5.49    1.44
   7  -7   5    5.40    1.44
   7  -7   5    4.26    1.40
  -7   7  -5    3.84    1.15
  -7   7  -6    0.16    1.10
   7  -7   6    0.11    1.03
   7  -7   6   -0.61    1.04
  -7   7  -6   -0.70    0.95
  -7   6  14   -0.50    1.15
  -7   6  13    0.25    1.04
  -7   6  12    4.50    1.44
   7  -6 -11    1.00    1.13
  -7   6  11    0.88    0.97
  -7   6  11   -1.08    1.05
   7  -6 -10   -0.01    1.02
  -7   6  10    1.35    1.02
  -7   6  10    1.70    1.16
   7  -6  -9    0.76    1.21
  -7   6   9   -0.05    1.01
  -7   6   9   -0.71    1.11
   7  -6  -8    4.20    1.23
  -7   6   8    5.07    1.44
  -7   6   8    5.10    1.27
   7  -6  -7   19.98    2.37
  -7   6   7   23.20    2.48
   7  -6  -6   -0.53    1.05
  -7   6   6    1.73    1.05
   7  -6  -5   21.01    2.32
  -7   6   5   20.07    2.30
   7  -6  -4    0.17    1.04
  -7   6   4    2.34    1.05
   7  -6  -3   13.54    1.97
  -7   6   3   12.41    1.81
   7  -6  -2    4.35    1.31
  -7   6   2    6.61    1.28
   7  -6  -1   10.47    1.65
  -7   6   1    7.79    1.53
   7  -6   0   22.98    2.40
  -7   6   0   19.53    2.13
   7  -6   1   15.49    2.05
  -7   6  -1   17.14    2.08
   7  -6   2   31.52    2.62
  -7   6  -2   32.59    2.69
   7  -6   3   15.75    1.99
   7  -6   3   11.36    1.68
  -7   6  -3   12.31    1.78
   7  -6   4    1.04    1.07
  -7   6  -4    1.81    1.08
   7  -6   4    3.25    1.30
  -7   6  -5    9.76    1.59
   7  -6   5    7.93    1.66
   7  -6   5    9.52    1.59
  -7   6  -5    7.80    1.59
  -7   6  -6   12.47    1.73
   7  -6   6   11.53    1.85
  -7   6  -6    9.59    1.64
   7  -6   6   12.13    1.82
  -7   6  -7    0.94    0.99
   7  -6   7    2.08    1.44
   7  -6   7    1.00    0.98
  -7   5  14    4.16    1.41
   7  -5 -13    5.23    1.39
  -7   5  13    2.40    1.27
   7  -5 -12    0.77    1.07
  -7   5  12    2.69    1.06
   7  -5 -11    7.64    1.66
  -7   5  11   10.72    1.79
  -7   5  11    9.30    1.72
   7  -5 -10    1.71    1.12
  -7   5  10   -1.26    1.02
  -7   5  10   -0.61    1.17
   7  -5  -9   -0.15    1.11
  -7   5   9    0.66    1.11
  -7   5   9   -0.90    1.15
   7  -5  -8    1.23    1.16
  -7   5   8    0.36    0.93
  -7   5   8    2.20    1.08
   7  -5  -7    7.00    1.52
  -7   5   7    8.21    1.57
  -7   5   7    8.52    1.61
   7  -5  -6    3.34    1.21
  -7   5   6    5.64    1.41
   7  -5  -5    0.88    1.04
   7  -5  -5    0.72    0.61
  -7   5   5    1.64    1.07
   7  -5  -4    4.20    1.27
   7  -5  -4    2.65    0.77
  -7   5   4    1.47    1.04
   7  -5  -3   52.99    3.37
   7  -5  -3   47.01    2.56
  -7   5   3   55.42    3.42
   7  -5  -2   12.33    1.80
  -7   5   2   12.36    1.73
   7  -5  -1   47.88    3.18
  -7   5   1   48.95    3.22
   7  -5   0    9.86    1.65
  -7   5   0    9.84    1.65
   7  -5   1  107.20    4.82
  -7   5  -1  103.24    4.76
   7  -5   2    1.13    1.00
  -7   5  -2    1.65    0.94
   7  -5   3   35.17    2.78
  -7   5  -3   31.89    2.60
  -7   5  -4   -0.44    0.82
   7  -5   4   -1.80    1.01
  -7   5  -4    1.21    1.06
  -7   5  -5   12.66    1.59
   7  -5   5   11.33    1.81
  -7   5  -5   10.82    1.61
   7  -5   5   13.44    1.85
  -7   5  -6    8.36    1.44
   7  -5   6   10.77    1.80
   7  -5   6   10.26    1.67
  -7   5  -6    9.75    1.53
  -7   5  -7    1.00    0.84
   7  -5   7    0.70    0.98
   7  -5   7    0.41    0.96
  -7   5  -7   -0.60    0.94
  -7   5  -8    2.92    1.06
   7  -5   8    1.73    1.29
   7  -5   8    0.96    0.96
  -7   5  -9    0.46    0.99
  -7   4  14    2.24    1.36
   7  -4 -14    1.47    1.10
  -7   4  13   13.38    1.99
   7  -4 -13   16.04    2.19
  -7   4  12    1.97    1.27
  -7   4  12   -0.75    0.99
   7  -4 -12    0.34    1.03
  -7   4  11    8.74    1.66
  -7   4  11    7.48    1.56
   7  -4 -11   10.16    1.86
  -7   4  10    9.58    1.61
  -7   4  10   10.04    1.80
   7  -4 -10    9.28    1.68
  -7   4   9   14.93    1.86
  -7   4   9   15.70    1.98
   7  -4  -9   13.78    1.85
  -7   4   8   20.43    2.19
  -7   4   8   19.92    2.12
   7  -4  -8   19.71    2.19
  -7   4   7    0.57    1.00
  -7   4   7   -0.52    0.96
   7  -4  -7   -0.41    0.94
   7  -4  -6   -1.04    1.09
  -7   4   6    0.68    0.71
  -7   4   6    1.35    1.09
  -7   4   6    0.18    0.98
   7  -4  -6    0.07    1.02
  -7   4   6    0.13    0.24
   7  -4  -5   12.49    1.74
  -7   4   5   12.34    1.29
  -7   4   5    8.98    1.51
  -7   4   5   13.48    0.72
   7  -4  -5   11.08    1.27
   7  -4  -4   47.95    3.13
  -7   4   4   43.11    2.99
   7  -4  -4   39.99    2.36
  -7   4   4   47.33    1.61
  -7   4   4   44.91    2.42
   7  -4  -3   34.28    2.66
   7  -4  -3   27.60    1.95
  -7   4   3   30.84    1.40
  -7   4   3   29.00    2.46
  -7   4   2   18.41    1.18
   7  -4  -2   17.93    1.95
  -7   4   2   17.86    1.95
   7  -4  -1   52.50    3.28
  -7   4   1   54.28    3.26
  -7   4   1   51.94    2.20
   7  -4   0   47.80    3.07
  -7   4   0   44.70    2.95
  -7   4   0   52.17    2.31
   7  -4   0   43.72    2.22
   7  -4   1   27.66    2.41
  -7   4  -1   26.28    2.27
  -7   4  -1   29.04    1.82
   7  -4   1   24.26    1.71
  -7   4  -2   21.03    1.66
   7  -4   2   19.37    1.60
  -7   4  -2   16.89    1.91
   7  -4   2   21.79    2.10
   7  -4   3   30.10    2.50
  -7   4  -3   29.64    2.40
  -7   4  -4    4.03    0.92
   7  -4   4    4.47    1.24
  -7   4  -4    6.17    1.33
  -7   4  -5    0.28    0.67
   7  -4   5    0.06    0.92
  -7   4  -5    0.01    0.72
  -7   4  -6   -0.82    0.68
  -7   4  -6    0.40    0.72
  -7   4  -7   -0.04    1.03
   7  -4   7    0.12    0.97
  -7   4  -8   17.53    1.90
   7  -4   8   17.66    2.30
  -7   4  -9    0.38    0.95
   7  -3 -15    4.12    1.35
   7  -3 -14   14.90    2.10
  -7   3  13    1.94    1.12
   7  -3 -13    2.08    1.36
  -7   3  12   39.94    3.03
  -7   3  12   38.87    3.20
   7  -3 -12   36.80    3.04
  -7   3  11    1.39    1.06
  -7   3  11    2.00    1.16
   7  -3 -11    1.06    0.94
  -7   3  10    2.69    1.24
  -7   3  10    0.24    0.90
   7  -3 -10   -0.21    1.04
  -7   3   9   -0.23    0.80
  -7   3   9    0.19    0.92
   7  -3  -9    1.69    1.07
  -7   3   8    3.82    1.12
  -7   3   8    1.06    1.02
   7  -3  -8    4.25    1.23
  -7   3   8    4.44    0.61
   7  -3  -7    3.22    1.15
  -7   3   7    3.43    0.81
  -7   3   7    3.47    0.98
  -7   3   7    4.92    1.19
   7  -3  -7    3.33    0.85
  -7   3   7    3.03    0.51
   7  -3  -6    6.52    1.35
  -7   3   6    6.55    1.05
  -7   3   6    6.32    1.33
  -7   3   6    9.48    1.52
   7  -3  -6    5.55    0.95
  -7   3   6    6.21    0.66
   7  -3  -5   11.88    1.68
  -7   3   5    7.49    1.01
  -7   3   5    6.70    1.27
  -7   3   5    8.74    1.35
   7  -3  -5    8.50    1.11
  -7   3   5    9.16    0.78
   7  -3  -4   38.67    2.76
  -7   3   4   34.16    2.45
  -7   3   4   41.90    2.77
  -7   3   4   41.71    1.70
   7  -3  -4   38.44    2.26
  -7   3   4   38.70    2.09
   7  -3  -3  145.43    5.53
  -7   3   3  150.07    5.54
  -7   3   3  146.08    3.85
   7  -3  -3  143.01    4.78
  -7   3   3  134.79    4.21
   7  -3  -2   77.53    3.88
  -7   3   2   74.63    3.76
   7  -3  -2   73.25    3.28
  -7   3   2   74.61    2.61
  -7   3   1    9.98    1.48
   7  -3  -1   10.85    1.61
  -7   3   1    8.27    0.90
   7  -3   0  194.50    6.54
  -7   3   0  193.37    6.47
  -7   3   0  201.96    5.30
   7  -3   0  179.71    5.19
  -7   3  -1    8.88    1.46
   7  -3   1    5.11    1.25
  -7   3  -1    5.96    0.93
   7  -3   1    7.14    1.03
   7  -3   2  163.53    5.91
  -7   3  -2  161.42    5.79
  -7   3  -2  166.43    5.08
   7  -3   2  156.71    5.04
   7  -3   2  163.04    6.00
  -7   3  -3    2.36    0.96
   7  -3   3    3.46    1.17
  -7   3  -3    1.13    0.64
   7  -3   3    2.70    0.85
  -7   3  -4   33.01    2.00
  -7   3  -4   32.48    2.42
  -7   3  -4   33.56    2.28
   7  -3   4   33.78    2.62
  -7   3  -5    2.56    0.87
  -7   3  -5    3.96    0.94
   7  -3   5    3.56    1.14
  -7   3  -5    1.84    0.93
  -7   3  -6   48.04    2.60
   7  -3   6   50.94    3.33
  -7   3  -7   27.53    2.08
   7  -3   7   26.98    2.50
  -7   3  -8   83.05    3.86
   7  -3   8   95.58    4.96
   7  -3   8   87.34    4.49
  -7   3  -9    7.01    1.33
   7  -3   9   10.39    1.87
   7  -3   9    6.63    1.52
  -7   3 -10   13.08    1.67
   7  -3  10   10.03    1.72
   7  -2 -14    3.67    1.19
   7  -2 -13    3.91    1.21
  -7   2  12    0.62    1.11
   7  -2 -12    2.19    1.12
  -7   2  11   35.89    2.75
  -7   2  11   35.34    2.93
   7  -2 -11   33.72    2.77
  -7   2  10    0.83    0.89
  -7   2  10    0.94    0.97
   7  -2 -10    0.32    0.89
  -7   2   9   23.67    2.16
  -7   2   9   24.19    2.34
   7  -2  -9   25.29    2.33
  -7   2   9   20.62    1.47
   7  -2  -8    4.50    1.29
  -7   2   8    2.40    1.02
  -7   2   8    1.73    1.08
   7  -2  -8    2.35    0.84
  -7   2   8    2.24    0.61
   7  -2  -7   37.24    2.73
  -7   2   7   39.40    2.28
  -7   2   7   41.61    2.78
  -7   2   7   41.08    2.74
   7  -2  -7   38.58    2.29
  -7   2   7   39.83    1.88
   7  -2  -6    2.05    1.10
  -7   2   6   -0.15    0.57
  -7   2   6   -1.12    0.85
  -7   2   6    1.30    0.99
   7  -2  -6    0.09    0.54
  -7   2   6   -0.40    0.43
   7  -2  -5  165.86    5.93
  -7   2   5  165.80    4.85
  -7   2   5  179.01    6.08
  -7   2   5  154.00    5.52
   7  -2  -5  160.70    5.15
  -7   2   5  176.75    4.45
  -7   2   4   11.64    1.08
   7  -2  -4   12.29    1.61
  -7   2   4   11.50    1.56
  -7   2   4   12.11    1.45
   7  -2  -4   12.82    1.37
  -7   2   4   11.67    0.99
   7  -2  -3  185.02    6.16
  -7   2   3  163.19    4.55
  -7   2   3  168.20    5.89
  -7   2   3  167.21    5.54
   7  -2  -3  172.30    5.36
  -7   2   3  176.53    4.55
   7  -2  -2   30.96    2.43
  -7   2   2   33.79    2.43
  -7   2   2   32.92    1.71
   7  -2  -2   29.33    2.04
  -7   2   2   30.49    1.59
   7  -2  -1  239.24    7.33
  -7   2   1  240.75    7.26
   7  -2  -1  236.74    6.68
  -7   2   1  238.48    5.94
   7  -2  -1  229.95    7.16
   7  -2   0   42.04    2.78
  -7   2   0   42.31    2.68
   7  -2   0   36.35    2.21
  -7   2   0   38.17    2.00
   7  -2   0   37.81    2.63
   7  -2   0   36.23    2.00
  -7   2  -1   38.96    2.57
   7  -2   1   39.70    2.34
  -7   2  -1   40.22    2.15
   7  -2   1   36.74    2.61
   7  -2   1   36.84    2.09
  -7   2  -2   35.91    2.52
   7  -2   2   39.06    2.29
  -7   2  -2   38.68    2.19
   7  -2   2   33.30    2.51
   7  -2   2   36.70    2.18
  -7   2  -3    0.12    0.71
   7  -2   3    0.67    0.58
  -7   2  -3    1.85    0.58
   7  -2   3    1.26    0.90
  -7   2  -3    0.78    0.68
   7  -2   3   -0.11    0.66
   7  -2   4    0.14    0.65
  -7   2  -4   -0.03    0.68
  -7   2  -4    0.08    0.50
   7  -2   4    0.44    0.94
  -7   2  -4   -0.29    0.68
  -7   2  -5    0.70    0.53
   7  -2   5   -0.29    0.95
  -7   2  -5   -0.67    0.79
  -7   2  -6    0.27    0.53
   7  -2   6    0.00    0.92
  -7   2  -6    1.13    0.82
  -7   2  -7    8.64    1.15
   7  -2   7    6.77    1.39
  -7   2  -7   12.41    1.71
  -7   2  -8   10.69    1.33
   7  -2   8    6.96    1.40
  -7   2  -8    7.84    1.46
  -7   2  -9    9.58    1.38
   7  -2   9   10.55    1.87
   7  -2   9   12.20    1.78
  -7   2 -10    6.91    1.23
   7  -2  10    7.44    1.56
   7  -2  10    6.37    1.37
  -7   2 -11   94.30    4.35
   7  -2  11   82.85    4.48
   7  -2  12    9.75    1.85
   7  -1 -13    3.44    1.32
  -7   1  13    6.93    1.73
   7  -1 -12    1.49    1.01
  -7   1  12   -0.89    0.86
  -7   1  12   -0.31    1.06
  -7   1  11   -0.89    0.95
   7  -1 -11    0.41    0.86
  -7   1  10    7.35    1.53
   7  -1 -10    7.38    1.41
  -7   1   9    3.86    1.24
   7  -1  -9    5.90    1.39
  -7   1   8   38.75    2.67
  -7   1   8   39.47    2.75
   7  -1  -8   35.14    2.57
  -7   1   8   34.59    2.02
  -7   1   7   -0.81    0.62
   7  -1  -7    0.00    0.79
  -7   1   7   -0.17    0.78
  -7   1   7   -1.77    1.18
   7  -1  -7    0.55    0.57
  -7   1   7    0.24    0.51
   7  -1  -6   45.77    2.89
  -7   1   6   50.04    2.41
  -7   1   6   54.67    3.12
  -7   1   6   50.65    2.90
   7  -1  -6   48.22    2.59
  -7   1   6   49.54    2.27
   7  -1  -5   53.48    3.10
  -7   1   5   56.51    2.41
  -7   1   5   57.57    3.16
  -7   1   5   55.83    2.98
   7  -1  -5   53.98    2.76
  -7   1   5   57.45    2.39
   7  -1  -4   60.87    3.29
  -7   1   4   58.11    2.34
   7  -1  -4   62.55    2.95
  -7   1   4   63.68    2.51
  -7   1   4   63.70    3.32
  -7   1   4   57.36    2.97
   7  -1  -3  270.56    7.88
  -7   1   3  268.11    6.19
  -7   1   3  281.04    7.99
  -7   1   3  264.44    7.32
   7  -1  -3  280.45    7.40
  -7   1   3  284.28    6.61
  -7   1   2    1.86    0.43
   7  -1  -2    2.64    0.94
  -7   1   2    3.96    1.09
  -7   1   2    2.93    0.80
   7  -1  -2    3.27    0.90
   7  -1  -2    0.86    0.77
  -7   1   2    2.18    0.64
  -7   1   1  102.56    4.36
   7  -1  -1  103.38    3.81
   7  -1  -1  111.40    4.17
  -7   1   1  105.90    3.50
   7  -1  -1   98.44    4.20
  -7   1   1  104.68    2.87
  -7   1   0   55.90    3.07
   7  -1   0   55.95    2.64
  -7   1   0   53.23    2.46
   7  -1   0   55.81    3.09
  -7   1  -1   33.16    2.39
   7  -1   1   34.48    2.01
  -7   1  -1   35.11    2.01
   7  -1   1   36.67    2.52
   7  -1   1   32.74    1.98
  -7   1  -2   27.05    1.28
  -7   1  -2   27.77    2.14
   7  -1   2   26.73    1.79
  -7   1  -2   30.89    1.93
   7  -1   2   26.15    2.15
   7  -1   2   28.44    1.93
  -7   1  -3   21.85    1.21
   7  -1   3   20.80    1.58
  -7   1  -3   20.75    1.66
   7  -1   3   25.54    1.89
   7  -1   3   21.85    2.03
  -7   1  -4   53.00    2.07
   7  -1   4   51.48    2.55
  -7   1  -4   52.64    2.79
   7  -1   4   51.43    3.08
   7  -1   5    4.34    0.84
  -7   1  -5    4.56    0.75
   7  -1   5    2.73    0.99
  -7   1  -5    3.72    0.98
  -7   1  -6   27.23    1.68
   7  -1   6   23.98    1.81
  -7   1  -6   25.41    2.10
   7  -1   6   27.93    2.35
  -7   1  -7   30.64    1.89
  -7   1  -7   36.77    2.65
   7  -1   7   32.94    2.56
  -7   1  -8   52.07    2.64
  -7   1  -8   60.72    3.50
   7  -1   8   53.82    3.33
  -7   1  -9   10.71    1.33
   7  -1   9   11.25    1.70
  -7   1  -9   12.70    1.79
  -7   1 -10   36.60    2.47
   7  -1  10   39.08    2.91
  -7   1 -11   77.55    3.80
   7  -1  11   78.80    4.65
   7  -1  11   74.49    4.18
  -7   1 -12   37.10    2.74
   7  -1  12   44.83    3.23
   7  -1  13   40.33    3.11
   7   0 -13    4.17    1.15
  -7   0  13    3.17    1.20
  -7   0  13    3.76    1.44
   7   0 -12   -0.79    0.96
  -7   0  12    0.66    0.93
  -7   0  12    0.89    1.11
   7   0 -11   14.60    1.72
  -7   0  11   17.51    1.86
  -7   0  11   14.45    1.99
   7   0 -10   39.78    2.74
  -7   0  10   44.23    3.11
  -7   0  10   44.96    2.80
  -7   0   9   19.79    2.07
   7   0  -9   13.83    1.68
  -7   0   9   16.62    1.48
  -7   0   8   22.91    2.11
   7   0  -8   23.26    2.07
  -7   0   8   24.07    1.84
  -7   0   8   23.28    1.76
  -7   0   7    1.27    0.88
   7   0  -7    3.58    1.07
  -7   0   7    2.89    0.68
  -7   0   7    2.24    0.77
   7   0  -6   60.67    3.25
  -7   0   6   60.63    2.65
  -7   0   6   65.12    3.31
   7   0  -6   70.71    3.23
  -7   0   6   64.73    3.03
  -7   0   6   64.90    2.78
  -7   0   5   12.78    1.11
   7   0  -5   12.79    1.55
  -7   0   5   10.41    1.35
   7   0  -5   13.41    1.38
  -7   0   5   11.84    1.38
  -7   0   5    9.54    1.13
   7   0  -4   59.52    3.15
  -7   0   4   59.59    2.24
  -7   0   4   58.60    3.17
  -7   0   4   59.51    2.92
   7   0  -4   59.56    2.91
  -7   0   4   62.72    3.03
  -7   0   4   57.46    2.54
   7   0  -4   60.84    3.01
   7   0  -3  130.82    4.90
  -7   0   3  134.86    3.52
  -7   0   3  140.38    5.04
  -7   0   3  130.55    4.46
   7   0  -3  140.78    4.72
  -7   0   3  131.44    4.09
   7   0  -3  125.23    4.66
  -7   0   2   51.17    1.74
  -7   0   2   55.18    3.02
  -7   0   2   53.36    2.58
  -7   0   2   50.53    2.34
   7   0  -2   49.97    2.66
   7   0  -2   48.02    2.77
  -7   0   1  117.79    2.80
  -7   0   1  117.98    3.84
   7   0  -1  127.04    4.47
   7   0  -1  107.94    4.33
  -7   0   0   91.46    2.16
   7   0   0   89.90    3.30
  -7   0   0   87.57    3.28
   7   0   0   86.18    3.77
   7   0   1    5.10    0.84
  -7   0  -1    4.97    0.41
  -7   0  -1    5.07    0.40
   7   0   1    3.59    1.10
  -7   0  -1    4.47    0.85
   7   0   1    4.39    0.84
  -7   0  -2   40.00    1.26
   7   0   2   40.69    2.02
  -7   0  -2   40.89    2.26
   7   0   2   36.47    2.51
   7   0   2   38.18    2.24
  -7   0  -3   30.39    1.18
   7   0   3   26.07    1.64
  -7   0  -3   29.07    1.99
   7   0   3   27.91    2.21
   7   0   3   32.37    2.10
   7   0   4    1.26    0.61
  -7   0  -4    0.36    0.37
   7   0   4    1.81    0.98
  -7   0  -4    1.54    0.81
   7   0   5   19.95    1.47
  -7   0  -5   23.94    1.28
   7   0   5   21.92    2.07
  -7   0  -5   18.52    1.76
   7   0   6    8.84    1.14
  -7   0  -6    8.40    0.90
   7   0   6    5.37    1.23
  -7   0  -6    8.10    1.30
  -7   0  -7   35.41    1.87
  -7   0  -7   31.41    2.39
   7   0   7   31.04    2.43
  -7   0  -8   33.35    1.96
  -7   0  -8   33.59    2.58
   7   0   8   31.00    2.51
  -7   0  -9   19.68    1.63
   7   0   9   20.49    2.11
  -7   0  -9   23.34    2.27
  -7   0 -10  137.40    4.83
  -7   0 -10  137.20    5.84
   7   0  10  135.96    5.56
  -7   0 -11   65.36    3.35
  -7   0 -11   69.06    4.19
   7   0  11   64.35    3.79
  -7   0 -12   58.20    3.28
   7   0  12   59.58    4.11
   7   0  12   58.46    3.67
   7   0  13   18.26    2.14
   7   0  14   40.00    3.11
  -7  -1  14    7.20    1.61
  -7  -1  13   12.33    1.76
   7   1 -12    3.80    1.10
  -7  -1  12    2.23    1.08
  -7  -1  12    3.14    1.31
   7   1 -11   -0.25    0.70
  -7  -1  11   -0.91    1.06
  -7  -1  11    0.80    1.01
   7   1 -10    8.31    1.31
  -7  -1  10    8.63    1.41
  -7  -1  10    9.38    1.65
   7   1  -9    0.38    0.75
  -7  -1   9    0.63    0.91
  -7  -1   9    1.76    0.94
  -7  -1   8    5.82    1.07
   7   1  -8    5.61    1.14
  -7  -1   8    4.71    1.16
  -7  -1   8    3.51    0.93
  -7  -1   8    4.86    0.89
  -7  -1   7   30.55    2.32
   7   1  -7   29.61    2.21
  -7  -1   7   29.42    1.88
  -7  -1   7   28.94    1.89
  -7  -1   6   21.15    1.85
  -7  -1   6   19.56    1.44
   7   1  -6   20.18    1.85
  -7  -1   6   21.16    1.62
  -7  -1   5  286.97    7.72
   7   1  -5  283.74    7.89
  -7  -1   5  287.70    6.75
  -7  -1   5  295.13    7.55
  -7  -1   5  302.25    7.45
   7   1  -5  277.40    7.46
   7   1  -4   40.99    2.52
  -7  -1   4   40.48    1.76
  -7  -1   4   38.68    2.30
   7   1  -4   41.66    2.46
   7   1  -4   39.71    2.33
  -7  -1   4   38.84    2.14
  -7  -1   4   42.83    2.37
  -7  -1   3   71.60    2.23
  -7  -1   3   69.58    3.01
   7   1  -3   77.34    3.35
   7   1  -3   64.97    3.10
  -7  -1   3   68.61    2.89
  -7  -1   3   73.99    3.27
  -7  -1   2    5.55    0.50
  -7  -1   2    6.45    0.97
   7   1  -2    5.57    0.98
  -7  -1   2    6.83    1.01
   7   1  -2    6.07    1.02
  -7  -1   2    6.04    0.92
  -7  -1   1   59.81    1.46
  -7  -1   1   54.41    2.48
  -7  -1   1   55.84    2.59
   7   1  -1   66.82    3.11
   7   1  -1   62.03    3.04
   7   1   0  116.42    4.31
  -7  -1   0  105.35    3.74
   7   1   0  104.64    4.16
   7   1   1    9.57    1.35
  -7  -1  -1    9.42    1.13
   7   1   2   29.51    1.59
  -7  -1  -2   29.33    1.92
   7   1   2   28.12    2.11
   7   1   2   26.52    1.85
   7   1   3   37.17    1.78
  -7  -1  -3   36.09    2.23
   7   1   3   39.07    2.52
   7   1   3   42.06    2.43
  -7  -1  -4   33.13    1.12
   7   1   4   30.62    1.61
  -7  -1  -4   32.66    2.16
   7   1   4   34.04    2.40
  -7  -1  -5   58.04    1.85
   7   1   5   55.62    2.29
  -7  -1  -5   57.02    2.99
   7   1   5   50.56    2.98
   7   1   6    7.89    0.95
  -7  -1  -6    9.42    0.83
  -7  -1  -6    8.34    1.28
   7   1   6    8.52    1.35
  -7  -1  -7    1.81    0.52
  -7  -1  -7    2.68    0.92
   7   1   7    1.20    0.86
  -7  -1  -8   14.23    1.25
  -7  -1  -8   14.44    1.76
   7   1   8   12.46    1.62
  -7  -1  -9  154.24    4.75
  -7  -1  -9  148.94    5.87
   7   1   9  150.26    5.74
  -7  -1 -10   53.37    2.73
  -7  -1 -10   55.00    3.53
   7   1  10   59.17    3.49
  -7  -1 -11   46.32    2.69
  -7  -1 -11   54.90    3.66
   7   1  11   48.94    3.27
  -7  -1 -12   41.69    2.69
  -7  -1 -12   43.08    3.32
   7   1  12   40.05    2.98
  -7  -1 -13   54.16    3.23
   7   1  13   58.59    3.68
   7   1  14   23.19    2.48
   7   2 -14    0.92    1.52
  -7  -2  14    2.68    1.08
   7   2 -13    0.25    1.04
  -7  -2  13    1.46    1.02
   7   2 -12    2.41    1.24
  -7  -2  12    1.06    1.04
   7   2 -11   21.28    1.89
   7   2 -11   20.82    2.11
  -7  -2  11   18.73    2.01
   7   2 -10    3.90    0.93
   7   2 -10    7.09    1.35
  -7  -2  10    5.78    1.37
   7   2  -9   13.30    1.53
   7   2  -9   12.17    1.53
  -7  -2   9   10.02    1.46
   7   2  -8   70.54    3.36
  -7  -2   8   71.37    3.63
   7   2  -8   68.58    3.25
  -7  -2   8   75.40    2.92
  -7  -2   7   14.80    1.34
   7   2  -7   13.07    1.50
   7   2  -7   12.66    1.36
  -7  -2   7   10.64    1.45
  -7  -2   7   13.85    1.62
  -7  -2   7   13.66    1.30
   7   2  -6   22.41    1.84
  -7  -2   6   20.30    1.49
  -7  -2   6   19.98    1.80
  -7  -2   6   17.72    1.75
  -7  -2   6   18.87    1.49
  -7  -2   5   82.30    3.52
   7   2  -5   88.86    3.68
  -7  -2   5   82.64    2.92
   7   2  -5   78.14    3.22
  -7  -2   5   82.55    3.30
  -7  -2   4   27.93    1.89
   7   2  -4   25.45    1.94
  -7  -2   4   27.32    1.45
   7   2  -4   25.89    1.84
  -7  -2   4   23.66    1.78
  -7  -2   4   26.67    1.84
  -7  -2   3   28.19    1.84
  -7  -2   3   27.38    1.27
   7   2  -3   25.96    1.88
  -7  -2   3   31.64    2.00
  -7  -2   3   29.67    1.96
  -7  -2   2    5.42    0.83
   7   2  -2    6.35    1.05
  -7  -2   2    7.76    1.08
   7   2  -2    6.85    1.08
  -7  -2   2    7.39    1.09
  -7  -2   1  143.13    4.25
   7   2  -1  159.70    5.15
  -7  -2   1  150.80    4.71
   7   2  -1  140.25    4.84
  -7  -2   1  154.35    5.00
  -7  -2   0   31.67    1.69
   7   2   0   34.08    2.24
  -7  -2   0   31.22    1.97
   7   2   0   32.35    2.16
  -7  -2   0   33.76    2.16
  -7  -2  -1  102.97    3.79
   7   2   1  106.90    4.13
  -7  -2  -2   35.65    2.17
   7   2   2   35.52    2.34
   7   2   2   37.31    2.23
   7   2   3   22.76    1.26
  -7  -2  -3   23.00    1.76
   7   2   3   24.97    1.86
   7   2   3   22.81    1.93
   7   2   4   11.92    0.88
  -7  -2  -4   13.75    1.47
   7   2   4   11.68    1.52
   7   2   5    1.48    0.47
  -7  -2  -5    2.06    0.86
   7   2   5    1.63    0.86
   7   2   6   82.44    2.70
  -7  -2  -6   80.19    3.74
   7   2   6   89.19    4.04
  -7  -2  -6   95.56    2.56
   7   2   7    6.47    0.76
  -7  -2  -7    5.89    0.73
  -7  -2  -7    5.68    1.22
   7   2   7    5.87    1.22
  -7  -2  -8   39.93    1.92
  -7  -2  -8   39.12    2.75
   7   2   8   37.67    2.66
  -7  -2  -9   42.30    2.12
  -7  -2  -9   40.50    2.87
   7   2   9   36.73    2.70
  -7  -2 -10   50.52    2.52
  -7  -2 -10   48.80    3.30
   7   2  10   49.65    3.22
  -7  -2 -11  120.10    4.41
  -7  -2 -11  120.01    5.46
   7   2  11  125.04    5.27
  -7  -2 -12    1.53    0.90
  -7  -2 -12    3.71    1.39
   7   2  12    1.58    1.05
  -7  -2 -13  139.47    5.30
  -7  -2 -13  139.20    6.33
   7   2  13  143.97    5.95
   7   2  14    2.40    0.96
   7   2  15   62.56    3.94
  -7  -3  14   -0.35    1.13
   7   3 -13    2.78    1.14
  -7  -3  13    2.10    0.99
   7   3 -12    3.38    1.20
  -7  -3  12    4.34    1.27
   7   3 -11    7.67    1.50
  -7  -3  11   10.11    1.74
   7   3 -10   50.95    2.74
  -7  -3  10   46.92    3.19
   7   3 -10   53.16    3.21
   7   3  -9   23.00    1.99
   7   3  -9   24.19    1.95
  -7  -3   9   26.31    2.31
   7   3  -8  205.29    6.10
   7   3  -8  201.81    6.21
  -7  -3   8  201.27    6.77
   7   3  -7   58.61    2.91
  -7  -3   7   63.16    3.41
   7   3  -7   62.30    2.96
  -7  -3   7   63.73    2.62
   7   3  -6  199.60    5.92
  -7  -3   6  198.31    6.42
   7   3  -6  195.19    5.50
  -7  -3   6  193.26    5.37
   7   3  -6  186.74    5.33
   7   3  -5    0.39    0.60
   7   3  -5   -0.14    0.70
  -7  -3   5   -0.91    0.89
   7   3  -5    1.95    0.68
  -7  -3   5    0.10    0.57
  -7  -3   4  194.15    5.67
   7   3  -4  188.44    5.48
   7   3  -4  194.06    4.89
  -7  -3   4  192.76    5.53
  -7  -3   3  180.82    5.25
   7   3  -3  180.69    5.38
  -7  -3   3  191.19    5.69
  -7  -3   3  187.22    5.47
  -7  -3   2   23.81    1.56
  -7  -3   2   20.80    1.70
   7   3  -2   20.67    1.67
  -7  -3   2   21.04    1.65
  -7  -3   1   63.30    2.48
   7   3  -1   62.80    3.11
  -7  -3   1   67.65    3.03
  -7  -3   1   68.00    3.07
  -7  -3   0    1.17    0.48
  -7  -3   0    0.80    0.66
   7   3   0   -0.55    0.69
  -7  -3   0   -0.04    0.64
  -7  -3  -1   81.32    3.42
   7   3   1   83.01    3.53
  -7  -3  -1   87.60    3.63
  -7  -3  -2  161.07    5.14
   7   3   2  161.85    5.31
  -7  -3  -3    1.00    0.71
   7   3   3    0.82    0.85
   7   3   3    1.03    0.73
  -7  -3  -4   22.07    1.81
   7   3   4   19.89    1.87
   7   3   5   19.23    0.94
  -7  -3  -5   18.28    1.68
   7   3   5   17.96    1.77
   7   3   6   72.19    2.08
  -7  -3  -6   69.63    3.43
   7   3   6   68.45    3.47
   7   3   7    4.18    0.56
  -7  -3  -7    2.88    0.97
   7   3   7    3.32    1.11
   7   3   8  212.36    4.92
  -7  -3  -8  213.64    6.91
   7   3   8  207.07    6.81
  -7  -3  -9   21.35    1.45
  -7  -3  -9   15.96    1.87
   7   3   9   20.03    2.01
  -7  -3 -10   50.51    3.31
   7   3  10   47.94    3.13
  -7  -3 -10   51.89    2.48
  -7  -3 -11   42.92    3.15
  -7  -3 -11   45.01    2.45
   7   3  11   37.57    2.86
  -7  -3 -12  115.74    5.48
  -7  -3 -12  121.10    4.50
   7   3  12  110.56    5.07
  -7  -3 -13   88.13    4.81
   7   3  13   84.80    4.43
  -7  -3 -13   84.48    3.88
   7   3  14   54.57    3.82
   7   3  14   45.89    3.28
  -7  -3 -14   44.99    2.95
   7   3  15   27.10    2.61
   7   4 -13    0.66    1.08
  -7  -4  13    0.10    1.22
   7   4 -12    5.36    1.39
  -7  -4  12    5.82    1.48
   7   4 -11    6.54    1.42
  -7  -4  11    9.60    1.72
   7   4 -10   29.54    2.43
  -7  -4  10   23.17    2.37
   7   4  -9    1.38    0.66
   7   4  -9    1.36    0.86
  -7  -4   9    2.46    1.02
   7   4  -8   19.95    1.63
   7   4  -8   20.06    1.86
  -7  -4   8   19.34    2.07
   7   4  -7   35.45    2.16
   7   4  -7   34.54    2.23
  -7  -4   7   40.07    2.80
  -7  -4   7   37.75    1.88
   7   4  -6  312.32    7.93
   7   4  -6  309.27    7.73
  -7  -4   6  312.28    8.80
   7   4  -6  316.43    7.37
  -7  -4   6  300.52    7.32
   7   4  -5    5.61    0.95
   7   4  -5    7.52    1.11
  -7  -4   5   10.33    1.46
   7   4  -5    8.05    1.01
  -7  -4   5    5.88    0.92
   7   4  -4   89.86    2.99
  -7  -4   4   83.06    3.84
   7   4  -4   82.56    3.20
  -7  -4   4   82.16    3.23
   7   4  -3  143.62    3.81
   7   4  -3  140.57    4.52
  -7  -4   3  152.28    4.68
  -7  -4   2  101.48    3.44
   7   4  -2  101.50    3.76
  -7  -4   2  101.54    3.97
   7   4  -2  103.93    2.73
  -7  -4   2  105.63    3.82
  -7  -4   1   80.41    2.80
   7   4  -1   76.79    3.26
  -7  -4   1   80.27    3.45
  -7  -4   1   84.08    3.41
  -7  -4   0   20.06    1.23
   7   4   0   23.21    1.79
  -7  -4   0   20.88    1.74
  -7  -4   0   23.41    1.80
  -7  -4  -1   20.97    1.14
  -7  -4  -1   22.25    1.80
  -7  -4  -1   24.12    1.84
   7   4   1   18.96    1.67
  -7  -4  -2  128.26    4.51
   7   4   2  123.43    4.53
   7   4   3    1.53    0.72
  -7  -4  -3    2.05    0.78
   7   4   4   16.93    1.68
  -7  -4  -4   18.66    1.67
  -7  -4  -5   39.93    2.50
   7   4   5   45.85    2.73
   7   4   6   16.53    1.72
  -7  -4  -6   11.08    1.40
   7   4   7  112.79    2.36
  -7  -4  -7  122.38    4.74
   7   4   7  118.47    4.70
   7   4   8  132.69    2.94
  -7  -4  -8  129.37    5.14
   7   4   8  123.71    5.02
   7   4   9    0.17    0.88
  -7  -4  -9    2.49    1.04
  -7  -4 -10  135.60    5.54
   7   4  10  128.65    5.28
  -7  -4 -11    1.88    1.04
   7   4  11    2.31    1.17
  -7  -4 -12   65.76    4.01
   7   4  12   65.78    3.79
  -7  -4 -13   73.80    4.40
   7   4  13   69.90    4.00
  -7  -4 -14   94.50    5.15
   7   4  14   88.17    4.62
   7   4  15   39.14    3.06
   7   4  16   38.84    3.17
   7   5 -13    1.35    1.30
   7   5 -12    7.35    1.55
  -7  -5  12    6.88    1.74
   7   5 -11   14.35    1.94
  -7  -5  11   14.24    1.97
   7   5 -10   12.92    1.76
  -7  -5  10   11.93    1.85
   7   5  -9    6.69    1.32
  -7  -5   9    7.96    1.52
   7   5  -8   16.06    1.41
   7   5  -8   13.90    1.65
  -7  -5   8   13.67    1.83
   7   5  -7   20.50    1.58
   7   5  -7   16.59    1.67
  -7  -5   7   18.03    1.99
   7   5  -6   73.71    3.09
   7   5  -6   74.26    3.20
  -7  -5   6   75.37    3.90
   7   5  -6   77.33    2.82
  -7  -5   6   77.99    2.85
   7   5  -5   83.07    3.34
   7   5  -5   78.43    3.13
  -7  -5   5   84.39    4.01
   7   5  -5   82.10    3.05
  -7  -5   5   82.62    3.08
   7   5  -4   63.27    2.58
  -7  -5   4   66.96    3.48
  -7  -5   4   66.59    2.81
   7   5  -4   65.92    2.76
   7   5  -3  411.77    8.65
  -7  -5   3  414.04   10.43
  -7  -5   3  403.86    9.40
   7   5  -3  395.82    9.30
   7   5  -2   11.32    0.87
  -7  -5   2   10.73    1.20
   7   5  -2   11.28    1.24
  -7  -5   2   11.86    1.43
  -7  -5   1  176.35    4.71
   7   5  -1  178.28    3.98
  -7  -5   1  187.03    5.53
   7   5  -1  179.58    5.39
  -7  -5   1  180.92    5.73
  -7  -5   0   72.51    2.47
   7   5   0   74.29    1.76
   7   5   0   72.43    3.19
  -7  -5   0   77.14    3.43
  -7  -5   0   80.56    3.36
  -7  -5  -1   23.74    1.18
   7   5   1   26.17    1.91
  -7  -5  -1   25.28    1.96
  -7  -5  -1   27.27    1.92
  -7  -5  -2   60.64    1.75
  -7  -5  -2   64.14    3.07
   7   5   2   56.89    2.93
  -7  -5  -3   73.06    3.36
   7   5   3   72.68    3.39
   7   5   4    5.78    1.16
  -7  -5  -4    5.78    1.13
   7   5   5    1.84    0.91
  -7  -5  -5    1.49    0.83
  -7  -5  -6   37.76    2.48
   7   5   6   37.22    2.55
   7   5   7   54.90    1.92
  -7  -5  -7   60.17    3.23
   7   5   7   58.15    3.20
   7   5   8  147.50    3.98
  -7  -5  -8  151.19    5.59
   7   5   8  150.77    5.56
   7   5   9   25.43    1.57
  -7  -5  -9   29.37    2.40
   7   5   9   26.98    2.29
   7   5  10   89.13    3.34
  -7  -5 -10   95.78    5.22
   7   5  10   94.05    4.42
  -7  -5 -11   66.50    3.90
   7   5  11   74.64    3.97
   7   5  12    2.14    0.98
  -7  -5 -12    0.57    1.03
  -7  -5 -13   91.80    4.88
   7   5  13   80.62    4.40
  -7  -5 -14   34.81    3.07
   7   5  14   36.72    2.94
   7   5  15   64.15    3.98
   7   5  16    8.41    1.62
   7   6 -12    0.14    1.08
   7   6 -11    5.77    1.51
  -7  -6  11    3.19    1.35
   7   6 -10    9.64    1.73
  -7  -6  10   11.75    1.89
   7   6  -9    7.52    1.48
  -7  -6   9    5.88    1.57
   7   6  -8   33.31    2.46
  -7  -6   8   37.65    2.99
   7   6  -7   60.69    2.63
   7   6  -7   56.97    3.07
  -7  -6   7   53.39    3.44
   7   6  -7   56.06    2.38
   7   6  -6   88.49    3.33
   7   6  -6   93.00    3.77
  -7  -6   6   88.37    4.37
   7   6  -6   95.21    3.11
   7   6  -5   94.57    3.50
   7   6  -5   89.88    3.54
  -7  -6   5   96.86    4.44
   7   6  -5   92.20    3.23
   7   6  -4   81.23    3.13
  -7  -6   4   87.14    4.10
   7   6  -4   85.71    3.19
   7   6  -3  129.04    3.91
  -7  -6   3  133.58    5.14
  -7  -6   3  129.59    4.26
   7   6  -3  131.93    4.26
   7   6  -2  100.20    3.05
  -7  -6   2   93.26    4.14
  -7  -6   2   93.42    3.58
   7   6  -2   90.09    3.50
   7   6  -1  209.55    4.87
  -7  -6   1  216.86    6.11
   7   6  -1  205.76    5.95
  -7  -6   1  215.37    6.52
   7   6   0    3.88    0.52
   7   6   0    2.72    0.81
  -7  -6   0    3.13    0.81
  -7  -6   0    2.92    0.90
  -7  -6  -1   50.02    1.78
   7   6   1   49.29    1.45
  -7  -6  -1   50.66    2.70
  -7  -6  -1   51.04    2.85
   7   6   1   49.31    2.65
  -7  -6  -2   34.38    1.20
   7   6   2   34.33    0.97
  -7  -6  -2   35.22    2.37
   7   6   2   30.96    2.15
   7   6   3    5.57    1.12
  -7  -6  -3    7.29    1.25
   7   6   4    7.97    0.42
   7   6   4    8.85    1.35
  -7  -6  -4    9.95    1.35
   7   6   5    8.05    0.53
   7   6   5    8.26    1.28
  -7  -6  -5   11.52    1.45
   7   6   6  260.11    5.39
  -7  -6  -6  254.63    7.53
   7   6   6  257.47    7.60
   7   6   7    8.43    0.75
   7   6   7    9.41    1.47
  -7  -6  -7    7.39    1.26
   7   6   8  227.87    5.43
  -7  -6  -8  225.43    7.18
   7   6   8  228.12    7.24
   7   6   9    3.11    0.70
   7   6   9    5.32    1.28
  -7  -6  -9    4.77    1.24
   7   6  10  114.85    3.89
  -7  -6 -10  127.93    5.27
   7   6  10  123.12    5.16
  -7  -6 -11   47.30    3.24
   7   6  11   43.23    3.04
   7   6  12   23.35    2.30
  -7  -6 -12   18.72    2.21
  -7  -6 -13   90.01    4.78
   7   6  13   85.40    4.87
  -7  -6 -14   38.46    3.23
   7   6  14   32.37    2.83
   7   6  15   90.54    4.80
   7   6  16    4.70    1.31
   7   7 -11   24.47    2.56
   7   7 -10   14.59    2.04
  -7  -7  10   17.50    2.29
   7   7  -9    2.29    1.17
  -7  -7   9    3.70    1.40
   7   7  -8  158.93    5.88
  -7  -7   8  166.12    6.64
   7   7  -7   15.60    1.73
  -7  -7   7   20.17    2.21
   7   7  -6  141.31    4.27
   7   7  -6  137.98    4.95
  -7  -7   6  137.62    5.77
   7   7  -6  137.54    3.92
   7   7  -5   42.98    2.49
  -7  -7   5   46.26    3.12
   7   7  -5   45.48    2.13
   7   7  -4  429.39    9.89
  -7  -7   4  428.67   11.31
   7   7  -4  432.48    9.62
   7   7  -3   12.76    1.26
  -7  -7   3   13.17    1.68
   7   7  -3   11.47    1.21
   7   7  -2   66.14    2.59
  -7  -7   2   69.73    3.62
   7   7  -2   63.18    2.88
   7   7  -1  105.57    3.22
  -7  -7   1  106.87    4.49
  -7  -7   1  102.80    4.32
   7   7  -1   98.88    3.81
   7   7   0   66.63    2.28
  -7  -7   0   72.54    3.50
   7   7   0   64.79    3.05
   7   7   1   21.54    1.13
  -7  -7  -1   19.04    1.69
   7   7   1   18.97    1.70
  -7  -7  -1   23.54    2.00
  -7  -7  -2   31.74    1.21
  -7  -7  -2   35.45    2.40
   7   7   2   33.69    2.25
   7   7   3   19.78    1.83
  -7  -7  -3   17.25    1.71
  -7  -7  -4   75.91    3.62
   7   7   4   77.69    3.59
   7   7   4   77.58    2.14
   7   7   5   22.47    1.07
   7   7   5   21.45    1.89
  -7  -7  -5   19.20    1.86
   7   7   6  106.79    2.93
  -7  -7  -6  109.31    4.48
   7   7   6  104.98    4.47
   7   7   7    0.53    0.43
   7   7   7    1.01    0.97
  -7  -7  -7    0.25    0.83
   7   7   8  129.03    3.75
  -7  -7  -8  132.61    5.21
   7   7   8  137.96    5.33
   7   7   9  119.05    3.77
  -7  -7  -9  117.65    4.99
   7   7   9  124.10    5.13
   7   7  10   98.12    3.53
  -7  -7 -10  100.74    4.66
   7   7  10   94.59    4.51
   7   7  11   23.96    2.34
  -7  -7 -11   20.34    2.18
  -7  -7 -12   87.84    4.60
   7   7  12   94.87    4.69
  -7  -7 -13   31.67    2.83
   7   7  13   35.97    2.97
  -7  -7 -14   78.16    4.56
   7   7  14   79.98    4.49
   7   7  15   62.35    3.94
   7   7  16    0.24    1.43
   7   8 -11  100.57    5.34
   7   8 -10    0.60    1.12
   7   8  -9   76.22    4.22
  -7  -8   9   76.44    4.61
   7   8  -8   31.03    2.57
  -7  -8   8   33.60    2.99
   7   8  -7   34.55    2.58
  -7  -8   7   33.45    2.98
   7   8  -6  178.07    5.99
  -7  -8   6  182.14    6.92
   7   8  -5   37.95    2.43
  -7  -8   5   41.88    3.10
   7   8  -5   45.75    2.11
   7   8  -4   83.36    3.54
  -7  -8   4   84.14    4.31
   7   8  -4   92.67    3.33
   7   8  -3   92.59    3.54
  -7  -8   3   93.09    4.40
   7   8  -3   89.30    3.43
   7   8  -2    0.42    0.61
  -7  -8   2    1.56    0.97
   7   8  -2   -0.46    0.65
   7   8  -1  179.42    4.89
  -7  -8   1  172.41    6.14
   7   8  -1  172.86    5.40
   7   8   0  135.77    3.91
   7   8   0  128.16    4.58
  -7  -8   0  136.86    5.18
  -7  -8  -1   24.87    2.12
   7   8   1   22.10    1.87
   7   8   2    7.84    1.24
  -7  -8  -2    8.28    1.30
  -7  -8  -3  227.43    4.35
  -7  -8  -3  235.54    7.10
   7   8   3  219.96    6.77
  -7  -8  -4   56.32    3.12
   7   8   4   49.62    2.95
  -7  -8  -5  444.66   11.14
   7   8   5  447.83    9.00
   7   8   5  433.94   11.04
   7   8   6    1.76    0.48
   7   8   6    0.95    0.91
  -7  -8  -6    1.18    0.86
   7   8   7   96.22    3.07
  -7  -8  -7   98.39    4.36
   7   8   7   97.26    4.39
   7   8   8   31.94    1.73
  -7  -8  -8   31.91    2.49
   7   8   8   37.90    2.74
   7   8   9   60.79    2.60
  -7  -8  -9   61.76    3.53
   7   8   9   65.79    3.69
   7   8  10  205.36    5.77
  -7  -8 -10  207.54    7.15
   7   8  10  213.26    7.26
  -7  -8 -11   31.87    2.69
   7   8  11   37.66    2.88
  -7  -8 -12  132.53    5.72
   7   8  12  121.13    5.50
  -7  -8 -13   52.17    3.64
   7   8  13   50.90    3.55
  -7  -8 -14   90.57    4.88
   7   8  14   83.95    4.67
   7   8  15   29.42    2.83
   7   8  16   19.96    2.44
   7   9 -10    3.11    1.27
   7   9  -9   86.69    4.66
   7   9  -8   53.06    3.51
  -7  -9   8   63.95    4.19
   7   9  -7   20.09    2.10
  -7  -9   7   19.98    2.35
   7   9  -6   65.51    3.54
  -7  -9   6   61.40    3.99
   7   9  -5   64.63    3.35
  -7  -9   5   61.03    3.83
   7   9  -5   59.72    2.52
   7   9  -4   53.57    2.89
  -7  -9   4   52.87    3.48
   7   9  -4   57.67    2.58
   7   9  -3  133.69    4.64
  -7  -9   3  134.41    5.61
   7   9  -3  135.19    4.45
   7   9  -2   35.11    2.15
  -7  -9   2   38.95    2.86
   7   9  -2   39.27    2.29
   7   9  -1  189.91    5.41
  -7  -9   1  188.62    6.61
   7   9  -1  186.69    5.76
   7   9   0    1.00    0.69
  -7  -9   0    1.21    0.86
   7   9   0    1.45    0.85
  -7  -9   0    2.60    1.18
   7   9   1    1.40    0.78
  -7  -9  -1    0.99    0.96
  -7  -9  -2   28.80    2.36
   7   9   2   28.68    2.16
  -7  -9  -3   51.84    3.12
   7   9   3   52.03    2.99
  -7  -9  -4   26.67    2.27
   7   9   4   27.94    2.23
  -7  -9  -5   78.00    3.79
   7   9   5   74.87    3.75
  -7  -9  -6   37.77    2.67
   7   9   6   35.79    1.81
   7   9   6   37.48    2.69
   7   9   7  172.47    4.76
  -7  -9  -7  175.66    6.16
   7   9   7  168.16    6.16
   7   9   8  157.44    4.61
  -7  -9  -8  155.47    5.86
   7   9   8  165.79    6.11
   7   9   9   66.44    2.83
  -7  -9  -9   66.89    3.74
   7   9   9   66.07    3.77
  -7  -9 -10   75.81    4.07
   7   9  10   77.02    4.17
  -7  -9 -11   41.60    3.13
   7   9  11   43.85    3.18
  -7  -9 -12   93.81    4.78
   7   9  12   91.96    4.78
  -7  -9 -13  164.07    6.66
   7   9  13  171.13    6.81
   7   9  14   19.71    2.37
  -7  -9 -14   14.29    1.97
   7   9  15   50.32    3.69
   7  10  -9   30.26    2.79
   7  10  -8   68.65    4.05
   7  10  -7   29.24    2.60
  -7 -10   7   33.65    3.08
   7  10  -6  132.06    5.45
  -7 -10   6  150.04    6.44
   7  10  -5    1.11    0.98
  -7 -10   5   -0.57    1.19
   7  10  -4   18.55    1.85
  -7 -10   4   15.42    1.96
   7  10  -4   19.47    1.53
   7  10  -3   43.92    2.64
  -7 -10   3   44.09    3.20
   7  10  -3   42.09    2.34
   7  10  -2  100.95    3.77
   7  10  -2  102.55    4.01
  -7 -10   2   93.85    4.65
   7  10  -2   95.27    3.82
   7  10  -1   88.06    3.59
   7  10  -1   87.62    3.57
  -7 -10   1   90.16    4.42
   7  10  -1   88.18    3.75
   7  10   0   16.76    1.56
  -7 -10   0   15.46    1.85
   7  10   0   14.49    1.58
  -7 -10  -1   14.28    1.83
   7  10   1   13.41    1.57
  -7 -10  -1   12.15    1.65
  -7 -10  -2   32.68    2.54
   7  10   2   25.44    2.14
   7  10   3    1.05    0.80
  -7 -10  -3    0.41    0.85
  -7 -10  -4   11.00    0.64
   7  10   4   11.87    1.57
  -7 -10  -4   11.34    1.60
   7  10   5   16.36    1.79
  -7 -10  -5   16.25    1.84
  -7 -10  -6   50.10    3.16
   7  10   6   52.94    3.20
  -7 -10  -7   34.68    2.67
   7  10   7   35.00    1.97
   7  10   7   33.52    2.66
   7  10   8  206.68    5.81
  -7 -10  -8  219.56    7.24
   7  10   8  215.50    7.32
   7  10   9  118.76    4.09
  -7 -10  -9  111.99    4.97
   7  10   9  109.91    5.10
  -7 -10 -10  150.98    5.98
   7  10  10  146.54    6.04
   7  10  11   21.58    2.35
  -7 -10 -11   20.95    2.31
  -7 -10 -12   87.61    4.65
   7  10  12   89.52    4.78
  -7 -10 -13   64.16    4.01
   7  10  13   69.16    4.26
   7  10  14   23.61    2.52
  -7 -10 -14   22.76    2.52
   7  11  -8   35.81    3.04
   7  11  -7   27.41    2.55
   7  11  -6  105.08    4.96
  -7 -11   6  104.22    5.47
   7  11  -5    7.07    1.40
  -7 -11   5    9.76    1.92
   7  11  -4   65.78    3.60
  -7 -11   4   66.41    4.15
   7  11  -3    6.55    1.25
  -7 -11   3    7.43    1.50
   7  11  -3    6.16    1.06
   7  11  -2   31.31    2.28
  -7 -11   2   31.78    2.78
   7  11  -2   32.02    2.20
   7  11  -1   20.24    1.82
  -7 -11   1   21.67    2.25
   7  11  -1   20.84    1.82
  -7 -11   0   23.29    2.24
   7  11   0   21.31    1.88
  -7 -11  -1    7.77    1.43
   7  11   1    8.88    1.32
  -7 -11  -1   10.41    1.62
   7  11   2   -0.50    0.80
  -7 -11  -2    0.74    1.05
  -7 -11  -3  116.10    4.99
   7  11   3  105.27    4.59
   7  11   4    4.58    1.22
  -7 -11  -4    4.19    1.20
  -7 -11  -5  152.76    5.90
   7  11   5  160.43    5.97
  -7 -11  -6   49.65    3.21
   7  11   6   42.43    2.99
  -7 -11  -7   84.82    4.27
   7  11   7   80.69    4.22
  -7 -11  -8   47.92    3.19
   7  11   8   48.25    3.34
  -7 -11  -9   38.90    2.93
   7  11   9   44.48    3.23
  -7 -11 -10   93.70    4.64
   7  11  10   94.86    4.85
  -7 -11 -11   40.41    3.05
   7  11  11   39.14    3.16
  -7 -11 -12  153.65    6.34
   7  11  12  143.24    6.30
   7  11  13    4.52    1.38
  -7 -11 -13    5.57    1.61
  -7 -11 -14   56.86    3.82
   7  11  14   56.11    3.95
   7  12  -7   14.17    1.95
   7  12  -6   66.77    4.05
   7  12  -5   26.93    2.57
   7  12  -4   30.75    2.63
  -7 -12   4   31.23    2.90
   7  12  -3   44.36    3.02
  -7 -12   3   52.02    3.64
   7  12  -2   33.97    2.58
  -7 -12   2   34.37    2.93
   7  12  -2   31.72    2.23
   7  12  -1   25.75    2.19
  -7 -12   1   23.57    2.43
   7  12  -1   24.62    2.03
  -7 -12   0    3.30    1.17
   7  12   0    5.15    1.20
  -7 -12  -1    5.55    1.30
   7  12   1    6.40    1.27
  -7 -12  -1    8.37    1.61
   7  12   2    7.09    1.30
  -7 -12  -2    6.67    1.38
  -7 -12  -3   83.53    4.32
   7  12   3   83.34    4.12
  -7 -12  -4   -0.86    0.92
   7  12   4   -0.54    1.00
  -7 -12  -5   95.52    4.63
   7  12   5   91.21    4.48
  -7 -12  -6   27.94    2.51
   7  12   6   26.23    2.45
  -7 -12  -7  121.83    5.32
   7  12   7  119.93    5.41
  -7 -12  -8    1.12    0.92
   7  12   8    3.22    1.32
  -7 -12  -9  170.96    6.60
   7  12   9  185.44    7.05
  -7 -12 -10   69.70    4.00
   7  12  10   68.29    4.15
  -7 -12 -11   49.77    3.40
   7  12  11   54.66    3.80
  -7 -12 -12  102.07    5.13
   7  12  12  107.24    5.46
  -7 -12 -13   -0.04    0.94
   7  12  13   -0.14    1.11
  -7 -12 -14   17.31    2.23
   7  12  15    1.84    1.26
   7  13  -6   38.30    3.30
   7  13  -5   47.01    3.39
   7  13  -4   28.58    2.62
   7  13  -3   39.53    3.00
  -7 -13   3   40.45    3.37
   7  13  -2    2.88    1.26
  -7 -13   2    3.55    1.23
   7  13  -2    4.53    1.08
  -7 -13   1   38.40    3.15
   7  13  -1   38.80    2.65
  -7 -13   0    8.54    1.65
   7  13   0    1.57    0.92
  -7 -13  -1   23.89    2.46
  -7 -13  -1   33.56    2.84
   7  13   1   28.43    2.39
  -7 -13  -2   33.67    2.80
  -7 -13  -2   33.68    2.87
   7  13   2   35.40    2.72
  -7 -13  -3   15.86    2.01
   7  13   3   13.68    1.77
  -7 -13  -4   49.29    3.38
   7  13   4   50.91    3.33
  -7 -13  -5   17.80    2.07
   7  13   5   15.84    1.99
  -7 -13  -6   12.30    1.88
   7  13   6   12.29    1.86
  -7 -13  -7  171.34    6.63
   7  13   7  181.05    6.93
  -7 -13  -8   29.39    2.63
   7  13   8   31.55    2.85
  -7 -13  -9   47.74    3.38
   7  13   9   49.57    3.59
  -7 -13 -10   46.38    3.43
   7  13  10   50.00    3.59
  -7 -13 -11    3.79    1.20
   7  13  11   11.10    1.98
  -7 -13 -12   57.06    3.79
  -7 -13 -13    8.79    1.62
   7  13  14   17.04    2.25
   7  13  15    9.13    1.90
   7  14  -4  107.54    5.34
   7  14  -3    3.78    1.42
   7  14  -2   47.58    3.43
  -7 -14   2   60.64    4.12
  -7 -14   1   -1.52    1.26
   7  14  -1   -0.01    0.77
  -7 -14   0   -0.48    0.98
   7  14   0   -0.71    0.99
  -7 -14  -1    0.47    0.99
   7  14   1    1.69    1.01
  -7 -14  -1   -0.53    1.07
  -7 -14  -2    8.19    1.63
  -7 -14  -2    7.52    1.71
   7  14   2    9.16    1.56
   7  14   3    1.50    1.00
  -7 -14  -3    1.62    0.98
  -7 -14  -4   36.60    3.02
   7  14   4   35.84    2.93
  -7 -14  -5   39.81    3.15
   7  14   5   35.75    2.92
  -7 -14  -6   42.26    3.21
   7  14   6   44.74    3.36
  -7 -14  -7   76.76    4.31
   7  14   7   68.26    4.27
  -7 -14  -8   70.25    4.14
   7  14   8   68.74    4.25
   7  14   9   24.51    2.65
  -7 -14  -9   27.32    2.67
  -7 -14 -10   47.28    3.45
   7  14  10   49.86    3.75
  -7 -14 -11   15.24    2.09
  -7 -14 -12   42.00    3.28
  -7 -14 -13   -1.33    1.01
   7  15  -2   67.11    4.13
  -7 -15   0    4.28    1.41
   7  15   0    2.04    1.23
  -7 -15  -1    0.82    0.90
   7  15   1   -0.15    0.92
  -7 -15  -1    1.85    1.25
  -7 -15  -2    0.95    1.04
   7  15   2    1.98    1.02
  -7 -15  -2    3.83    1.31
   7  15   3   10.64    1.79
  -7 -15  -3   12.13    1.93
   7  15   4   28.28    2.68
  -7 -15  -4   33.09    2.94
  -7 -15  -5   61.92    3.97
   7  15   5   57.43    3.83
   7  15   6    6.02    1.48
  -7 -15  -6    4.79    1.36
  -7 -15  -7  119.18    5.66
   7  15   7  127.95    6.00
   7  15   8    3.26    1.25
  -7 -15  -8    4.33    1.30
  -7 -15  -9   68.34    4.12
  -7 -15 -10   12.48    2.02
  -7 -15 -11   17.42    2.10
  -7 -15 -12   61.78    4.04
   7  16   1   -0.03    0.99
  -7 -16  -2   12.58    1.96
   7  16   2    8.25    1.56
   7  16   3    8.97    1.58
   7  16   4   12.95    1.97
  -7 -16  -4   18.30    2.35
  -7 -16  -5   42.66    3.44
   7  16   5   39.08    3.29
   7  16   6   23.79    2.68
  -7 -16  -6   23.18    2.50
  -7 -16  -7   83.72    4.74
  -7 -16  -8    8.76    1.67
  -7 -16  -9   54.70    3.84
  -7 -16 -10   14.97    2.09
   8  -8  -1    1.32    1.14
   8  -8   0   13.44    2.09
   8  -8   1   22.80    2.59
   8  -8   1   22.09    2.37
   8  -8   2    2.15    1.27
   8  -8   2    2.86    1.12
   8  -8   3   21.39    2.55
   8  -7  -6    8.73    1.77
  -8   7   6    8.20    1.72
   8  -7  -5    2.98    1.39
  -8   7   5    2.66    1.30
   8  -7  -4    1.57    0.92
  -8   7   4    0.43    1.08
   8  -7  -3    0.82    1.02
  -8   7   3    1.73    1.43
   8  -7  -2    4.18    1.30
  -8   7   2    5.49    1.51
   8  -7  -1    5.95    1.47
  -8   7   1    3.57    1.41
   8  -7   0    0.83    1.05
  -8   7   0   -0.43    1.18
   8  -7   1    8.64    1.70
   8  -7   1    8.66    1.47
  -8   7  -1    6.96    1.65
   8  -7   2    4.77    1.36
   8  -7   2    7.23    1.60
  -8   7  -2    5.95    1.48
   8  -7   3    1.74    1.17
   8  -7   3    2.14    1.24
  -8   7  -3   -0.08    1.17
   8  -7   4   15.61    2.18
   8  -7   4   15.93    2.15
  -8   7  -4   20.38    2.38
   8  -7   5    1.98    1.29
  -8   7  -5   -1.97    1.38
  -8   6   9    0.08    1.20
  -8   6   9    2.03    1.20
   8  -6  -8   10.88    1.94
  -8   6   8   11.23    2.09
   8  -6  -7    2.10    1.27
  -8   6   7    3.90    1.32
   8  -6  -6   20.37    2.35
  -8   6   6   18.78    2.40
   8  -6  -5    3.29    1.13
  -8   6   5    4.72    1.43
   8  -6  -4   -1.09    1.11
  -8   6   4   -0.36    1.08
   8  -6  -3    6.54    1.61
  -8   6   3    5.08    2.02
   8  -6  -2   13.07    1.92
  -8   6   2   11.26    1.89
   8  -6  -1   17.46    2.23
  -8   6   1   18.28    2.23
   8  -6   0   23.95    2.45
  -8   6   0   22.53    2.46
   8  -6   1    6.83    1.47
  -8   6  -1    5.93    1.48
   8  -6   2   20.57    2.35
  -8   6  -2   21.07    2.42
   8  -6   3   21.41    2.42
   8  -6   3   22.79    2.47
  -8   6  -3   19.02    2.42
   8  -6   4    4.18    1.33
  -8   6  -4    4.83    1.40
   8  -6   4    4.13    1.57
   8  -6   5   39.11    3.16
   8  -6   5   39.06    3.26
  -8   6  -5   34.07    2.92
  -8   6  -6    5.20    2.20
   8  -6   6    6.88    1.57
   8  -6   7    9.66    1.89
  -8   5  11   12.95    2.06
   8  -5 -10   16.48    2.34
  -8   5  10   17.33    2.25
  -8   5  10   15.56    2.26
   8  -5  -9   -0.97    1.02
  -8   5   9   -0.86    1.13
  -8   5   9    1.15    0.99
   8  -5  -8   13.28    2.01
  -8   5   8   12.76    1.94
  -8   5   8    9.34    1.69
   8  -5  -7    7.01    1.68
  -8   5   7    7.86    1.63
   8  -5  -6   97.29    5.10
  -8   5   6   95.08    4.95
   8  -5  -5   -0.97    0.99
  -8   5   5    1.47    1.11
   8  -5  -4    2.36    1.11
  -8   5   4    5.51    1.47
   8  -5  -3   15.44    2.10
  -8   5   3   14.41    1.99
   8  -5  -2    1.30    1.20
  -8   5   2    0.13    1.10
   8  -5  -1    4.33    1.40
  -8   5   1    1.60    1.11
  -8   5   0    6.65    1.59
   8  -5   0    5.32    1.41
  -8   5  -1    0.05    1.04
   8  -5   1    1.37    1.01
   8  -5   2   -1.91    1.17
  -8   5  -2    4.57    1.34
   8  -5   3   31.91    2.83
  -8   5  -3   28.27    2.68
   8  -5   4   20.41    2.38
  -8   5  -4   17.92    2.18
   8  -5   5   29.16    2.82
  -8   5  -5   27.10    2.58
   8  -5   5   29.45    2.75
   8  -5   6   10.22    1.90
   8  -5   6    7.22    1.66
   8  -5   7   13.73    2.09
   8  -5   8   23.51    2.48
  -8   4  13   14.20    2.10
  -8   4  12    0.33    0.98
  -8   4  11   44.54    3.50
   8  -4 -11   50.13    3.73
  -8   4  10    6.64    1.49
  -8   4  10    6.04    1.63
   8  -4 -10   10.45    1.82
  -8   4   9   28.69    2.76
  -8   4   9   25.37    2.60
   8  -4  -9   29.65    2.84
  -8   4   8    3.23    1.28
  -8   4   8    0.69    0.94
   8  -4  -8    2.13    1.27
  -8   4   7    6.97    1.40
  -8   4   7   12.19    1.91
   8  -4  -7    9.44    1.72
  -8   4   6    1.27    1.06
   8  -4  -6    0.62    1.06
  -8   4   5    1.91    1.25
   8  -4  -5    1.31    1.11
  -8   4   4    8.23    1.57
   8  -4  -4    4.80    1.29
  -8   4   3   -0.34    1.05
   8  -4  -3    1.46    1.12
  -8   4   2    6.69    1.46
   8  -4  -2    7.03    1.53
  -8   4   2    5.29    0.81
  -8   4   1    0.69    0.87
   8  -4  -1    0.65    0.95
  -8   4   1    0.66    0.62
   8  -4   0   25.08    2.44
  -8   4   0   24.18    2.37
  -8   4   0   24.98    1.73
   8  -4   1    6.03    1.46
  -8   4  -1    6.06    1.39
  -8   4  -1    7.30    1.12
  -8   4  -2    0.90    1.00
   8  -4   2    0.07    1.04
  -8   4  -2   -0.81    0.64
   8  -4   3   63.55    3.83
  -8   4  -3   63.18    2.92
  -8   4  -3   59.05    3.63
  -8   4  -4    2.65    0.89
  -8   4  -4    2.56    1.03
   8  -4   4    1.01    1.46
   8  -4   5   84.86    4.54
  -8   4  -5   81.22    4.33
   8  -4   6    1.89    1.20
   8  -4   7   38.91    3.14
   8  -4   7   43.60    3.51
   8  -4   8   18.84    2.29
   8  -4   9    3.95    1.43
   8  -3 -13    8.16    1.76
  -8   3  12   16.23    2.16
   8  -3 -12    8.51    1.72
  -8   3  11   14.16    2.06
  -8   3  11   15.13    2.16
   8  -3 -11   13.07    2.06
  -8   3  10   35.62    2.94
  -8   3  10   33.68    2.93
   8  -3 -10   26.57    2.70
  -8   3   9   11.63    1.84
  -8   3   9   11.98    1.84
   8  -3  -9   13.52    1.98
  -8   3   8    1.35    1.17
  -8   3   8   -0.19    0.94
   8  -3  -8    0.86    1.01
  -8   3   7    8.94    1.62
  -8   3   7    9.51    1.59
   8  -3  -7   10.34    1.76
  -8   3   6    6.94    1.39
  -8   3   6    6.35    1.37
   8  -3  -6    7.44    1.55
  -8   3   5    0.63    0.94
  -8   3   5    2.16    1.02
   8  -3  -5   -0.22    1.04
  -8   3   5    1.74    0.52
  -8   3   4    0.45    1.15
   8  -3  -4    0.49    0.99
  -8   3   4   -0.08    0.43
   8  -3  -3    4.35    1.20
  -8   3   3    3.32    1.12
  -8   3   3    7.12    0.88
   8  -3  -2   11.56    1.70
  -8   3   2   16.95    1.99
  -8   3   2   13.13    1.19
   8  -3  -1   10.14    1.63
  -8   3   1    9.97    1.61
  -8   3   1   11.37    1.16
   8  -3   0   64.87    3.77
  -8   3   0   57.67    3.56
  -8   3   0   57.10    2.63
  -8   3  -1   -0.41    0.86
   8  -3   1    1.91    1.08
  -8   3  -1    0.16    0.65
   8  -3   1    0.66    0.69
   8  -3   2   56.85    3.54
  -8   3  -2   52.69    3.35
  -8   3  -2   52.11    2.77
   8  -3   3   34.97    2.84
  -8   3  -3   30.93    1.84
  -8   3  -3   32.33    2.66
  -8   3  -3   28.16    2.13
   8  -3   3   31.60    2.84
  -8   3  -4   71.54    2.98
  -8   3  -4   74.05    3.96
  -8   3  -4   71.46    3.56
   8  -3   4   76.58    4.25
  -8   3  -5   64.52    2.87
  -8   3  -5   58.72    3.36
   8  -3   5   63.46    3.89
   8  -3   6    3.77    1.19
   8  -3   7   23.68    2.57
   8  -3   8   22.59    2.49
   8  -3   8   19.16    2.29
   8  -3   9    6.82    1.62
   8  -2 -13   41.96    3.32
   8  -2 -12    3.87    1.46
  -8   2  11   36.60    3.13
   8  -2 -11   39.57    3.14
  -8   2  10    4.23    1.34
   8  -2 -10    5.95    1.37
  -8   2   9   -0.21    1.04
  -8   2   9    0.12    1.00
   8  -2  -9    2.58    1.20
  -8   2   8   23.94    2.34
  -8   2   8   23.63    2.35
   8  -2  -8   21.64    2.34
  -8   2   7   11.77    1.73
  -8   2   7   16.05    2.01
   8  -2  -7   15.95    2.01
  -8   2   7   15.34    1.19
   8  -2  -6   61.03    3.66
  -8   2   6   58.87    3.58
  -8   2   6   57.17    3.40
  -8   2   6   62.00    2.42
  -8   2   5    8.32    1.51
  -8   2   5    8.11    1.37
   8  -2  -5    7.14    1.52
  -8   2   5    6.19    0.81
   8  -2  -4   13.38    1.70
  -8   2   4   14.44    1.85
  -8   2   4   12.85    1.62
  -8   2   4   14.85    1.28
  -8   2   4   13.57    1.16
  -8   2   3    8.25    1.49
   8  -2  -3    9.96    1.70
  -8   2   3   11.23    1.06
  -8   2   3   10.12    1.03
   8  -2  -2   34.64    2.73
  -8   2   2   29.87    1.58
  -8   2   2   31.00    2.57
  -8   2   2   30.90    1.79
   8  -2  -1    1.83    1.04
  -8   2   1    0.57    0.92
  -8   2   1    1.16    0.47
  -8   2   1    0.97    0.55
   8  -2   0    5.85    1.36
  -8   2   0    5.91    1.30
   8  -2   0    6.70    1.44
  -8   2   0    4.74    0.92
  -8   2  -1   35.23    2.64
  -8   2  -1   30.91    2.02
   8  -2   1   31.85    2.62
   8  -2   1   30.38    2.06
  -8   2  -2   99.35    3.13
  -8   2  -2   96.59    4.51
  -8   2  -2  104.87    4.00
   8  -2   2  101.54    4.73
  -8   2  -3   32.77    1.66
  -8   2  -3   31.36    2.24
   8  -2   3   32.29    2.73
  -8   2  -4   34.88    1.83
  -8   2  -4   34.78    2.41
   8  -2   4   35.85    2.83
  -8   2  -5   55.34    2.44
  -8   2  -5   53.42    3.14
   8  -2   5   55.25    3.54
  -8   2  -6   36.21    2.03
  -8   2  -6   33.45    2.64
   8  -2   6   34.15    2.85
   8  -2   7    2.25    1.30
  -8   2  -7    1.31    0.99
  -8   2  -8   78.44    4.33
   8  -2   8   81.30    4.51
   8  -2   9    2.47    1.20
   8  -2  10   14.91    2.10
   8  -2  11    7.13    1.76
   8  -1 -13    2.12    1.24
   8  -1 -12   23.15    2.40
  -8   1  11   16.64    2.82
   8  -1 -11   11.21    1.84
  -8   1  10    0.58    0.95
   8  -1 -10    0.93    1.05
  -8   1   9   62.01    3.76
   8  -1  -9   57.71    3.62
  -8   1   9   57.59    2.76
  -8   1   8   16.35    2.01
   8  -1  -8   14.79    1.87
  -8   1   8   14.68    1.39
  -8   1   7    6.00    1.30
   8  -1  -7    3.88    1.16
  -8   1   7    5.25    0.91
  -8   1   6    8.91    1.45
  -8   1   6    9.70    1.63
  -8   1   6    7.28    1.00
   8  -1  -6   11.79    1.71
  -8   1   6   10.11    1.11
   8  -1  -5   -1.03    1.00
  -8   1   5   -0.18    0.88
  -8   1   5   -0.34    0.79
  -8   1   5    0.30    0.53
  -8   1   5    0.59    0.55
  -8   1   4   12.32    1.67
   8  -1  -4   14.84    1.82
  -8   1   4   14.82    1.63
  -8   1   4   15.13    1.18
  -8   1   4   14.07    1.27
  -8   1   3    3.79    1.14
   8  -1  -3    1.42    0.92
  -8   1   3    4.06    0.98
  -8   1   3    2.52    0.53
  -8   1   3    4.21    0.82
  -8   1   2   17.57    1.06
  -8   1   2   16.89    1.90
   8  -1  -2   14.77    1.80
  -8   1   2   17.16    1.42
   8  -1  -2   16.93    1.88
  -8   1   1   25.19    1.19
  -8   1   1   26.14    2.26
   8  -1  -1   22.56    2.21
  -8   1   1   22.80    1.64
   8  -1  -1   22.16    2.14
  -8   1   0   38.61    2.80
   8  -1   0   41.15    2.42
  -8   1   0   45.13    2.37
  -8   1   0   43.20    1.55
   8  -1   0   41.06    2.86
   8  -1   1    9.83    1.22
   8  -1   1    8.92    1.45
  -8   1  -1    9.97    1.21
   8  -1   1    8.45    1.10
  -8   1  -2   88.37    2.48
   8  -1   2   77.13    3.36
  -8   1  -2   86.14    3.59
   8  -1   2   85.63    4.20
  -8   1  -3  102.62    2.85
   8  -1   3   93.09    3.73
  -8   1  -3   98.18    4.01
   8  -1   3   99.31    4.60
   8  -1   4   -0.22    0.65
  -8   1  -4    0.48    0.41
   8  -1   4   -0.43    0.95
  -8   1  -4    1.36    0.82
  -8   1  -5  121.99    3.57
  -8   1  -5  112.77    4.70
   8  -1   5  120.43    5.24
  -8   1  -6    3.97    0.77
   8  -1   6    6.93    1.41
  -8   1  -6    3.57    1.09
  -8   1  -7   78.60    4.08
   8  -1   7   80.82    4.32
   8  -1   8    8.88    1.60
  -8   1  -8    8.38    1.47
   8  -1   9    6.19    1.57
  -8   1  -9    5.61    1.43
   8  -1  10    9.06    1.68
  -8   1 -10   12.24    2.03
   8  -1  11   14.86    2.06
   8  -1  12    1.86    1.07
   8   0 -12    5.22    1.38
  -8   0  11   94.77    4.95
   8   0 -11   94.89    4.64
  -8   0  10   30.71    2.78
   8   0 -10   26.73    2.49
  -8   0   9  128.51    5.48
   8   0  -9  121.22    5.23
  -8   0   8    5.81    1.31
   8   0  -8    6.18    1.29
  -8   0   8    5.78    1.03
  -8   0   7   59.11    3.42
   8   0  -7   61.24    3.53
  -8   0   7   61.06    2.86
  -8   0   6    6.95    1.29
  -8   0   6    7.66    1.00
   8   0  -6    7.42    1.39
  -8   0   6    7.71    1.18
   8   0  -5    2.22    1.10
  -8   0   5    0.51    0.74
  -8   0   5    0.21    0.47
  -8   0   5    1.01    0.59
  -8   0   4   13.31    1.04
   8   0  -4   12.53    1.68
  -8   0   4   13.31    1.52
  -8   0   4   15.53    1.44
   8   0  -3   -0.26    0.89
  -8   0   3    2.59    0.87
  -8   0   3    1.02    0.41
   8   0  -3    1.02    0.86
  -8   0   3    1.44    0.71
   8   0  -2   28.19    2.39
  -8   0   2   28.66    1.19
  -8   0   2   25.42    1.93
  -8   0   2   25.30    1.75
   8   0  -2   25.10    2.15
  -8   0   1   11.24    0.61
   8   0  -1    9.21    1.42
  -8   0   1   11.31    1.20
  -8   0   0   90.98    1.96
  -8   0   0   92.07    3.57
   8   0   0   90.85    4.16
   8   0   1    8.12    1.05
   8   0   1    5.95    1.29
  -8   0  -1    5.42    1.02
  -8   0  -2   36.26    0.98
   8   0   2   35.76    2.06
  -8   0  -2   38.74    2.36
   8   0   2   36.33    2.68
  -8   0  -2   37.25    0.99
  -8   0  -3   40.15    1.24
   8   0   3   39.25    2.15
  -8   0  -3   35.61    2.37
   8   0   3   37.13    2.76
   8   0   4   15.31    1.36
  -8   0  -4   16.78    0.89
   8   0   4   15.71    1.91
  -8   0  -4   15.28    1.65
  -8   0  -5  124.99    3.30
   8   0   5  119.51    4.09
  -8   0  -5  122.55    4.81
   8   0   5  122.92    5.23
   8   0   6    0.97    0.73
  -8   0  -6    0.20    0.45
   8   0   6    3.18    1.29
  -8   0  -6    1.71    0.87
  -8   0  -7  128.42    3.84
  -8   0  -7  125.19    5.21
   8   0   7  117.50    5.26
   8   0   8   10.19    1.77
  -8   0  -8   14.48    1.93
   8   0   9    0.54    0.97
  -8   0  -9    0.43    0.93
   8   0  10   19.77    2.32
  -8   0 -10   24.24    2.61
   8   0  11    2.81    1.17
  -8   0 -11    3.34    1.24
   8   0  12    2.73    1.76
   8   0  13    1.40    1.28
  -8  -1  13    1.25    1.02
   8   1 -12   13.76    1.83
  -8  -1  12   12.83    1.86
   8   1 -11   42.38    3.05
  -8  -1  11   45.88    3.12
  -8  -1  11   44.41    3.38
  -8  -1  10   13.62    1.86
   8   1 -10   13.43    1.73
  -8  -1   9   42.13    3.06
   8   1  -9   46.43    2.99
  -8  -1   8    6.79    1.37
   8   1  -8    4.61    1.15
  -8  -1   7   43.52    2.88
   8   1  -7   44.25    2.90
  -8  -1   7   39.51    2.43
   8   1  -6    7.23    1.34
  -8  -1   6    7.99    1.34
  -8  -1   6    6.40    0.96
  -8  -1   6    7.21    1.16
   8   1  -5    5.00    1.19
  -8  -1   5    5.27    1.07
  -8  -1   5    5.60    0.81
  -8  -1   5    4.11    0.88
   8   1  -4   -0.09    0.84
  -8  -1   4    1.28    0.84
  -8  -1   4    0.39    0.40
   8   1  -4    1.40    0.77
  -8  -1   4   -1.21    0.78
  -8  -1   3   25.41    1.19
   8   1  -3   22.36    2.03
  -8  -1   3   19.36    1.69
  -8  -1   3   26.24    1.83
   8   1  -3   22.56    1.97
  -8  -1   2   67.14    1.78
  -8  -1   2   65.20    2.99
  -8  -1   2   62.75    2.92
   8   1  -2   65.78    3.37
  -8  -1   1   12.99    1.32
   8   1  -1   11.85    1.56
  -8  -1   1   12.44    1.33
  -8  -1   0   97.11    3.75
   8   1   0   99.06    4.28
   8   1   1    1.73    0.93
  -8  -1  -1    1.19    0.78
  -8  -1  -2   83.91    3.57
   8   1   2   80.29    3.93
   8   1   3    6.67    0.87
   8   1   3    8.74    1.45
  -8  -1  -3    7.96    1.20
   8   1   4   51.78    2.30
  -8  -1  -4   52.25    2.93
   8   1   4   50.11    3.15
  -8  -1  -5   54.21    1.59
   8   1   5   50.83    2.31
  -8  -1  -5   53.01    3.02
   8   1   5   47.95    3.11
  -8  -1  -6  107.04    2.92
   8   1   6  106.87    3.55
  -8  -1  -6  104.99    4.54
   8   1   6  106.51    4.81
  -8  -1  -7   15.45    1.06
  -8  -1  -7   13.26    1.81
   8   1   7   14.10    1.83
  -8  -1  -8    3.20    0.65
  -8  -1  -8    3.32    1.16
   8   1   8    0.56    0.88
  -8  -1  -9   10.88    1.77
   8   1   9    9.18    1.62
  -8  -1 -10   -0.79    0.97
   8   1  10   -1.35    1.13
  -8  -1 -11    8.72    1.75
   8   1  11    9.04    1.71
   8   1  12    7.35    1.64
   8   1  13    0.79    1.10
  -8  -2  13   14.82    2.03
  -8  -2  12   11.14    1.92
   8   2 -11   33.03    2.51
  -8  -2  11   32.47    2.81
  -8  -2  11   31.16    2.92
   8   2 -10   12.11    1.58
  -8  -2  10   15.56    1.90
  -8  -2  10   16.00    2.05
   8   2  -9   28.67    2.34
  -8  -2   9   25.83    2.35
  -8  -2   9   30.76    2.60
  -8  -2   8    5.42    1.27
   8   2  -8    6.42    1.30
  -8  -2   7   13.01    1.67
   8   2  -7   11.76    1.57
  -8  -2   7   10.91    1.35
   8   2  -6    1.18    0.92
  -8  -2   6    1.99    0.87
  -8  -2   6    2.92    0.67
  -8  -2   6    1.49    0.77
  -8  -2   5   81.17    3.65
   8   2  -5   83.36    3.89
  -8  -2   5   83.30    2.91
   8   2  -5   81.64    3.60
  -8  -2   5   82.51    3.59
   8   2  -4   15.64    1.74
  -8  -2   4   17.28    1.67
   8   2  -4   15.67    1.58
  -8  -2   4   15.81    1.55
  -8  -2   3   98.43    3.75
   8   2  -3   91.83    3.94
  -8  -2   3   99.15    3.88
  -8  -2   2    7.48    1.03
   8   2  -2    6.39    1.23
  -8  -2   2    6.61    1.09
  -8  -2   1    6.11    0.95
   8   2  -1    5.35    1.17
  -8  -2   1    8.17    1.19
  -8  -2   0   35.48    2.22
   8   2   0   34.47    2.44
   8   2   1    0.69    0.84
  -8  -2  -1   -0.14    0.66
  -8  -2  -2   62.57    3.08
   8   2   2   59.51    3.27
  -8  -2  -3  151.90    5.19
   8   2   3  143.97    5.45
   8   2   4    4.47    0.67
  -8  -2  -4    3.32    0.98
   8   2   4    4.95    1.21
   8   2   5   98.47    3.08
  -8  -2  -5  102.41    4.34
   8   2   5  106.26    4.62
   8   2   6   45.67    1.94
  -8  -2  -6   43.22    2.83
   8   2   6   45.34    3.03
  -8  -2  -7   73.09    3.83
   8   2   7   74.53    3.97
  -8  -2  -7   80.18    2.42
  -8  -2  -8   -0.31    0.39
  -8  -2  -8    0.34    0.92
   8   2   8    0.00    0.99
  -8  -2  -9   -0.33    0.93
   8   2   9   -0.58    0.91
  -8  -2 -10   16.43    2.06
   8   2  10   19.42    2.20
  -8  -2 -11   36.70    3.11
   8   2  11   40.82    3.11
  -8  -2 -12    2.97    1.39
   8   2  12    3.31    1.25
   8   2  13    5.74    1.55
   8   2  14    3.58    1.17
  -8  -3  13   44.20    3.48
   8   3 -13   39.30    3.24
  -8  -3  12   38.77    3.14
   8   3 -12   38.96    3.10
  -8  -3  11   69.88    4.13
   8   3 -11   70.70    3.93
   8   3 -10    2.35    0.83
   8   3 -10    1.80    1.01
  -8  -3  10    0.99    1.00
   8   3  -9   36.36    2.52
  -8  -3   9   37.90    2.89
  -8  -3   9   36.89    2.85
   8   3  -9   27.31    2.23
   8   3  -8   -0.06    0.69
   8   3  -8    0.38    0.84
  -8  -3   8    0.41    0.95
  -8  -3   8    1.10    1.01
   8   3  -7    0.24    0.79
  -8  -3   7    0.16    0.77
  -8  -3   7    0.46    0.93
   8   3  -6    3.16    1.01
  -8  -3   6    2.21    0.86
   8   3  -6    3.00    0.94
  -8  -3   6    1.55    0.62
   8   3  -5    0.87    0.75
  -8  -3   5    0.02    0.70
   8   3  -5    1.18    0.66
  -8  -3   5    0.28    0.64
  -8  -3   5    2.15    0.86
   8   3  -4    0.79    0.77
  -8  -3   4   -0.31    0.69
   8   3  -4    0.03    0.74
  -8  -3   4    0.38    0.73
  -8  -3   3   52.26    2.56
   8   3  -3   45.08    2.64
  -8  -3   3   49.50    2.76
  -8  -3   2   23.72    1.68
  -8  -3   2   22.96    1.86
   8   3  -2   21.30    1.85
  -8  -3   1   10.72    1.08
   8   3  -1   10.54    1.39
  -8  -3   1   12.38    1.43
  -8  -3   0  115.39    3.65
  -8  -3   0  121.41    4.43
   8   3   0  110.68    4.48
   8   3   1   14.33    1.65
  -8  -3  -1   13.63    1.48
  -8  -3  -2   68.48    3.29
   8   3   2   71.16    3.55
  -8  -3  -3  138.00    4.95
   8   3   3  137.31    5.21
  -8  -3  -4    9.30    1.38
   8   3   4   10.45    1.56
  -8  -3  -5  240.05    7.26
   8   3   5  237.75    7.48
   8   3   6    1.27    0.43
  -8  -3  -6    0.93    0.79
   8   3   6    1.50    1.02
  -8  -3  -7  235.99    7.47
   8   3   7  232.78    7.58
  -8  -3  -8    2.66    1.01
   8   3   8    1.95    1.06
  -8  -3  -9   15.13    1.93
   8   3   9   15.04    1.92
  -8  -3 -10   -0.70    1.02
   8   3  10    0.57    0.91
  -8  -3 -11   12.51    2.00
   8   3  11   13.46    1.96
  -8  -3 -12    4.83    1.49
   8   3  12    5.52    1.47
   8   3  13    2.62    1.18
   8   3  14    8.64    1.69
   8   4 -13   -0.19    1.23
  -8  -4  12   41.29    3.37
   8   4 -12   39.92    3.14
  -8  -4  11   68.69    4.20
   8   4 -11   67.54    3.90
   8   4 -10   -0.43    0.88
  -8  -4  10    1.54    1.10
   8   4  -9   27.43    2.10
  -8  -4   9   26.16    2.54
   8   4  -9   25.79    2.22
   8   4  -8   18.53    1.75
   8   4  -8   15.45    1.65
  -8  -4   8   20.26    2.23
   8   4  -7    2.90    1.04
   8   4  -7    1.16    0.87
  -8  -4   7    0.89    0.94
   8   4  -6    5.03    0.94
   8   4  -6    5.34    1.05
  -8  -4   6    6.58    1.33
   8   4  -6    5.53    0.97
  -8  -4   6    6.25    1.05
   8   4  -5    1.34    0.83
  -8  -4   5    1.37    0.87
   8   4  -5    0.88    0.55
   8   4  -5    0.65    0.62
  -8  -4   5   -0.04    0.58
  -8  -4   4   16.29    1.52
   8   4  -4   16.14    1.56
  -8  -4   4   16.35    1.55
  -8  -4   4   12.42    1.59
  -8  -4   3    1.33    0.67
   8   4  -3    1.40    0.80
  -8  -4   3    1.84    0.89
  -8  -4   2   61.33    2.69
   8   4  -2   60.07    3.02
  -8  -4   2   66.23    3.27
  -8  -4   1   -0.14    0.50
   8   4  -1   -0.29    0.71
  -8  -4   1    1.14    0.88
  -8  -4   0   60.89    2.40
  -8  -4   0   63.41    3.19
   8   4   0   62.42    3.16
  -8  -4  -1   67.41    2.39
  -8  -4  -1   67.48    3.28
   8   4   1   67.01    3.37
  -8  -4  -2   56.10    3.00
   8   4   2   52.87    3.02
  -8  -4  -3   59.43    3.13
   8   4   3   59.73    3.24
  -8  -4  -4   51.94    2.97
   8   4   4   54.73    3.22
  -8  -4  -5  247.34    7.45
   8   4   5  247.67    7.61
  -8  -4  -6   17.38    1.82
   8   4   6   17.83    1.96
  -8  -4  -7   66.57    3.64
   8   4   7   69.55    3.80
  -8  -4  -8   71.55    3.87
   8   4   8   73.18    3.96
  -8  -4  -9    1.47    1.04
   8   4   9   -1.05    1.21
  -8  -4 -10    1.36    0.92
   8   4  10    0.37    0.93
  -8  -4 -11    2.07    1.04
   8   4  11    0.62    0.96
  -8  -4 -12   11.37    1.80
   8   4  12    9.45    1.73
   8   4  13   14.09    2.04
   8   4  14   10.53    1.74
   8   5 -12   65.47    4.04
   8   5 -11    1.04    0.98
  -8  -5  11    1.21    1.03
   8   5 -10   80.09    4.15
  -8  -5  10   76.69    4.48
   8   5  -9   45.13    2.95
  -8  -5   9   45.14    3.35
   8   5  -8    1.02    0.75
   8   5  -8    0.89    0.84
  -8  -5   8   -1.16    0.99
   8   5  -7    3.03    0.86
   8   5  -7    1.77    0.80
  -8  -5   7    4.69    1.30
   8   5  -6    6.01    1.03
   8   5  -6    3.80    0.88
  -8  -5   6    5.26    1.25
   8   5  -6    5.83    0.96
   8   5  -5   67.26    3.21
   8   5  -5   62.21    2.71
  -8  -5   5   66.69    3.75
  -8  -5   5   63.51    2.92
   8   5  -5   57.09    2.75
   8   5  -4    0.71    0.53
  -8  -5   4   -0.18    0.63
   8   5  -4    0.40    0.78
  -8  -5   3   64.84    2.93
   8   5  -3   64.69    3.07
   8   5  -3   66.01    2.35
  -8  -5   3   64.32    3.40
  -8  -5   3   67.15    3.13
  -8  -5   2    0.32    0.54
   8   5  -2    1.04    0.41
   8   5  -2    0.04    0.79
  -8  -5   2    2.61    1.00
  -8  -5   1   11.81    1.08
   8   5  -1   12.66    1.51
  -8  -5   1    8.35    1.35
  -8  -5   0  233.33    5.62
   8   5   0  223.65    6.77
  -8  -5   0  238.60    7.05
  -8  -5  -1   16.94    1.07
  -8  -5  -1   19.94    1.91
   8   5   1   17.74    1.75
  -8  -5  -2  450.14   11.07
   8   5   2  451.58   11.11
  -8  -5  -3    0.34    0.75
   8   5   3    0.93    0.91
  -8  -5  -4  333.55    9.09
   8   5   4  342.61    9.27
  -8  -5  -5   35.19    2.53
   8   5   5   39.94    2.76
  -8  -5  -6   62.27    3.43
   8   5   6   59.98    3.43
  -8  -5  -7   56.36    3.32
   8   5   7   60.02    3.49
  -8  -5  -8   38.27    2.82
   8   5   8   41.25    2.93
   8   5   9    1.45    0.91
  -8  -5  -9    0.87    0.95
   8   5  10    5.41    1.27
  -8  -5 -10    7.13    1.52
  -8  -5 -11   19.33    2.31
   8   5  11   13.74    1.94
  -8  -5 -12    3.28    1.33
   8   5  12    4.95    1.38
  -8  -5 -13   23.44    2.64
   8   5  13   24.84    2.54
   8   5  14   35.88    3.08
   8   6 -12   24.84    2.58
   8   6 -11    4.88    1.36
   8   6 -10   17.26    2.02
  -8  -6  10   16.80    2.29
   8   6  -9   64.43    3.62
  -8  -6   9   70.09    4.27
   8   6  -8    2.12    0.94
  -8  -6   8    2.51    1.35
   8   6  -7    1.53    0.81
   8   6  -7    4.07    1.03
  -8  -6   7    0.53    1.06
   8   6  -6    8.77    1.30
   8   6  -6    8.40    1.18
  -8  -6   6    9.78    1.54
   8   6  -6    8.65    1.02
   8   6  -5   64.26    3.10
   8   6  -5   61.34    2.82
  -8  -6   5   63.54    3.72
   8   6  -5   64.05    2.84
  -8  -6   5   65.07    2.89
   8   6  -4    3.75    0.88
  -8  -6   4    3.50    1.13
  -8  -6   4    4.32    0.88
   8   6  -4    4.15    0.93
   8   6  -3   70.06    2.58
  -8  -6   3   66.12    3.10
   8   6  -3   66.69    3.10
  -8  -6   3   65.44    3.56
   8   6  -2   23.81    1.29
   8   6  -2   23.39    1.89
  -8  -6   2   23.52    2.06
  -8  -6   1    7.74    0.93
   8   6  -1    8.94    0.69
   8   6  -1    8.31    1.23
  -8  -6   1    9.57    1.60
  -8  -6   0  131.75    3.74
   8   6   0  130.86    4.80
   8   6   0  130.48    2.67
  -8  -6   0  129.96    5.00
  -8  -6  -1  346.85    7.20
   8   6   1  338.78    9.01
  -8  -6  -1  340.11    9.24
  -8  -6  -2  260.47    7.59
   8   6   2  246.43    7.38
  -8  -6  -3  166.49    5.79
   8   6   3  162.92    5.72
  -8  -6  -4  211.03    6.79
   8   6   4  214.81    6.84
   8   6   5    3.15    1.09
  -8  -6  -5    2.25    0.88
   8   6   6    8.53    1.48
  -8  -6  -6    6.77    1.31
  -8  -6  -7   71.33    3.80
   8   6   7   75.10    3.90
  -8  -6  -8   34.43    2.69
   8   6   8   37.03    2.78
   8   6   9   23.48    2.30
  -8  -6  -9   19.02    2.13
   8   6  10   11.52    1.76
  -8  -6 -10   11.82    1.88
  -8  -6 -11   55.16    3.68
   8   6  11   52.72    3.54
   8   6  12    3.74    1.33
  -8  -6 -12    2.23    1.09
  -8  -6 -13  100.81    5.26
   8   6  13   98.50    5.07
   8   6  14   11.18    1.89
   8   7 -11   24.88    2.59
   8   7 -10    3.57    1.34
   8   7  -9   45.60    3.11
  -8  -7   9   41.18    3.36
   8   7  -8   16.36    1.86
  -8  -7   8   16.28    2.20
   8   7  -7   76.66    3.68
  -8  -7   7   84.56    4.61
   8   7  -6   10.46    1.36
   8   7  -6    9.02    1.16
  -8  -7   6    9.74    1.63
   8   7  -5   44.46    2.48
   8   7  -5   43.48    2.48
  -8  -7   5   42.16    3.14
   8   7  -5   43.06    2.27
   8   7  -4   52.00    2.52
  -8  -7   4   47.48    3.26
   8   7  -4   55.22    2.68
   8   7  -3   47.06    2.21
  -8  -7   3   49.52    3.25
   8   7  -3   47.26    2.57
   8   7  -2   56.63    2.26
   8   7  -2   53.24    2.83
  -8  -7   2   54.52    3.24
   8   7  -1   23.82    1.31
   8   7  -1   20.29    1.76
  -8  -7   1   25.59    2.21
  -8  -7   0  231.13    5.60
   8   7   0  231.01    4.98
   8   7   0  226.86    6.80
  -8  -7   0  225.69    7.22
  -8  -7  -1  113.17    3.15
   8   7   1  117.40    2.65
   8   7   1  112.59    4.48
  -8  -7  -1  116.39    4.78
  -8  -7  -2  184.03    3.93
  -8  -7  -2  177.73    6.16
   8   7   2  176.11    5.97
  -8  -7  -3  110.73    4.66
   8   7   3  115.76    4.65
  -8  -7  -4   84.59    4.07
   8   7   4   89.19    4.11
  -8  -7  -5   44.77    2.89
   8   7   5   39.70    2.75
   8   7   6    4.79    0.42
   8   7   6    6.21    1.41
  -8  -7  -6    5.31    1.22
   8   7   7   31.87    1.29
  -8  -7  -7   33.73    2.62
   8   7   7   35.61    2.69
   8   7   8    4.91    1.33
  -8  -7  -8    5.49    1.27
   8   7   9   13.71    1.93
  -8  -7  -9   13.07    1.85
   8   7  10   11.25    1.75
  -8  -7 -10   12.70    1.88
   8   7  11    8.75    1.59
  -8  -7 -11    7.90    1.53
   8   7  12   33.87    2.96
  -8  -7 -12   30.69    2.83
  -8  -7 -13   75.44    4.53
   8   7  13   75.15    4.43
   8   7  14   59.10    3.97
   8   8 -10    9.31    1.63
   8   8  -9   11.20    1.81
   8   8  -8    2.32    1.14
  -8  -8   8    0.32    0.99
   8   8  -7    1.27    0.91
  -8  -8   7    3.85    1.42
   8   8  -6    6.21    1.05
  -8  -8   6    9.51    1.77
   8   8  -5   45.90    2.42
   8   8  -5   42.74    2.56
  -8  -8   5   38.64    3.04
   8   8  -5   44.01    2.26
   8   8  -4   10.29    1.28
  -8  -8   4   11.41    1.81
   8   8  -4   12.83    1.29
   8   8  -3   99.38    3.59
  -8  -8   3  100.68    4.83
   8   8  -3   92.49    3.75
   8   8  -2   75.45    2.88
  -8  -8   2   80.38    4.78
   8   8  -2   77.67    3.45
  -8  -8   2   75.23    3.97
   8   8  -1   35.66    1.77
   8   8  -1   31.32    2.23
  -8  -8   1   32.47    2.59
   8   8   0  181.03    4.50
   8   8   0  162.36    5.62
  -8  -8   0  183.26    6.41
   8   8   1    7.34    0.71
   8   8   1    7.90    1.32
  -8  -8  -1    8.53    1.36
  -8  -8  -2  371.19    7.26
   8   8   2  375.88    7.40
  -8  -8  -2  371.07   10.07
   8   8   2  358.43    9.65
   8   8   3    7.98    0.63
   8   8   3    6.09    1.25
  -8  -8  -3   10.26    1.55
   8   8   4  268.06    5.34
  -8  -8  -4  251.07    7.92
   8   8   4  255.87    7.85
   8   8   5   38.26    1.35
  -8  -8  -5   37.64    2.77
   8   8   5   41.30    2.83
   8   8   6   86.81    2.40
  -8  -8  -6   82.03    4.11
   8   8   6   77.50    4.05
   8   8   7   11.60    1.60
  -8  -8  -7   16.50    1.98
   8   8   8   13.37    1.85
  -8  -8  -8   11.97    1.77
   8   8   9   12.73    1.80
  -8  -8  -9   13.05    1.82
   8   8  10   22.66    2.39
  -8  -8 -10   22.85    2.40
   8   8  11    2.73    1.05
  -8  -8 -11    4.87    1.41
  -8  -8 -12   35.63    3.08
   8   8  12   38.09    3.16
  -8  -8 -13   73.29    4.46
   8   8  13   74.85    4.45
   8   8  14   52.36    3.80
   8   9 -10   -0.19    1.25
   8   9  -9    9.25    1.70
   8   9  -8    1.10    1.14
   8   9  -7    0.88    1.07
  -8  -9   7    0.08    1.07
   8   9  -6    1.15    0.85
  -8  -9   6    1.19    0.96
   8   9  -5   80.42    3.72
  -8  -9   5   82.18    4.57
   8   9  -4    9.62    1.27
  -8  -9   4    9.99    1.75
   8   9  -4    7.01    1.03
   8   9  -3   71.64    3.16
  -8  -9   3   73.26    4.19
   8   9  -3   71.08    3.21
   8   9  -2  107.93    3.83
  -8  -9   2  113.10    5.21
   8   9  -2  107.89    4.21
   8   9  -1  149.43    4.47
   8   9  -1  148.87    5.20
  -8  -9   1  149.22    5.93
   8   9   0   16.78    1.31
   8   9   0   16.34    1.71
  -8  -9   0   17.47    2.00
   8   9   1   21.57    1.35
   8   9   1   21.59    1.96
  -8  -9  -1   22.45    2.18
   8   9   2  225.47    5.40
  -8  -9  -2  226.22    7.42
   8   9   2  226.17    7.06
  -8  -9  -3   43.86    3.01
   8   9   3   40.46    2.75
   8   9   4   26.94    2.29
  -8  -9  -4   25.57    2.26
  -8  -9  -5   89.45    4.35
   8   9   5   91.25    2.73
   8   9   5   83.74    4.20
  -8  -9  -6   44.25    3.04
   8   9   6   49.30    3.20
   8   9   7   19.63    2.13
  -8  -9  -7   16.64    1.97
   8   9   8   10.20    1.68
  -8  -9  -8   11.21    1.76
   8   9   9   22.53    2.30
  -8  -9  -9   20.26    2.23
   8   9  10    1.04    0.95
  -8  -9 -10   -1.05    1.04
   8   9  11   19.48    2.21
  -8  -9 -11   16.37    2.11
   8   9  12   21.34    2.40
  -8  -9 -12   23.30    2.58
  -8  -9 -13   80.65    4.70
   8   9  13   80.77    4.72
   8  10  -9    0.00    1.27
   8  10  -8    5.12    1.42
   8  10  -7   -0.37    0.95
   8  10  -6    8.70    1.51
  -8 -10   6   14.24    2.16
   8  10  -5   15.40    1.79
  -8 -10   5   18.94    2.37
   8  10  -4    5.20    1.14
  -8 -10   4    7.24    1.56
   8  10  -3  105.73    4.15
  -8 -10   3  104.24    5.17
   8  10  -3   99.71    3.97
   8  10  -2   27.34    1.96
  -8 -10   2   29.35    2.66
   8  10  -2   25.42    2.00
   8  10  -1  285.63    7.34
  -8 -10   1  282.97    9.01
   8  10  -1  276.74    7.89
  -8 -10   1  291.38    9.07
   8  10   0   14.56    1.32
   8  10   0   15.29    1.68
  -8 -10   0   12.75    1.82
   8  10   1   23.34    1.54
   8  10   1   20.84    2.00
  -8 -10  -1   20.37    2.17
   8  10   2   19.46    1.92
  -8 -10  -2   20.12    2.17
  -8 -10  -3   59.09    3.58
   8  10   3   58.37    3.38
  -8 -10  -4   55.32    3.43
   8  10   4   51.96    3.23
   8  10   5   20.71    2.12
  -8 -10  -5   22.25    2.18
  -8 -10  -6   29.80    2.57
   8  10   6   30.05    2.60
  -8 -10  -7   31.14    2.65
   8  10   7   24.68    2.41
   8  10   8   11.20    1.77
  -8 -10  -8    7.78    1.45
   8  10   9    5.32    1.55
  -8 -10  -9    2.87    1.16
  -8 -10 -10   61.68    3.84
   8  10  10   64.63    4.01
   8  10  11    6.35    1.60
  -8 -10 -11    7.60    1.68
  -8 -10 -12   49.02    3.55
   8  10  12   42.63    3.35
  -8 -10 -13   64.58    4.21
   8  10  13   57.30    4.00
   8  11  -8   21.17    2.42
   8  11  -7   13.52    1.80
   8  11  -6   62.91    3.74
   8  11  -5    0.32    0.97
   8  11  -4   71.61    3.69
  -8 -11   4   75.04    4.53
   8  11  -3   18.13    1.76
  -8 -11   3   25.78    2.60
   8  11  -3   23.85    1.89
   8  11  -2   32.71    2.22
  -8 -11   2   29.56    2.81
   8  11  -2   30.76    2.24
   8  11  -1   49.40    2.69
  -8 -11   1   54.65    3.62
  -8 -11   1   56.27    3.71
   8  11  -1   50.48    2.97
   8  11   0   85.15    3.52
  -8 -11   0   82.06    4.47
  -8 -11   0   90.07    4.66
   8  11   0   79.02    3.85
  -8 -11  -1   78.92    4.30
   8  11   1   75.60    3.83
  -8 -11  -2   31.15    2.68
   8  11   2   30.94    2.48
   8  11   3   -0.03    0.94
  -8 -11  -3    2.01    1.06
  -8 -11  -4   73.17    4.03
   8  11   4   67.00    3.77
   8  11   5   18.03    2.09
  -8 -11  -5   20.53    2.27
   8  11   6   23.40    2.37
  -8 -11  -6   18.44    2.07
   8  11   7    2.57    1.23
  -8 -11  -7    2.07    1.06
   8  11   8    8.85    1.75
  -8 -11  -8    9.27    1.76
   8  11   9    4.09    1.37
  -8 -11  -9    5.20    1.32
  -8 -11 -10   79.46    4.39
   8  11  10   67.64    4.21
   8  11  11    7.13    1.60
  -8 -11 -11    7.10    1.55
  -8 -11 -12   35.47    3.06
   8  11  12   31.67    2.99
   8  12  -6    6.18    1.58
   8  12  -5    5.85    1.51
   8  12  -4   40.92    2.92
   8  12  -3   17.74    1.88
  -8 -12   3   18.83    2.48
   8  12  -2   45.63    3.01
  -8 -12   2   49.50    3.65
   8  12  -2   48.34    2.92
   8  12  -1   54.89    3.01
  -8 -12   1   55.51    3.75
   8  12  -1   45.50    2.89
   8  12   0   52.51    2.87
  -8 -12   0   53.77    3.73
  -8 -12   0   58.58    3.83
   8  12   0   46.19    2.98
   8  12   1   32.32    2.58
  -8 -12  -1   28.21    2.70
  -8 -12  -2   56.57    3.70
   8  12   2   53.36    3.32
   8  12   3    6.68    1.42
  -8 -12  -3    6.60    1.54
  -8 -12  -4   97.00    4.86
   8  12   4   92.14    4.57
   8  12   5    0.20    1.13
  -8 -12  -5    1.39    1.19
  -8 -12  -6  140.92    5.98
   8  12   6  140.00    5.96
   8  12   7    1.66    1.16
  -8 -12  -7    0.07    1.20
   8  12   8    1.18    1.17
  -8 -12  -8    2.13    1.22
   8  12   9    4.80    1.47
  -8 -12  -9    3.53    1.29
   8  12  10   22.24    2.53
  -8 -12 -10   29.95    2.76
   8  12  11   34.87    3.11
  -8 -12 -11   31.91    3.27
  -8 -12 -12   26.07    2.60
   8  13  -5   22.22    2.43
   8  13  -4   17.16    2.06
   8  13  -3   27.58    2.44
   8  13  -2   13.97    1.83
  -8 -13   2   17.28    2.36
   8  13  -1  127.48    5.13
  -8 -13   1  132.09    6.14
   8  13  -1  128.56    5.14
   8  13   0   26.38    2.21
  -8 -13   0   34.65    3.05
   8  13   0   29.66    2.48
  -8 -13   0   31.37    2.88
  -8 -13  -1   52.37    3.71
   8  13   1   53.70    3.37
   8  13   2   10.56    1.69
  -8 -13  -2   15.52    2.16
   8  13   3   25.98    2.43
  -8 -13  -3   22.79    2.43
  -8 -13  -4   61.51    3.91
   8  13   4   52.80    3.54
  -8 -13  -5   30.69    2.87
   8  13   5   32.66    2.81
   8  13   6   24.21    2.50
  -8 -13  -6   23.23    2.41
   8  13   7    2.86    1.12
  -8 -13  -7    3.62    1.36
   8  13   8    5.68    1.47
  -8 -13  -8    5.60    1.47
   8  13   9    0.50    0.92
  -8 -13  -9    1.33    1.07
  -8 -13 -10   29.98    2.86
   8  13  10   36.13    3.14
  -8 -13 -11   47.60    3.55
   8  14  -3   46.36    3.32
   8  14  -2    1.05    1.01
   8  14  -1   63.17    3.69
   8  14   0   22.81    2.25
  -8 -14   0   26.44    2.77
   8  14   0   21.63    2.26
  -8 -14  -1  136.00    6.25
   8  14   1  118.32    5.31
  -8 -14  -2   47.59    3.63
   8  14   2   46.25    3.28
   8  14   3   32.07    2.83
  -8 -14  -3   30.38    2.84
  -8 -14  -4   71.27    4.36
   8  14   4   71.00    4.19
   8  14   5   13.83    2.01
  -8 -14  -5   11.42    1.88
   8  14   6    9.09    1.72
  -8 -14  -6   11.38    1.93
   8  14   7    3.49    1.27
  -8 -14  -7    4.74    2.13
  -8 -14  -8   38.20    3.17
   8  14   8   44.55    3.48
  -8 -14  -9   -0.42    0.94
  -8 -14 -10   56.45    3.85
   8  15   0   57.70    3.69
   8  15   1   55.58    3.62
   8  15   2   50.36    3.54
   8  15   3   21.13    2.34
   8  15   4   34.14    3.01
   8  15   5    3.24    1.24
  -8 -15  -5    3.89    1.50
  -8 -15  -6   15.69    2.18
   8  15   6   10.96    1.90
  -8 -15  -7   10.87    1.90
  -8 -15  -8   17.90    2.30
   8  16   2   17.24    2.16
   8  16   3   29.68    2.84
   8  16   4   71.91    4.45
   9  -7   1    1.63    1.14
   9  -7   2    7.40    1.65
   9  -6   3   -1.20    0.94
   9  -5  -5   13.73    2.20
  -9   5   5   14.26    2.19
   9  -5  -4    6.18    1.74
  -9   5   4    6.05    1.49
   9  -5  -3    7.92    1.75
  -9   5   3    7.22    1.59
   9  -5  -2   21.84    2.56
  -9   5   2   24.88    2.72
   9  -5  -1    0.53    0.95
  -9   5   1    1.10    1.03
   9  -5   0   12.62    2.06
  -9   5   0   13.69    2.00
  -9   5  -1   -0.32    0.94
   9  -5   1    0.94    1.10
   9  -5   2   12.83    2.03
  -9   5  -2   12.75    2.18
  -9   5  -3    1.05    1.05
   9  -5   3    2.98    1.39
   9  -5   4   10.32    1.77
  -9   5  -4   11.44    2.03
   9  -5   5    6.64    1.76
   9  -4  -8    3.32    1.42
  -9   4   8    3.68    1.29
  -9   4   8    0.85    1.04
   9  -4  -7   15.74    2.26
  -9   4   7   11.90    2.02
   9  -4  -6    1.04    1.03
  -9   4   6    1.57    1.23
   9  -4  -5   43.86    3.58
  -9   4   5   47.45    3.53
   9  -4  -4    6.21    1.53
  -9   4   4    5.80    1.46
   9  -4  -3   42.98    3.34
  -9   4   3   38.45    3.20
   9  -4  -2   -0.51    1.16
  -9   4   2   -1.08    1.15
  -9   4   1    6.59    1.47
   9  -4  -1    9.30    1.75
  -9   4   0    1.06    1.16
   9  -4   0    1.41    1.10
   9  -4   1    2.24    1.18
  -9   4  -1    1.74    1.14
  -9   4  -2    6.60    1.68
   9  -4   2    9.38    1.76
   9  -4   3   19.58    2.37
  -9   4  -3   15.16    2.13
   9  -4   4    7.90    1.73
   9  -4   5   22.35    2.48
   9  -4   6    0.48    1.01
   9  -4   7    1.51    1.07
  -9   3  10    0.68    1.07
   9  -3  -9    8.32    1.73
  -9   3   9    6.08    1.48
  -9   3   9    8.69    1.74
   9  -3  -8    0.77    2.18
  -9   3   8    0.60    1.18
  -9   3   8   -0.77    1.02
   9  -3  -7    8.52    1.68
  -9   3   7    7.32    1.59
  -9   3   7   11.24    1.82
   9  -3  -6    5.47    1.37
  -9   3   6    4.87    1.36
  -9   3   6    6.13    1.39
   9  -3  -5   35.53    3.07
  -9   3   5   37.57    3.11
   9  -3  -4    2.88    1.29
  -9   3   4    1.70    1.29
   9  -3  -3   63.71    3.98
  -9   3   3   60.18    3.94
   9  -3  -2    1.25    1.14
  -9   3   2    0.87    0.94
   9  -3  -1   27.06    2.64
  -9   3   1   25.51    2.63
  -9   3   1   23.77    1.71
  -9   3   0    1.11    1.06
   9  -3   0    1.93    1.21
  -9   3   0   -0.15    0.61
   9  -3   1    5.05    1.48
  -9   3  -1    3.11    1.24
  -9   3  -1    3.00    0.93
  -9   3  -2    4.44    1.31
   9  -3   2    5.43    1.46
  -9   3  -2    7.07    1.26
   9  -3   3   19.26    2.39
  -9   3  -3   20.73    1.90
   9  -3   4    1.18    1.09
  -9   3  -4    1.17    0.76
   9  -3   5    0.92    1.14
  -9   3  -5    0.45    0.94
   9  -2 -11    7.44    1.67
   9  -2 -10    1.57    1.26
  -9   2  10   -0.07    1.15
   9  -2  -9    0.05    0.95
  -9   2   9   -1.02    1.25
   9  -2  -8   12.40    2.24
  -9   2   8    7.45    1.56
   9  -2  -7   -0.11    1.03
  -9   2   7   -0.80    1.06
  -9   2   7   -0.11    0.98
   9  -2  -6   23.25    2.46
  -9   2   6   28.97    2.74
  -9   2   6   20.24    2.24
   9  -2  -5   19.82    2.22
  -9   2   5   18.90    2.31
  -9   2   5   15.80    1.95
   9  -2  -4    4.45    1.31
  -9   2   4    1.57    1.07
  -9   2   3   29.20    2.72
   9  -2  -3   29.39    2.73
  -9   2   3   32.43    1.88
  -9   2   2    1.34    1.11
   9  -2  -2    0.16    1.06
  -9   2   2    0.08    0.56
   9  -2  -1   40.39    3.11
  -9   2   1   35.21    2.98
  -9   2   1   35.91    2.13
  -9   2   0   -1.27    1.11
   9  -2   0    0.31    0.97
  -9   2   0   -0.13    0.61
   9  -2   1    0.09    0.97
   9  -2   1    0.66    0.99
  -9   2  -1    0.33    0.68
   9  -2   2    2.25    1.19
   9  -2   2    2.49    1.21
  -9   2  -2    2.62    0.94
   9  -2   3   13.84    2.04
  -9   2  -3    9.45    1.43
   9  -2   4    8.14    1.65
  -9   2  -4    5.18    1.16
   9  -2   5   10.45    1.83
  -9   2  -5    9.34    1.41
   9  -2   6    3.28    1.27
  -9   2  -6    1.70    0.91
   9  -2   7   16.70    2.22
  -9   2  -7   17.21    2.06
   9  -1 -12   -0.46    1.13
   9  -1 -11    3.13    1.26
   9  -1 -10    0.54    1.13
  -9   1  10    1.97    1.24
   9  -1  -9    3.05    1.31
  -9   1   9    3.84    1.27
   9  -1  -8    4.23    1.29
  -9   1   8    2.42    1.21
   9  -1  -7   14.95    2.00
  -9   1   7   13.89    1.98
   9  -1  -6   50.14    3.46
  -9   1   6   51.60    3.32
  -9   1   6   53.23    2.55
  -9   1   5    1.60    1.02
   9  -1  -5    0.54    0.96
  -9   1   5   -0.38    0.58
   9  -1  -4   32.23    2.76
  -9   1   4   36.11    2.06
  -9   1   4   29.36    2.42
   9  -1  -3   39.29    3.03
  -9   1   3   37.62    2.14
   9  -1  -2   11.80    1.81
  -9   1   2   13.69    1.38
   9  -1  -1   10.45    1.75
   9  -1  -1    9.13    1.65
  -9   1   1   13.76    1.42
   9  -1   0    2.50    1.27
   9  -1   0    0.34    1.02
  -9   1   0    0.48    0.60
   9  -1   1   15.24    2.00
  -9   1  -1   15.73    1.57
  -9   1  -2   24.99    2.02
   9  -1   2   26.90    2.56
  -9   1  -3   47.28    2.89
   9  -1   3   49.15    3.42
   9  -1   4    0.69    1.02
  -9   1  -4    0.29    0.77
   9  -1   5    0.72    1.02
  -9   1  -5    3.48    1.09
   9  -1   6    4.06    1.42
  -9   1  -6    1.75    1.02
  -9   1  -7   33.16    2.82
   9  -1   7   33.27    2.99
  -9   1  -8   52.23    3.60
   9  -1   8   51.26    3.65
   9  -1   9    3.27    1.29
  -9   1  -9    2.22    1.03
   9   0 -12   29.93    2.80
   9   0 -11   18.00    2.20
  -9   0  10    0.35    0.92
   9   0 -10   -0.45    0.98
  -9   0   9   10.04    1.76
   9   0  -9   10.03    1.79
  -9   0   8    9.45    1.60
   9   0  -8    9.98    1.69
  -9   0   7   35.66    2.84
   9   0  -7   36.61    2.92
  -9   0   7   37.06    2.28
   9   0  -6   28.59    2.63
  -9   0   6   31.24    2.60
  -9   0   6   26.09    1.89
   9   0  -5    6.86    1.54
  -9   0   5    5.73    1.25
  -9   0   5    6.02    1.05
   9   0  -4    2.03    1.13
  -9   0   4    1.90    0.92
  -9   0   4    2.42    0.85
   9   0  -3   30.32    2.65
  -9   0   3   30.67    2.31
  -9   0   3   34.19    2.15
   9   0  -3   29.49    2.52
   9   0  -2    1.76    1.18
   9   0  -2   -0.11    0.87
  -9   0   2    1.22    0.68
  -9   0   1   85.83    3.57
   9   0  -1   76.73    4.14
   9   0   0    1.70    1.06
  -9   0   0    3.89    0.97
   9   0   1    3.10    1.33
  -9   0  -1    1.45    0.71
   9   0   2   39.16    2.40
  -9   0  -2   40.10    2.55
   9   0   2   36.99    2.89
  -9   0  -3   68.75    3.46
   9   0   3   66.21    3.94
   9   0   4    1.34    1.08
  -9   0  -4    1.59    0.84
  -9   0  -5   64.93    3.60
   9   0   5   65.24    3.98
   9   0   6    2.24    1.19
  -9   0  -6    1.88    1.10
  -9   0  -7   43.35    3.13
   9   0   7   42.44    3.30
   9   0   8   22.10    2.48
  -9   0  -8   19.84    2.29
   9   0   9   17.22    2.22
  -9   0  -9   18.53    2.28
   9   0  10    7.60    1.71
  -9   0 -10   10.16    1.91
   9   1 -11    2.28    1.17
  -9  -1  10   22.91    2.43
   9   1 -10   21.87    2.31
  -9  -1   9    0.05    1.03
   9   1  -9    3.27    1.24
  -9  -1   9    2.79    0.91
  -9  -1   8   44.98    3.20
   9   1  -8   47.13    3.26
  -9  -1   8   48.42    2.85
  -9  -1   7    0.05    0.96
   9   1  -7    0.63    0.95
  -9  -1   7    1.20    0.86
  -9  -1   6   64.54    3.58
   9   1  -6   63.09    3.70
  -9  -1   6   61.22    3.13
  -9  -1   5   67.53    3.57
   9   1  -5   68.44    3.87
  -9  -1   5   75.07    3.40
   9   1  -4    8.39    1.49
  -9  -1   4    5.44    1.09
   9   1  -4    6.07    1.28
  -9  -1   4    6.53    1.09
   9   1  -3   71.54    3.93
  -9  -1   3   70.11    3.43
  -9  -1   3   69.00    3.25
   9   1  -3   70.42    3.72
  -9  -1   2    1.42    0.77
   9   1  -2    1.19    0.92
  -9  -1   2    2.02    0.87
  -9  -1   1   77.00    3.46
   9   1  -1   75.55    3.99
   9   1   0   10.22    1.59
  -9  -1   0    8.81    1.26
   9   1   1    1.58    1.12
  -9  -1  -1    0.13    0.69
   9   1   2   19.95    2.14
  -9  -1  -2   14.24    1.63
  -9  -1  -3   27.89    2.25
   9   1   3   31.01    2.62
   9   1   4    2.53    1.15
  -9  -1  -4    3.96    1.09
  -9  -1  -5   39.77    2.81
   9   1   5   40.24    3.06
  -9  -1  -6   51.58    3.27
   9   1   6   55.51    3.64
   9   1   7   11.64    1.87
  -9  -1  -7   14.00    1.85
  -9  -1  -8   33.63    2.90
   9   1   8   33.31    2.89
   9   1   9   22.92    2.51
  -9  -1  -9   24.21    2.45
  -9  -1 -10   50.53    3.75
   9   1  10   50.96    3.71
   9   1  11   26.50    2.77
  -9  -2  10    3.38    1.21
   9   2 -10    0.91    1.01
  -9  -2   9    1.39    1.03
   9   2  -9    1.50    0.99
  -9  -2   8  117.37    5.22
   9   2  -8  110.52    5.00
  -9  -2   8  123.65    4.87
  -9  -2   7   -0.14    0.93
   9   2  -7    0.73    0.94
  -9  -2   7   -0.01    0.81
  -9  -2   6  142.77    5.53
   9   2  -6  145.56    5.76
  -9  -2   6  156.88    5.45
  -9  -2   5   33.30    2.47
   9   2  -5   33.33    2.65
  -9  -2   5   37.23    2.46
   9   2  -5   32.98    2.45
  -9  -2   4   90.56    3.96
   9   2  -4   96.69    4.49
   9   2  -4   86.96    4.09
  -9  -2   4   94.96    4.00
   9   2  -3    9.01    1.52
  -9  -2   3    9.00    1.28
   9   2  -3    6.80    1.31
  -9  -2   3    5.65    1.09
  -9  -2   2   15.68    1.53
   9   2  -2   15.97    1.80
  -9  -2   2   17.91    1.74
  -9  -2   1   39.02    2.49
   9   2  -1   39.32    2.80
   9   2   0    0.38    0.96
  -9  -2   0   -0.02    0.76
  -9  -2  -1   49.02    2.86
   9   2   1   53.67    3.31
   9   2   2   19.53    2.16
  -9  -2  -2   20.63    1.88
   9   2   3   10.67    1.62
  -9  -2  -3    9.65    1.43
   9   2   4   10.04    1.69
  -9  -2  -4    9.23    1.45
  -9  -2  -5   73.10    3.82
   9   2   5   74.03    4.09
  -9  -2  -6   41.26    2.93
   9   2   6   44.96    3.22
  -9  -2  -7    1.26    0.98
   9   2   7    1.44    1.10
  -9  -2  -8   64.96    3.94
   9   2   8   63.32    3.96
  -9  -2  -9    1.14    1.15
   9   2   9   -0.02    1.01
  -9  -2 -10   91.91    4.94
   9   2  10   83.48    4.71
   9   2  11   26.80    2.73
  -9  -3  12    3.30    1.33
  -9  -3  11   20.36    2.42
  -9  -3  10    0.61    0.92
  -9  -3   9   23.02    2.39
   9   3  -9   19.76    2.05
  -9  -3   8   31.73    2.65
   9   3  -8   30.28    2.49
  -9  -3   7   32.94    2.64
   9   3  -7   35.29    2.64
  -9  -3   7   33.84    2.56
  -9  -3   6   74.09    3.75
   9   3  -6   75.55    3.86
  -9  -3   6   74.55    3.72
  -9  -3   5   42.96    2.69
   9   3  -5   50.54    3.15
   9   3  -5   45.94    2.77
  -9  -3   5   45.45    2.84
  -9  -3   4   60.20    3.07
   9   3  -4   56.32    3.32
   9   3  -4   53.73    3.08
  -9  -3   4   53.79    3.11
  -9  -3   3   24.76    1.89
  -9  -3   3   21.54    1.97
   9   3  -3   22.50    2.03
  -9  -3   2    4.70    0.95
   9   3  -2    5.11    1.20
  -9  -3   2    3.76    1.04
  -9  -3   1    3.78    0.83
   9   3  -1    3.21    1.14
  -9  -3   1    4.90    1.06
   9   3   0    4.72    1.16
  -9  -3   0    3.78    0.99
   9   3   1   18.50    1.98
  -9  -3  -1   18.39    1.83
   9   3   2    1.90    1.04
  -9  -3  -2    1.77    0.91
   9   3   3    0.42    0.86
  -9  -3  -3    2.06    0.88
  -9  -3  -4   22.74    2.14
   9   3   4   24.00    2.32
  -9  -3  -5   82.87    4.07
   9   3   5   83.03    4.32
  -9  -3  -6   50.53    3.25
   9   3   6   52.06    3.42
  -9  -3  -7   34.41    2.76
   9   3   7   39.89    3.08
  -9  -3  -8   49.92    3.40
   9   3   8   54.40    3.63
  -9  -3  -9   13.71    1.96
   9   3   9   16.67    2.17
  -9  -3 -10   17.68    2.18
   9   3  10   18.36    2.26
  -9  -3 -11    9.00    1.78
   9   3  11    6.07    1.51
   9   3  12   83.57    4.80
  -9  -4  11   45.45    3.58
  -9  -4  10    1.74    0.98
  -9  -4  10   -0.53    0.98
   9   4  -9  104.10    4.56
  -9  -4   9  103.67    5.25
  -9  -4   9  103.97    5.05
  -9  -4   8    4.23    1.20
   9   4  -8    4.67    1.10
  -9  -4   7   34.12    2.66
   9   4  -7   36.84    2.60
  -9  -4   6   48.49    3.02
   9   4  -6   49.17    3.07
  -9  -4   6   49.78    3.14
   9   4  -6   48.06    2.75
  -9  -4   5   45.65    2.79
   9   4  -5   46.78    2.94
   9   4  -5   45.40    2.70
  -9  -4   5   44.12    2.89
   9   4  -4   26.36    2.33
  -9  -4   4   31.01    2.23
   9   4  -4   28.53    2.20
  -9  -4   4   29.30    2.35
  -9  -4   3   42.91    2.45
   9   4  -3   40.01    2.64
  -9  -4   3   47.28    2.92
  -9  -4   2   10.92    1.23
   9   4  -2   11.27    1.45
  -9  -4   2   12.21    1.61
  -9  -4   1   53.38    2.48
  -9  -4   1   50.60    2.99
   9   4  -1   48.47    2.98
  -9  -4   0    2.10    0.61
   9   4   0    0.72    0.82
  -9  -4   0    0.66    0.74
   9   4   1    4.37    1.14
  -9  -4  -1    0.86    0.79
   9   4   2   15.10    1.83
  -9  -4  -2   16.26    1.77
  -9  -4  -3    2.87    1.00
   9   4   3    3.71    1.13
  -9  -4  -4   42.88    2.88
   9   4   4   46.78    3.13
  -9  -4  -5   18.93    1.97
   9   4   5   20.22    2.24
  -9  -4  -6   34.77    2.70
   9   4   6   37.77    2.93
  -9  -4  -7   49.43    3.30
   9   4   7   49.58    3.44
  -9  -4  -8   46.54    3.29
   9   4   8   50.59    3.50
  -9  -4  -9   62.84    3.90
   9   4   9   63.73    3.98
  -9  -4 -10   37.22    3.12
   9   4  10   35.59    3.06
  -9  -4 -11   38.72    3.26
   9   4  11   41.19    3.27
   9   4  12   32.15    3.07
  -9  -5  10   53.88    3.96
  -9  -5   9   21.22    2.38
   9   5  -8   36.64    2.52
  -9  -5   8   41.83    3.26
   9   5  -7   12.44    1.58
   9   5  -7   10.25    1.34
  -9  -5   7   11.67    1.66
  -9  -5   7    9.99    1.63
  -9  -5   6  189.80    6.44
   9   5  -6  181.45    6.20
   9   5  -6  183.94    5.77
   9   5  -6  189.29    5.48
   9   5  -5    3.27    0.99
  -9  -5   5    4.97    1.02
   9   5  -5    4.98    0.96
  -9  -5   5    5.41    1.34
  -9  -5   4   30.79    2.17
   9   5  -4   28.66    2.16
  -9  -5   4   28.96    2.43
  -9  -5   3   64.56    3.04
   9   5  -3   64.76    3.32
  -9  -5   3   62.73    3.54
  -9  -5   2    1.76    0.68
   9   5  -2    1.52    0.78
  -9  -5   2    2.08    0.99
  -9  -5   1   42.58    2.16
   9   5  -1   44.01    2.80
  -9  -5   1   45.30    2.91
  -9  -5   0  116.08    3.60
  -9  -5   0  108.98    4.64
   9   5   0  112.29    4.68
  -9  -5  -1   79.49    3.87
   9   5   1   79.61    3.91
  -9  -5  -2  173.51    6.07
   9   5   2  172.27    6.16
  -9  -5  -3    1.87    0.88
   9   5   3    1.66    0.93
  -9  -5  -4   72.99    3.81
   9   5   4   74.02    3.91
  -9  -5  -5    5.02    1.28
   9   5   5    6.96    1.45
  -9  -5  -6   45.48    3.11
   9   5   6   49.59    3.30
  -9  -5  -7   96.23    4.69
   9   5   7   97.57    4.80
  -9  -5  -8   77.95    4.28
   9   5   8   82.87    4.44
  -9  -5  -9   42.19    3.16
   9   5   9   42.76    3.29
  -9  -5 -10   71.41    4.21
   9   5  10   65.98    4.08
  -9  -5 -11   17.37    2.22
   9   5  11   17.53    2.18
   9   5  12   66.65    4.24
  -9  -6   9   21.35    2.51
  -9  -6   8   58.53    4.01
   9   6  -7   -0.01    0.72
  -9  -6   7    0.69    0.91
   9   6  -6  108.63    4.46
   9   6  -6  109.82    4.03
  -9  -6   6  111.42    5.38
   9   6  -6  107.21    4.04
   9   6  -5    7.55    1.30
   9   6  -5    8.02    1.04
   9   6  -5    7.65    1.16
  -9  -6   4    2.03    0.88
   9   6  -4    2.35    0.72
   9   6  -4    2.00    0.83
  -9  -6   4    2.10    0.98
  -9  -6   3   21.15    1.74
   9   6  -3   17.76    1.15
   9   6  -3   15.75    1.66
  -9  -6   3   20.46    2.11
  -9  -6   2   62.70    2.82
   9   6  -2   58.07    3.20
  -9  -6   2   65.12    3.62
  -9  -6   1   13.40    1.20
   9   6  -1   12.95    1.63
  -9  -6   1   18.37    1.92
  -9  -6   0   17.43    1.26
   9   6   0   17.35    1.85
  -9  -6   0   15.15    1.82
  -9  -6  -1   28.53    1.44
  -9  -6  -1   28.77    2.37
   9   6   1   28.43    2.34
  -9  -6  -2    0.68    0.84
   9   6   2   -0.09    0.82
  -9  -6  -3  201.10    6.77
   9   6   3  191.43    6.72
  -9  -6  -4    0.04    0.93
   9   6   4    0.02    1.02
  -9  -6  -5   26.94    2.39
   9   6   5   30.76    2.62
   9   6   6   27.44    2.51
  -9  -6  -6   20.92    2.17
  -9  -6  -7  109.62    5.02
   9   6   7  105.34    5.00
  -9  -6  -8  225.66    7.81
   9   6   8  231.48    7.96
   9   6   9   17.67    2.13
  -9  -6  -9   19.00    2.20
  -9  -6 -10  116.98    5.56
   9   6  10  128.10    5.81
  -9  -6 -11   10.62    1.82
   9   6  11   11.01    1.95
   9   6  12   96.80    5.15
  -9  -7   8   23.36    2.62
  -9  -7   7   42.57    3.43
   9   7  -6   37.18    2.43
  -9  -7   6   35.67    3.12
   9   7  -5    6.20    1.15
  -9  -7   5    7.13    1.55
   9   7  -5    5.99    1.01
   9   7  -4   39.94    2.08
   9   7  -4   38.79    2.46
  -9  -7   4   42.36    3.08
   9   7  -3   17.49    1.74
  -9  -7   3   20.58    2.20
  -9  -7   2   40.63    2.24
   9   7  -2   37.94    2.54
  -9  -7   2   38.67    2.87
  -9  -7   1    1.48    0.55
   9   7  -1    0.87    0.89
  -9  -7   1    0.99    1.00
  -9  -7   0   13.81    1.09
  -9  -7   0   11.64    1.64
   9   7   0   13.47    1.64
  -9  -7  -1   36.20    1.57
   9   7   1   29.11    2.41
  -9  -7  -1   32.14    2.63
  -9  -7  -2   68.56    3.73
   9   7   2   67.41    3.67
  -9  -7  -3   61.72    3.56
   9   7   3   59.70    3.49
   9   7   4   -0.81    0.90
  -9  -7  -4    1.05    0.86
  -9  -7  -5  152.32    5.97
   9   7   5  153.95    6.01
  -9  -7  -6   44.64    3.13
   9   7   6   45.77    3.22
  -9  -7  -7   85.96    4.45
   9   7   7   89.75    4.58
   9   7   8   35.44    2.96
  -9  -7  -8   27.18    2.59
  -9  -7  -9   79.53    4.39
   9   7   9   78.75    4.42
  -9  -7 -10   74.82    4.39
   9   7  10   72.37    4.28
  -9  -7 -11   51.87    3.80
   9   7  11   48.09    3.51
   9   7  12   40.59    3.45
  -9  -8   7   26.22    2.77
  -9  -8   6    7.38    1.60
   9   8  -5   45.11    2.69
  -9  -8   5   51.78    3.67
  -9  -8   4   68.36    4.18
   9   8  -4   67.25    3.22
   9   8  -3   28.19    2.16
  -9  -8   3   29.98    2.71
   9   8  -2   -0.21    0.71
  -9  -8   2    1.46    1.13
  -9  -8   1    5.16    0.85
  -9  -8   1    4.33    1.31
   9   8  -1    4.58    1.11
  -9  -8   0   38.96    1.86
   9   8   0   33.08    2.49
  -9  -8   0   31.65    2.59
  -9  -8  -1    0.22    0.39
   9   8   1    0.25    0.79
  -9  -8  -1   -0.22    0.95
  -9  -8  -2   63.95    3.73
   9   8   2   62.75    3.53
   9   8   3   10.31    1.53
  -9  -8  -3   11.05    1.68
  -9  -8  -4   39.87    2.94
   9   8   4   41.68    2.95
   9   8   5   20.83    2.28
  -9  -8  -5   23.92    2.35
  -9  -8  -6  127.57    5.51
   9   8   6  128.12    5.52
  -9  -8  -7  188.66    6.95
   9   8   7  182.49    6.93
   9   8   8   28.40    2.63
  -9  -8  -8   28.39    2.64
  -9  -8  -9   45.94    3.38
   9   8   9   39.56    3.16
  -9  -8 -10   43.34    3.36
   9   8  10   43.20    3.34
  -9  -8 -11   36.62    3.16
   9   8  11   44.65    3.44
   9   8  12   13.56    2.02
  -9  -9   5    3.59    1.38
  -9  -9   4   50.26    3.69
  -9  -9   3    6.22    1.70
   9   9  -3    4.57    1.09
  -9  -9   3    5.25    1.52
  -9  -9   2   17.67    2.21
   9   9  -2   15.40    1.71
   9   9  -1    6.31    1.28
  -9  -9   1    7.80    1.60
   9   9   0   17.57    1.87
  -9  -9   0   23.08    2.41
   9   9   1   25.33    2.26
  -9  -9  -1   27.66    2.56
  -9  -9  -2   81.81    4.29
   9   9   2   70.73    3.85
   9   9   3   11.92    1.71
  -9  -9  -3   13.38    1.88
  -9  -9  -4  159.28    6.27
   9   9   4  156.94    6.09
   9   9   5   21.30    2.19
  -9  -9  -5   20.98    2.27
  -9  -9  -6   70.61    4.09
   9   9   6   67.83    4.00
  -9  -9  -7   59.79    3.77
   9   9   7   58.36    3.75
  -9  -9  -8   49.17    3.45
   9   9   8   56.53    3.73
  -9  -9  -9   31.54    2.86
   9   9   9   29.47    2.80
  -9  -9 -10   59.33    3.95
   9   9  10   64.05    4.08
   9   9  11    1.35    1.02
  -9  -9 -11    1.75    1.22
  -9 -10   4   28.89    2.84
  -9 -10   3    0.54    0.98
   9  10  -3    1.04    0.74
   9  10  -2   17.19    1.80
  -9 -10   2   21.71    2.44
   9  10  -1    0.88    0.98
  -9 -10   1    1.17    1.09
   9  10   0    0.38    0.90
  -9 -10   0    1.30    1.10
  -9 -10  -1   51.47    3.52
   9  10   1   49.70    3.12
  -9 -10  -2   39.52    3.09
   9  10   2   36.57    2.75
  -9 -10  -3   82.95    4.46
   9  10   3   83.85    4.24
  -9 -10  -4   31.25    2.70
   9  10   4   29.88    2.63
  -9 -10  -5   77.68    4.30
   9  10   5   78.41    4.24
   9  10   6    1.97    1.14
  -9 -10  -6    1.11    1.10
  -9 -10  -7  136.19    5.90
   9  10   7  132.61    5.82
   9  10   8   22.06    2.49
  -9 -10  -8   22.14    2.38
  -9 -10  -9   40.42    3.21
   9  10   9   38.60    3.20
  -9 -10 -10  108.45    5.45
   9  10  10  115.06    5.61
   9  10  11    6.10    1.63
  -9 -10 -11    6.76    1.60
  -9 -11   3    3.91    1.40
  -9 -11   2    1.17    1.08
   9  11  -2    2.82    1.07
  -9 -11   2    2.31    1.33
   9  11  -1    2.73    1.07
  -9 -11   1    0.82    1.05
   9  11   0   24.13    2.45
  -9 -11   0   31.26    2.83
   9  11   1   26.14    2.31
  -9 -11  -1   30.22    2.79
  -9 -11  -2   70.73    4.17
   9  11   2   58.42    3.58
   9  11   3    1.55    1.06
  -9 -11  -3   -1.93    1.30
   9  11   4   24.60    2.41
  -9 -11  -4   25.21    2.57
  -9 -11  -5  150.88    6.29
   9  11   5  145.66    6.06
   9  11   6    6.79    1.55
  -9 -11  -6    3.96    1.34
  -9 -11  -7  149.78    6.36
   9  11   7  153.41    6.42
   9  11   8   17.94    2.25
  -9 -11  -8   20.07    2.27
  -9 -11  -9   38.66    3.18
   9  11   9   38.95    3.26
   9  11  10   19.60    2.35
  -9 -11 -10   23.05    2.60
   9  12  -1    0.81    0.82
  -9 -12   1    1.64    1.40
   9  12   0    7.50    1.37
  -9 -12   0   13.18    2.08
   9  12   1    1.87    1.05
  -9 -12  -1    2.05    1.24
  -9 -12  -2   91.71    4.91
   9  12   2   88.27    4.47
   9  12   3    5.14    1.35
  -9 -12  -3    6.29    1.48
  -9 -12  -4   81.38    4.60
   9  12   4   76.85    4.29
  -9 -12  -5   35.97    3.10
   9  12   5   37.16    3.07
  -9 -12  -6  105.02    5.28
   9  12   6  105.02    5.19
  -9 -12  -7   78.02    4.48
   9  12   7   79.46    4.58
   9  12   8    5.00    1.48
  -9 -12  -8    4.60    1.49
  -9 -12  -9   88.84    4.89
   9  12   9   88.60    4.98
   9  13   0    7.93    1.50
   9  13   1   10.54    1.68
  -9 -13  -2   75.30    4.55
   9  13   2   71.03    4.06
   9  13   3    8.72    1.63
  -9 -13  -3    9.31    1.62
  -9 -13  -4   93.42    5.05
   9  13   4   88.38    4.69
  -9 -13  -5   35.45    3.05
   9  13   5   34.05    2.93
  -9 -13  -6   61.17    4.06
   9  13   6   55.40    3.82
  -9 -13  -7   84.35    4.78
   9  13   7   84.68    4.79
   9  13   8   18.56    2.33
  -9 -13  -8   19.70    2.49
   9  14   1   51.46    3.47
   9  14   2   39.19    3.09
   9  14   3   35.71    2.98
   9  14   4   43.21    3.31
   9  14   5   66.62    4.20
   9  14   6   32.50    3.03
   9  15   1   12.02    1.95
   9  15   2   42.55    3.31
   9  15   3    6.34    1.39
   9  15   4   69.81    4.34
 -10   3   2    1.97    1.42
  10  -3  -2   -2.10    1.43
  10  -3  -1    0.84    1.20
 -10   3   1    0.43    1.01
  10  -3   0   42.74    3.52
 -10   2   8   14.84    2.09
 -10   2   7   -0.45    0.96
 -10   2   6   -0.34    1.07
  10  -2  -6    2.93    1.40
  10  -2  -5   11.79    1.91
  10  -2  -4    2.15    1.19
  10  -2  -3   21.50    2.46
  10  -2  -2    1.68    1.11
  10  -2  -1    1.64    1.17
  10  -2   0    0.70    1.12
  10  -2   1    4.61    1.44
 -10   2  -1    5.45    1.07
  10  -2   2   10.98    1.97
 -10   2  -2   11.27    1.47
  10  -2   3   17.29    2.31
  10  -2   3   16.77    2.26
 -10   2  -3   15.06    1.83
 -10   2  -4    0.59    0.96
 -10   2  -5   77.06    4.14
 -10   2  -6   -1.42    1.13
 -10   2  -7   -0.33    0.99
 -10   1   9   48.36    3.66
 -10   1   8   16.03    2.16
  10  -1  -8   20.63    2.52
 -10   1   7    5.01    1.38
  10  -1  -7    5.05    1.48
 -10   1   6   -0.12    1.02
  10  -1  -6   -0.36    2.19
 -10   1   5    1.20    0.99
  10  -1  -5    0.36    1.01
  10  -1  -4    1.30    1.17
  10  -1  -3   21.45    2.39
  10  -1  -2    2.30    1.27
 -10   1   2    4.54    0.95
  10  -1  -1    4.71    1.48
 -10   1   1    4.06    0.94
  10  -1   0    9.88    1.68
  10  -1   0    8.18    1.61
 -10   1   0    8.24    1.22
  10  -1   1    2.20    1.20
  10  -1   1    2.55    1.32
 -10   1  -1    4.85    1.14
 -10   1  -2   30.67    2.38
  10  -1   2   28.60    2.81
  10  -1   3    7.20    1.65
 -10   1  -3    4.15    1.13
 -10   1  -4   42.58    2.92
  10  -1   4   41.08    3.39
 -10   1  -5   13.43    1.76
 -10   1  -6    8.57    1.67
 -10   1  -7   36.99    3.06
 -10   1  -8    8.38    1.73
  10   0 -10    0.75    1.17
 -10   0   9    7.00    1.72
  10   0  -9    3.42    1.41
 -10   0   8    0.51    1.05
  10   0  -8   -1.82    1.38
 -10   0   7    5.50    1.41
  10   0  -7    4.05    1.29
 -10   0   6    1.92    0.97
  10   0  -6    5.23    1.85
  10   0  -5   27.83    2.70
 -10   0   5   26.88    2.46
  10   0  -4    1.60    1.16
 -10   0   4    0.28    0.85
 -10   0   4    1.57    0.76
  10   0  -3   10.09    1.83
 -10   0   3   11.63    1.39
  10   0  -2    6.43    1.49
  10   0  -2    7.17    1.49
 -10   0   2    7.99    1.24
  10   0  -1    2.44    1.35
  10   0  -1    1.67    1.06
 -10   0   1    0.50    0.74
 -10   0   0   38.28    2.57
  10   0   0   38.06    3.10
 -10   0  -1   25.64    2.15
  10   0   1   23.31    2.50
  10   0   2   13.62    2.03
 -10   0  -2   13.37    1.62
  10   0   3   14.91    2.04
 -10   0  -3   17.45    1.94
 -10   0  -4   36.93    2.76
  10   0   4   38.68    3.27
  10   0   5   25.98    2.70
 -10   0  -5   21.77    2.18
  10   0   6    1.01    1.25
 -10   0  -6    2.54    1.13
 -10   0  -7    3.86    1.06
 -10   0  -8   -0.15    0.98
  10   1 -10    7.80    1.69
 -10  -1   9    0.12    1.11
  10   1  -9   -1.63    1.18
 -10  -1   8    0.76    1.10
  10   1  -8   -0.42    1.23
 -10  -1   7    1.47    1.06
  10   1  -7   -0.41    1.07
 -10  -1   6    0.61    0.98
  10   1  -6    0.70    0.96
 -10  -1   6    0.18    0.82
  10   1  -5   25.59    2.54
 -10  -1   5   27.04    2.39
 -10  -1   5   24.39    1.98
  10   1  -4    2.23    1.07
 -10  -1   4    0.90    0.85
 -10  -1   4    1.62    0.85
  10   1  -3   33.27    2.88
 -10  -1   3   28.47    2.32
 -10  -1   3   30.12    2.20
  10   1  -3   28.43    2.58
  10   1  -2    1.64    1.13
  10   1  -2    3.02    1.36
 -10  -1   2    1.70    0.84
 -10  -1   1   25.21    2.15
  10   1  -1   23.18    2.39
 -10  -1   0   41.39    2.67
  10   1   0   44.83    3.26
 -10  -1  -1   56.79    3.21
  10   1   1   56.70    3.72
  10   1   2    3.43    1.37
 -10  -1  -2    4.96    1.15
 -10  -1  -3   76.87    3.93
  10   1   3   78.20    4.44
  10   1   4   -0.18    0.97
 -10  -1  -4    0.35    1.02
 -10  -1  -5   60.95    3.65
  10   1   5   66.31    4.16
  10   1   6    0.20    1.08
 -10  -1  -6   -1.31    1.20
  10   1   7    3.17    1.27
 -10  -1  -7    7.03    1.59
 -10  -1  -8   -0.07    1.04
  10   2 -10   -1.13    1.01
 -10  -2   9    2.83    1.29
  10   2  -9    4.94    1.36
 -10  -2   8   25.61    2.50
  10   2  -8   27.80    2.57
 -10  -2   7   30.06    2.58
  10   2  -7   23.99    2.55
 -10  -2   7   27.31    2.26
  10   2  -6   24.86    2.52
 -10  -2   6   21.01    2.15
 -10  -2   6   25.37    2.26
  10   2  -5    7.25    1.45
 -10  -2   5   10.34    1.56
 -10  -2   5    5.44    1.09
  10   2  -4   11.18    1.88
 -10  -2   4    8.39    1.38
  10   2  -4    6.87    1.48
 -10  -2   4    9.07    1.45
  10   2  -3   33.97    2.87
 -10  -2   3   26.48    2.17
 -10  -2   3   31.69    2.37
  10   2  -3   28.82    2.59
 -10  -2   2    0.02    0.75
  10   2  -2    0.96    0.92
 -10  -2   2    0.00    0.76
 -10  -2   1  145.35    5.35
  10   2  -1  147.19    5.99
  10   2   0    0.95    1.10
 -10  -2   0    0.48    0.86
 -10  -2  -1   74.34    3.75
  10   2   1   75.68    4.26
  10   2   2   11.58    1.94
 -10  -2  -2    9.78    1.47
 -10  -2  -3   72.87    3.85
  10   2   3   74.28    4.32
  10   2   4    0.64    1.01
 -10  -2  -4    2.16    1.10
  10   2   5   23.18    2.54
 -10  -2  -5   20.26    2.18
  10   2   6    6.02    1.61
 -10  -2  -6    6.02    1.32
  10   2   7    1.05    0.99
 -10  -2  -7    1.77    1.06
  10   2   8    9.27    1.75
 -10  -2  -8    7.74    1.55
 -10  -2  -9    1.51    0.90
 -10  -3   9    7.18    1.54
  10   3  -9    5.32    1.37
 -10  -3   9    5.60    1.36
 -10  -3   8   11.85    1.81
  10   3  -8   11.92    1.74
 -10  -3   8   12.75    1.79
 -10  -3   7    1.52    0.95
  10   3  -7    3.97    1.37
 -10  -3   7    1.72    0.87
  10   3  -6    9.47    1.63
 -10  -3   6    9.52    1.54
 -10  -3   6   11.15    1.59
  10   3  -5   25.68    2.50
 -10  -3   5   22.52    2.14
  10   3  -5   24.40    2.28
 -10  -3   5   26.21    2.27
  10   3  -4    0.48    1.00
 -10  -3   4   -1.12    0.73
  10   3  -4    1.22    1.04
 -10  -3   4    2.58    1.06
  10   3  -3   19.50    2.18
 -10  -3   3   17.06    1.72
  10   3  -3   18.33    2.05
 -10  -3   3   17.23    1.87
 -10  -3   2   45.00    2.59
 -10  -3   2   40.93    2.77
  10   3  -2   39.90    2.91
  10   3  -1   22.50    2.31
 -10  -3   1   17.91    1.88
 -10  -3   0  173.71    6.09
  10   3   0  163.85    6.39
  10   3   1    0.66    1.05
 -10  -3  -1    0.13    0.85
 -10  -3  -2  239.80    7.60
  10   3   2  245.52    8.19
  10   3   3    1.19    1.10
 -10  -3  -3   -0.58    0.82
  10   3   4   24.17    2.51
 -10  -3  -4   24.24    2.28
  10   3   5    1.76    1.11
 -10  -3  -5   -0.07    0.94
  10   3   6    4.79    1.61
 -10  -3  -6    1.60    1.04
 -10  -3  -7    1.32    1.02
  10   3   7    4.38    1.27
 -10  -3  -8   57.84    3.84
  10   3   8   57.74    3.94
 -10  -3  -9    0.06    1.15
 -10  -4   9    1.33    1.18
 -10  -4   9    0.60    1.18
 -10  -4   8   10.62    1.63
  10   4  -8   13.09    1.76
 -10  -4   8   14.59    1.94
 -10  -4   7    7.56    1.48
  10   4  -7    8.63    1.47
 -10  -4   7    7.18    1.51
  10   4  -6   18.85    2.08
 -10  -4   6   16.25    1.93
  10   4  -6   21.05    2.03
 -10  -4   6   19.17    2.12
 -10  -4   5   37.91    2.67
  10   4  -5   36.57    2.84
  10   4  -5   34.14    2.58
 -10  -4   5   34.42    2.69
  10   4  -4   -0.56    0.95
 -10  -4   4    0.42    0.72
  10   4  -4    1.68    0.86
 -10  -4   4    0.14    0.87
 -10  -4   3   11.11    1.44
  10   4  -3    9.63    1.50
 -10  -4   3   11.18    1.57
 -10  -4   2   36.87    2.29
 -10  -4   2   38.90    2.77
  10   4  -2   35.12    2.74
 -10  -4   1  149.44    4.76
 -10  -4   1  147.24    5.65
  10   4  -1  145.93    5.81
 -10  -4   0   60.82    3.46
  10   4   0   65.53    3.79
 -10  -4  -1   35.77    2.67
  10   4   1   41.41    3.02
 -10  -4  -2   91.07    4.34
  10   4   2   95.28    4.73
 -10  -4  -3   38.54    2.81
  10   4   3   36.85    3.01
  10   4   4   15.05    2.09
 -10  -4  -4   16.66    1.99
 -10  -4  -5    1.92    0.97
  10   4   5    4.12    1.29
 -10  -4  -6   16.18    2.05
  10   4   6   13.06    2.01
 -10  -4  -7    0.17    0.97
  10   4   7    0.71    0.92
 -10  -4  -8   22.80    2.47
  10   4   8   23.73    2.54
 -10  -4  -9   21.93    2.47
  10   4   9   26.68    2.79
 -10  -5   9    9.89    1.77
 -10  -5   8    9.04    1.68
 -10  -5   8    8.28    1.60
 -10  -5   7   31.72    2.58
  10   5  -7   33.94    2.66
 -10  -5   7   26.48    2.59
 -10  -5   6   48.45    3.10
  10   5  -6   50.61    3.35
 -10  -5   6   48.53    3.35
  10   5  -5   21.93    2.17
 -10  -5   5   22.89    2.06
  10   5  -5   23.70    2.13
 -10  -5   5   22.93    2.33
  10   5  -4    7.67    1.49
 -10  -5   4    9.75    1.37
  10   5  -4    7.36    1.29
 -10  -5   4    8.04    1.52
 -10  -5   3   10.53    1.32
  10   5  -3   13.15    1.66
 -10  -5   3   14.72    1.85
 -10  -5   2   32.14    2.07
  10   5  -2   29.91    2.50
 -10  -5   2   28.31    2.44
 -10  -5   1  114.91    3.92
 -10  -5   1  112.82    4.96
  10   5  -1  104.89    4.80
 -10  -5   0   39.63    2.02
 -10  -5   0   40.03    2.91
  10   5   0   33.15    2.68
 -10  -5  -1   78.79    4.08
  10   5   1   78.65    4.16
  10   5   2   11.46    1.80
 -10  -5  -2    8.65    1.51
  10   5   3    1.31    1.17
 -10  -5  -3    0.04    0.90
 -10  -5  -4    2.17    1.15
  10   5   4    2.56    1.30
 -10  -5  -5    1.95    1.02
  10   5   5    0.89    0.96
 -10  -5  -6   -1.18    1.22
  10   5   6    0.40    1.01
 -10  -5  -7    6.77    1.55
  10   5   7    4.53    1.25
 -10  -5  -8   11.65    1.77
  10   5   8   16.74    2.23
 -10  -5  -9   17.38    2.29
  10   5   9    8.94    1.68
 -10  -6   9    3.10    1.34
 -10  -6   8   12.73    1.85
 -10  -6   7   -0.34    1.06
 -10  -6   7    2.35    1.19
 -10  -6   6   55.43    3.36
  10   6  -6   48.66    3.19
 -10  -6   6   55.17    3.69
  10   6  -5   12.14    1.61
 -10  -6   5   16.00    1.72
  10   6  -5   12.79    1.57
 -10  -6   5   12.61    1.87
 -10  -6   4   50.58    2.86
  10   6  -4   48.65    3.01
 -10  -6   4   44.93    3.24
 -10  -6   3   30.21    2.08
  10   6  -3   30.31    2.46
 -10  -6   3   29.27    2.53
 -10  -6   2   20.24    1.63
  10   6  -2   18.63    2.05
 -10  -6   2   20.75    2.13
 -10  -6   1   11.25    1.17
  10   6  -1    6.62    1.48
 -10  -6   1   11.68    1.70
 -10  -6   0   39.94    2.95
  10   6   0   37.72    2.83
  10   6   1    1.30    1.00
 -10  -6  -1    1.17    0.96
 -10  -6  -2   30.46    2.57
  10   6   2   31.29    2.66
 -10  -6  -3   33.13    2.70
  10   6   3   35.84    2.88
 -10  -6  -4   20.38    2.22
  10   6   4   18.77    2.16
 -10  -6  -5    7.83    1.52
  10   6   5    5.72    1.48
 -10  -6  -6    7.84    1.62
  10   6   6    9.20    1.71
 -10  -6  -7    6.61    1.41
  10   6   7    8.50    1.68
 -10  -6  -8   31.06    2.77
  10   6   8   32.02    2.92
 -10  -6  -9    2.64    1.11
  10   6   9    3.61    1.42
 -10  -7   7   11.53    1.73
 -10  -7   6   14.69    1.93
 -10  -7   6   17.60    2.22
  10   7  -5   16.89    1.85
 -10  -7   5   11.79    1.61
 -10  -7   5   12.87    1.89
 -10  -7   4   90.57    3.97
  10   7  -4   84.21    3.95
 -10  -7   4   73.55    4.32
 -10  -7   3   29.28    2.09
  10   7  -3   29.85    2.34
 -10  -7   3   31.42    2.78
 -10  -7   2    1.34    0.74
  10   7  -2    0.26    0.86
 -10  -7   2    1.45    1.01
  10   7  -1   12.19    1.64
 -10  -7   1   11.13    1.81
  10   7   0   95.59    4.54
 -10  -7   0  101.04    4.85
 -10  -7  -1    8.34    1.60
  10   7   1    7.28    1.37
 -10  -7  -2   35.99    2.94
  10   7   2   34.09    2.79
 -10  -7  -3   11.43    1.79
  10   7   3   11.34    1.82
 -10  -7  -4   86.39    4.52
  10   7   4   84.27    4.50
 -10  -7  -5   36.10    2.96
  10   7   5   39.69    3.13
 -10  -7  -6    3.07    1.37
  10   7   6    0.52    0.96
 -10  -7  -7   19.44    2.21
  10   7   7   18.15    2.28
 -10  -7  -8   20.02    2.36
  10   7   8   22.63    2.49
 -10  -7  -9    3.35    1.41
  10   7   9    0.01    1.05
 -10  -8   5   25.05    2.61
 -10  -8   4   10.47    1.45
  10   8  -4   12.30    1.60
 -10  -8   4   11.57    1.86
  10   8  -3  104.90    4.52
 -10  -8   3  105.00    5.23
  10   8  -2   -1.13    0.96
 -10  -8   2   -0.45    0.99
  10   8  -1   21.03    2.15
 -10  -8   1   27.28    2.68
  10   8   0    5.33    1.28
 -10  -8   0    6.18    1.38
  10   8   1   99.01    4.71
 -10  -8  -1  105.58    5.05
 -10  -8  -2   22.13    2.36
  10   8   2   15.99    2.00
  10   8   3    0.80    1.06
 -10  -8  -3    0.54    0.94
 -10  -8  -4   93.28    4.78
  10   8   4   91.10    4.70
  10   8   5    7.83    1.66
 -10  -8  -5    4.13    1.21
  10   8   6    2.07    1.34
 -10  -8  -6    0.12    1.01
  10   8   7   11.80    1.96
 -10  -8  -7   13.11    1.95
  10   8   8   19.92    2.42
 -10  -8  -8   17.00    2.15
  10   8   9    3.63    1.58
 -10  -8  -9    1.23    1.07
 -10  -9   4   41.28    3.30
  10   9  -3   42.47    2.83
 -10  -9   3   47.02    3.48
  10   9  -2   43.15    2.96
 -10  -9   2   45.38    3.45
  10   9  -1   81.33    4.16
 -10  -9   1   91.64    4.84
 -10  -9   0    0.37    0.96
  10   9   0    0.68    0.88
  10   9   1   37.26    2.91
 -10  -9  -1   44.62    3.30
  10   9   2   13.58    1.86
 -10  -9  -2    8.94    1.70
 -10  -9  -3   35.95    3.03
  10   9   3   36.31    2.95
  10   9   4   11.64    1.83
 -10  -9  -4   13.60    1.95
  10   9   5    6.11    1.52
 -10  -9  -5    6.01    1.45
  10   9   6    4.43    1.34
 -10  -9  -6    4.35    1.27
  10   9   7   15.50    2.10
 -10  -9  -7   11.19    1.79
 -10  -9  -8   76.49    4.53
  10   9   8   84.09    4.78
  10   9   9   20.54    2.53
 -10  -9  -9   20.63    2.50
  10  10  -2   55.39    3.29
 -10 -10   2   60.40    4.08
  10  10  -1   70.85    3.89
 -10 -10   1   84.99    4.74
  10  10   0   25.35    2.46
 -10 -10   0   29.85    2.83
  10  10   1   26.54    2.50
 -10 -10  -1   33.16    2.90
  10  10   2   19.99    2.24
 -10 -10  -2   26.76    2.67
  10  10   3    8.74    1.50
 -10 -10  -3    7.33    1.52
 -10 -10  -4   74.90    4.36
  10  10   4   68.59    4.09
  10  10   5    5.30    1.49
 -10 -10  -5    3.67    1.37
  10  10   6    1.71    1.11
 -10 -10  -6    0.82    0.97
  10  10   7   24.07    2.52
 -10 -10  -7   21.58    2.61
 -10 -10  -8   37.20    3.21
  10  10   8   38.26    3.25
  10  11  -1   33.33    2.62
  10  11   0   24.76    2.38
 -10 -11   0   25.97    2.74
  10  11   1   41.07    3.07
 -10 -11  -1   46.69    3.57
 -10 -11  -2   37.68    3.21
  10  11   2   33.90    2.86
  10  11   3    3.92    1.36
 -10 -11  -3    3.12    1.35
  10  11   4   22.52    2.42
 -10 -11  -4   25.78    2.65
  10  11   5    6.54    1.57
 -10 -11  -5    5.04    1.59
  10  11   6    2.43    1.23
 -10 -11  -6    2.76    1.30
 -10 -11  -7   48.89    3.67
  10  11   7   48.78    3.65
  10  12  -1  140.02    5.67
  10  12   0    9.24    1.67
  10  12   1   51.22    3.45
  10  12   2    8.42    1.57
  10  12   3    7.21    1.69
  10  12   4   14.76    1.90
  10  12   5   10.38    1.77
  10  12   6   13.04    1.95
  10  13   0   12.63    1.81
  10  13   1   63.44    3.88
  10  13   2    8.85    1.68
  10  13   3   30.77    2.84
  10  13   4    1.29    1.16
  10  13   5    9.11    1.81
  10  14   1   33.69    2.97
  10  14   2    6.36    1.49
  10  14   3    4.65    1.51
 -11   1   7   16.37    2.11
 -11   1  -4    2.28    1.06
 -11   1  -5    0.48    1.01
 -11   1  -6    1.29    1.13
 -11   0   7   10.61    1.80
 -11   0   6   37.73    3.10
  11   0  -1   44.44    3.53
 -11   0   0   59.61    3.35
  11   0   0   65.52    4.28
 -11   0  -1    7.65    1.37
 -11   0  -2   16.42    1.88
 -11   0  -3   13.30    1.85
 -11   0  -4    9.96    1.72
 -11   0  -5    6.03    1.46
 -11   0  -6   -0.09    0.97
 -11  -1   8   11.32    1.97
 -11  -1   7    3.75    1.33
 -11  -1   6   35.43    2.97
  11   1  -5    2.38    1.22
 -11  -1   5    0.27    1.08
  11   1  -4    3.26    1.34
  11   1  -3    4.66    1.48
  11   1  -2    4.80    1.48
  11   1  -2    3.48    1.19
 -11  -1   2    6.02    1.19
  11   1  -1    2.28    1.42
  11   1  -1    0.64    0.97
 -11  -1   1    0.57    0.87
  11   1   0    2.42    1.16
 -11  -1   0    2.56    0.97
  11   1   1   10.71    1.83
 -11  -1  -1   12.32    1.68
 -11  -1  -2   43.73    3.00
  11   1   2   45.17    3.61
 -11  -1  -3   16.25    2.02
 -11  -1  -4   23.14    2.39
 -11  -1  -5   16.42    2.00
 -11  -1  -6   11.59    1.86
 -11  -1  -7   11.28    2.00
 -11  -2   8    6.64    1.67
 -11  -2   7    9.71    1.69
  11   2  -7    7.77    1.61
 -11  -2   6    9.71    1.65
  11   2  -6   12.95    2.00
  11   2  -5    1.86    1.22
 -11  -2   5    2.11    1.12
  11   2  -4   -0.95    1.30
 -11  -2   4    1.45    0.94
  11   2  -4   -1.97    1.12
 -11  -2   4    1.30    0.81
  11   2  -3    2.05    1.22
  11   2  -3    1.34    1.19
 -11  -2   3    4.00    1.02
  11   2  -2    1.46    1.01
  11   2  -2   -0.68    1.04
 -11  -2   2    0.17    0.81
  11   2  -1    3.58    1.18
 -11  -2   1    6.16    1.29
  11   2   0    6.37    1.64
 -11  -2   0    4.20    1.18
  11   2   1    2.18    1.11
 -11  -2  -1    1.82    1.00
  11   2   2    9.48    1.86
 -11  -2  -2   14.34    1.91
  11   2   3   18.16    2.32
 -11  -2  -3   19.77    2.19
 -11  -2  -4    7.41    1.56
 -11  -2  -5   45.94    3.35
 -11  -2  -6    7.85    1.49
 -11  -2  -7   40.98    3.25
 -11  -3   8   13.04    1.94
  11   3  -8   13.72    2.14
 -11  -3   7    1.32    1.07
  11   3  -7    0.31    1.06
  11   3  -6    3.39    1.16
 -11  -3   6    3.00    1.22
 -11  -3   6    4.62    1.35
  11   3  -5   18.23    2.23
 -11  -3   5   15.70    1.87
 -11  -3   5   15.34    1.87
  11   3  -4    3.57    1.36
 -11  -3   4    2.86    1.03
  11   3  -4    1.38    1.10
 -11  -3   4    1.61    0.99
  11   3  -3    5.53    1.44
  11   3  -3    5.77    1.53
 -11  -3   3    7.26    1.38
  11   3  -2   31.10    2.85
 -11  -3   2   30.11    2.63
 -11  -3   1   31.75    2.62
  11   3  -1   30.30    2.83
 -11  -3   0   87.99    4.38
  11   3   0   88.30    4.82
  11   3   1    1.41    1.01
 -11  -3  -1    3.56    1.24
 -11  -3  -2   42.12    3.07
  11   3   2   43.36    3.41
  11   3   3    0.88    0.97
 -11  -3  -3    4.26    1.25
  11   3   4    9.04    1.86
 -11  -3  -4    6.01    1.58
 -11  -3  -5   52.64    3.62
 -11  -3  -6   22.51    2.44
 -11  -3  -7   66.91    4.20
 -11  -4   8   25.03    2.53
 -11  -4   7    7.15    1.60
  11   4  -7    5.83    1.75
 -11  -4   7    2.62    1.20
  11   4  -6    1.52    1.27
 -11  -4   6    0.79    1.14
 -11  -4   6    1.56    1.23
  11   4  -5    7.55    1.67
 -11  -4   5    5.63    1.27
  11   4  -5    7.28    1.35
 -11  -4   5    8.20    1.58
  11   4  -4   37.51    3.07
 -11  -4   4   41.53    3.05
  11   4  -4   33.88    2.87
  11   4  -3    0.52    1.22
  11   4  -3    0.14    1.13
 -11  -4   3    0.83    0.91
  11   4  -2   20.70    2.20
 -11  -4   2   18.94    2.12
  11   4  -1    0.94    1.04
 -11  -4   1    0.35    0.91
  11   4   0   25.89    2.73
 -11  -4   0   26.41    2.45
 -11  -4  -1   32.48    2.75
  11   4   1   33.67    2.99
  11   4   2   24.34    2.61
 -11  -4  -2   21.58    2.24
  11   4   3    2.26    1.17
 -11  -4  -3    0.37    0.89
 -11  -4  -4   36.29    2.96
  11   4   4   43.15    3.46
 -11  -4  -5   32.02    2.86
  11   4   5   29.77    2.95
 -11  -4  -6   76.05    4.40
 -11  -4  -7   23.57    2.57
 -11  -5   7    4.48    1.38
  11   5  -7    2.14    1.21
 -11  -5   7    5.61    1.54
  11   5  -6   28.84    2.68
 -11  -5   6   26.66    2.52
  11   5  -5    1.40    0.95
  11   5  -5    1.26    0.98
 -11  -5   5    0.84    1.14
  11   5  -4   37.33    3.07
  11   5  -4   32.16    2.68
 -11  -5   4   39.11    3.02
  11   5  -3    2.37    1.01
 -11  -5   3    4.55    1.28
  11   5  -2    1.40    0.98
 -11  -5   2    0.31    1.09
 -11  -5   1   44.02    3.19
  11   5  -1   38.56    3.04
 -11  -5   0   27.22    2.54
  11   5   0   24.68    2.51
  11   5   1   14.81    2.06
 -11  -5  -1   14.30    1.92
  11   5   2   29.44    2.74
 -11  -5  -2   25.07    2.46
  11   5   3    8.08    1.64
 -11  -5  -3    6.10    1.59
 -11  -5  -4   35.19    2.97
  11   5   4   34.42    3.08
 -11  -5  -5   24.23    2.54
  11   5   5   25.06    2.68
 -11  -5  -6   17.33    2.20
  11   5   6   13.36    2.03
 -11  -5  -7   56.52    3.89
 -11  -6   7   35.74    3.20
  11   6  -6    6.23    1.61
 -11  -6   6    3.90    1.43
  11   6  -5    4.49    1.40
 -11  -6   5    3.75    1.47
  11   6  -4    1.50    1.12
  11   6  -4    0.47    1.00
 -11  -6   4   -0.35    0.95
  11   6  -3    6.08    1.29
 -11  -6   3    8.55    1.62
  11   6  -2    2.50    1.22
 -11  -6   2    0.22    0.91
  11   6  -1    9.11    1.68
 -11  -6   1   11.33    1.88
  11   6   0   18.73    2.23
 -11  -6   0   24.72    2.54
  11   6   1   19.07    2.23
 -11  -6  -1   15.74    2.03
  11   6   2   20.00    2.31
 -11  -6  -2   20.63    2.20
  11   6   3    4.13    1.37
 -11  -6  -3    9.18    1.73
 -11  -6  -4   59.91    3.84
  11   6   4   58.57    3.95
 -11  -6  -5   46.82    3.43
  11   6   5   43.36    3.44
 -11  -6  -6   -0.04    0.90
  11   6   6   -1.15    1.05
 -11  -6  -7   49.46    3.65
  11   7  -5   12.48    1.76
 -11  -7   5   12.37    1.96
  11   7  -4    0.62    1.07
 -11  -7   4   -0.83    0.97
  11   7  -3    1.18    0.96
 -11  -7   3    1.25    0.92
  11   7  -2    7.72    1.57
 -11  -7   2    6.15    1.43
  11   7  -1   10.38    1.65
 -11  -7   1   10.72    1.72
 -11  -7   0   38.97    3.16
  11   7   0   36.45    3.03
  11   7   1    1.85    1.21
 -11  -7  -1   -1.27    1.18
 -11  -7  -2  114.30    5.45
  11   7   2  117.61    5.54
 -11  -7  -3    0.54    0.95
  11   7   3    0.98    1.10
 -11  -7  -4   55.80    3.78
  11   7   4   57.03    3.89
 -11  -7  -5   27.84    2.70
  11   7   5   19.41    2.41
 -11  -7  -6   29.13    2.82
  11   7   6   29.79    2.94
 -11  -7  -7   40.58    3.38
  11   8  -4    4.06    1.29
  11   8  -3    3.19    1.12
 -11  -8   3   -0.27    1.21
  11   8  -2   -1.59    1.12
 -11  -8   2   -0.14    0.90
  11   8  -1   33.30    2.80
 -11  -8   1   38.27    3.17
 -11  -8   0   31.44    2.88
  11   8   0   32.85    2.86
  11   8   1   13.10    1.92
 -11  -8  -1   16.84    2.09
 -11  -8  -2   38.43    3.17
  11   8   2   36.18    3.12
 -11  -8  -3    5.89    1.38
  11   8   3    9.42    2.11
 -11  -8  -4   22.80    2.51
  11   8   4   22.97    2.91
 -11  -8  -5   23.30    2.56
  11   8   5   26.80    2.70
  11   8   6   36.75    3.26
 -11  -8  -6   33.54    3.19
  11   9  -2    0.01    1.01
  11   9  -1   36.63    2.93
 -11  -9   1   40.94    3.31
  11   9   0   10.62    1.75
 -11  -9   0   12.54    2.04
 -11  -9  -1    5.42    1.44
  11   9   1    6.79    1.52
 -11  -9  -2   37.91    3.20
  11   9   2   45.31    3.39
 -11  -9  -3   29.76    2.89
  11   9   3   28.44    2.75
 -11  -9  -4   23.10    2.75
  11   9   4   18.35    2.28
 -11  -9  -5   71.56    4.44
  11   9   5   65.42    4.23
  11  10  -1   31.84    2.77
  11  10   0   16.10    2.11
  11  10   1   17.04    2.13
  11  10   2   22.88    2.50
  11  10   3   22.15    2.42
  11  10   4  106.88    5.42
  11  10   5   64.37    4.22
  11  11  -1   22.33    2.42
  11  11   0   44.79    3.29
  11  11   1   22.90    2.51
  11  11   2  119.52    5.66
  11  11   3   -0.12    0.93
  11  11   4  142.75    6.40
  11  12   0   23.54    2.49
  11  12   1   31.08    2.81
  11  12   2   41.06    3.29
  11  12   3   20.60    2.43
  11  13   2   60.16    4.02
 -12  -1  -4    4.09    1.52
 -12  -2   0   11.16    1.77
 -12  -2  -1    3.47    1.34
 -12  -2  -2   -0.53    1.07
 -12  -2  -3    2.82    1.19
 -12  -2  -4    2.96    1.31
 -12  -2  -5    1.90    1.19
  12   3  -3   29.07    2.85
  12   3  -2    7.40    1.65
 -12  -3   2    7.58    1.60
 -12  -3   1   21.02    2.24
 -12  -3   0   -0.08    0.95
 -12  -3  -1    1.77    1.27
 -12  -3  -2    5.70    1.45
 -12  -3  -3    5.07    1.43
 -12  -3  -4   12.42    1.85
 -12  -3  -5    2.42    1.20
  12   4  -4    4.14    1.45
 -12  -4   4    0.53    1.04
  12   4  -3    3.92    1.35
 -12  -4   3    7.48    1.53
  12   4  -2   -0.71    1.18
 -12  -4   2    1.01    0.96
  12   4  -1   19.62    2.39
 -12  -4   1   24.16    2.44
 -12  -4   0   -1.09    1.36
 -12  -4  -1   62.82    3.91
 -12  -4  -2    1.34    1.00
 -12  -4  -3    6.79    1.96
 -12  -4  -4    1.20    1.04
 -12  -5   5    3.13    1.25
  12   5  -4    2.67    1.35
 -12  -5   4    2.83    1.12
  12   5  -3    0.53    0.97
 -12  -5   3    0.08    1.06
 -12  -5   2   31.93    2.91
  12   5  -2   33.14    2.97
  12   5  -1   11.33    1.87
 -12  -5   1   10.25    1.77
  12   5   0    6.15    1.46
 -12  -5   0    3.78    1.32
 -12  -5  -1   20.46    2.53
 -12  -5  -2   26.89    2.69
 -12  -5  -3    6.87    1.41
 -12  -5  -4    0.23    1.04
  12   6  -4    7.99    1.54
 -12  -6   4   11.40    1.92
  12   6  -3    1.40    1.10
 -12  -6   3    2.98    1.31
  12   6  -2   18.85    2.34
 -12  -6   2   20.18    2.43
 -12  -6   1   58.75    3.90
  12   6  -1   62.67    4.11
  12   6   0    0.94    1.08
 -12  -6   0    2.31    1.08
  12   6   1    0.06    1.24
 -12  -6  -1   -0.30    1.13
 -12  -6  -2   27.13    2.67
 -12  -6  -3   10.60    1.87
  12   7  -4   37.23    3.21
  12   7  -3   18.69    2.26
  12   7  -2    1.18    1.13
  12   7  -1   30.53    2.89
 -12  -7   1   30.55    2.90
  12   7   0    3.35    1.45
 -12  -7   0    0.65    1.18
  12   7   1   11.84    1.92
 -12  -7  -1   17.46    2.32
 -12  -7  -2    1.33    1.15
  12   8  -2    8.43    1.73
  12   8  -1   13.68    2.06
  12   8   0    1.91    1.02
  12   8   1   42.00    3.36
  12   9  -1   12.06    1.84
  12   9   0    5.20    1.42
  12   9   1    1.46    1.27
  12  10   0   -1.89    1.19
   0   0   0    0.00    0.00


TITL pvl928_auto in P-1
REM P-1 (#2 in standard setting)
CELL 0.71073   9.406850  13.173050  14.139361  70.5987  85.5490  71.5390
ZERR   18.00   0.000191   0.000279   0.000284   0.0019   0.0016   0.0019
LATT  1
SFAC C H N O S Cd
UNIT 18.00 18.00 18.00 18.00 18.00 18.00
REM  CrysAlisPro recorded range (K): Min=130.0; max=130.0; aver:130.0
TEMP -143
TREF
HKLF 4
END
_computing_structure_solution     'SHELXT 2014/5 (Sheldrick, 2014)'
;
_shelx_hkl_checksum   30784

