 
data_pvl507
 
_audit_creation_method            'SHELXL-2018/3'
_shelx_SHELXL_version_number      '2018/3'
_chemical_name_systematic         ?
_chemical_name_common             ?
_chemical_melting_point           ?
_chemical_formula_moiety          ?
_chemical_formula_sum
 'C20.80 H12.80 N6.40 O3.20 S0.80 Zn0.80' 
_chemical_formula_weight          481.52

loop_
 _atom_type_symbol
 _atom_type_description
 _atom_type_scat_dispersion_real
 _atom_type_scat_dispersion_imag
 _atom_type_scat_source
 'C'  'C'   0.0033   0.0016
 'International Tables Vol C Tables 4.2.6.8 and 6.1.1.4'
 'H'  'H'   0.0000   0.0000
 'International Tables Vol C Tables 4.2.6.8 and 6.1.1.4'
 'N'  'N'   0.0061   0.0033
 'International Tables Vol C Tables 4.2.6.8 and 6.1.1.4'
 'O'  'O'   0.0106   0.0060
 'International Tables Vol C Tables 4.2.6.8 and 6.1.1.4'
 'S'  'S'   0.1246   0.1234
 'International Tables Vol C Tables 4.2.6.8 and 6.1.1.4'
 'Zn'  'Zn'   0.2839   1.4301
 'International Tables Vol C Tables 4.2.6.8 and 6.1.1.4'
 
_space_group_crystal_system       monoclinic
_space_group_IT_number            13
_space_group_name_H-M_alt         'P 2/c'
_space_group_name_Hall            '-P 2yc'
 
_shelx_space_group_comment
;
The symmetry employed for this shelxl refinement is uniquely defined
by the following loop, which should always be used as a source of
symmetry information in preference to the above space-group names.
They are only intended as comments.
;
 
loop_
 _space_group_symop_operation_xyz
 'x, y, z'
 '-x, y, -z+1/2'
 '-x, -y, -z'
 'x, -y, z-1/2'
 
_cell_length_a                    12.8658(4)
_cell_length_b                    17.5516(5)
_cell_length_c                    13.0107(5)
_cell_angle_alpha                 90
_cell_angle_beta                  96.514(3)
_cell_angle_gamma                 90
_cell_volume                      2919.05(17)
_cell_formula_units_Z             5
_cell_measurement_temperature     150(2)
_cell_measurement_reflns_used     ?
_cell_measurement_theta_min       ?
_cell_measurement_theta_max       ?
 
_exptl_crystal_description        ?
_exptl_crystal_colour             ?
_exptl_crystal_density_meas       ?
_exptl_crystal_density_method     ?
_exptl_crystal_density_diffrn     1.370          
_exptl_crystal_F_000              1224
_exptl_transmission_factor_min    ?
_exptl_transmission_factor_max    ?
_exptl_crystal_size_max           ?
_exptl_crystal_size_mid           ?
_exptl_crystal_size_min           ?
_exptl_absorpt_coefficient_mu     0.958
_shelx_estimated_absorpt_T_min    ?
_shelx_estimated_absorpt_T_max    ?
_exptl_absorpt_correction_type    ?
_exptl_absorpt_correction_T_min   ?
_exptl_absorpt_correction_T_max   ?
_exptl_absorpt_process_details    ?
_exptl_absorpt_special_details    ?
_diffrn_ambient_temperature       150(2)
_diffrn_radiation_wavelength      0.71073
_diffrn_radiation_type            MoK\a
_diffrn_source                    ?
_diffrn_measurement_device_type   ?
_diffrn_measurement_method        ?
_diffrn_detector_area_resol_mean  ?
_diffrn_reflns_number             23855
_diffrn_reflns_av_unetI/netI      0.0242
_diffrn_reflns_av_R_equivalents   0.0233
_diffrn_reflns_limit_h_min        -13
_diffrn_reflns_limit_h_max        16
_diffrn_reflns_limit_k_min        -21
_diffrn_reflns_limit_k_max        18
_diffrn_reflns_limit_l_min        -12
_diffrn_reflns_limit_l_max        16
_diffrn_reflns_theta_min          1.957
_diffrn_reflns_theta_max          28.935
_diffrn_reflns_theta_full         25.242
_diffrn_measured_fraction_theta_max   0.844
_diffrn_measured_fraction_theta_full  1.000
_diffrn_reflns_Laue_measured_fraction_max    0.844
_diffrn_reflns_Laue_measured_fraction_full   1.000
_diffrn_reflns_point_group_measured_fraction_max   0.844
_diffrn_reflns_point_group_measured_fraction_full  1.000
_reflns_number_total              6530
_reflns_number_gt                 5493
_reflns_threshold_expression      'I > 2\s(I)'
_reflns_Friedel_coverage          0.000
_reflns_Friedel_fraction_max      .
_reflns_Friedel_fraction_full     .
 
_reflns_special_details
;
 Reflections were merged by SHELXL according to the crystal
 class for the calculation of statistics and refinement.
 
 Structure factors included contributions from the .fab file.
 
 _reflns_Friedel_fraction is defined as the number of unique
 Friedel pairs measured divided by the number that would be
 possible theoretically, ignoring centric projections and
 systematic absences.
;
 
_computing_data_collection        ?
_computing_cell_refinement        ?
_computing_data_reduction         ?
_computing_structure_solution     'SHELXT 2018/2 (Sheldrick, 2018)'
_computing_structure_refinement 'SHELXL-2018/3 (Sheldrick, 2018)'
_computing_molecular_graphics     ?
_computing_publication_material   ?
_refine_special_details           ?
_refine_ls_structure_factor_coef  Fsqd
_refine_ls_matrix_type            full
_refine_ls_weighting_scheme       calc
_refine_ls_weighting_details
'w=1/[\s^2^(Fo^2^)+(0.0469P)^2^+0.7904P] where P=(Fo^2^+2Fc^2^)/3'
_atom_sites_solution_primary      ?
_atom_sites_solution_secondary    ?
_atom_sites_solution_hydrogens    geom
_refine_ls_hydrogen_treatment     constr
_refine_ls_extinction_method      none
_refine_ls_extinction_coef        .
_refine_ls_number_reflns          6530
_refine_ls_number_parameters      425
_refine_ls_number_restraints      31
_refine_ls_R_factor_all           0.0661
_refine_ls_R_factor_gt            0.0557
_refine_ls_wR_factor_ref          0.1833
_refine_ls_wR_factor_gt           0.1812
_refine_ls_goodness_of_fit_ref    2.263
_refine_ls_restrained_S_all       2.259
_refine_ls_shift/su_max           0.772
_refine_ls_shift/su_mean          0.037
 
loop_
 _atom_site_label
 _atom_site_type_symbol
 _atom_site_fract_x
 _atom_site_fract_y
 _atom_site_fract_z
 _atom_site_U_iso_or_equiv
 _atom_site_adp_type
 _atom_site_occupancy
 _atom_site_site_symmetry_order  
 _atom_site_calc_flag
 _atom_site_refinement_flags_posn
 _atom_site_refinement_flags_adp
 _atom_site_refinement_flags_occupancy
 _atom_site_disorder_assembly
 _atom_site_disorder_group
Zn1 Zn 0.06897(3) 0.74285(2) 0.66651(3) 0.02236(15) Uani 1 1 d . . . . .
S1 S 0.21211(9) 1.07396(6) 0.46294(9) 0.0372(3) Uani 1 1 d . . . . .
O2 O 0.0536(2) -0.14130(14) 0.6883(2) 0.0300(6) Uani 1 1 d . . . . .
O3 O 0.0467(3) 0.63031(17) 0.6825(3) 0.0488(8) Uani 1 1 d . . . . .
O4 O 0.1847(3) 0.73949(17) 0.7845(3) 0.0411(8) Uani 1 1 d . . . . .
O5 O 0.0785(3) 0.74649(19) 0.9087(3) 0.0509(9) Uani 1 1 d . . . . .
N1 N 0.2715(3) 1.08257(19) 0.3622(3) 0.0336(8) Uani 1 1 d . . . . .
N2 N 0.3780(3) 1.0481(2) 0.1795(3) 0.0341(8) Uani 1 1 d . . . . .
N3 N 0.4399(3) 1.0274(2) 0.1060(3) 0.0401(9) Uani 1 1 d . . . . .
N4 N 0.4133(3) 1.1550(2) 0.1043(3) 0.0456(10) Uani 1 1 d . . . . .
N5 N 0.2022(3) 0.98255(19) 0.4700(3) 0.0308(7) Uani 1 1 d . . . . .
N6 N 0.2243(2) 0.81729(17) 0.4278(2) 0.0260(7) Uani 1 1 d . . . . .
N7 N 0.1518(3) 0.75478(17) 0.5443(3) 0.0277(7) Uani 1 1 d . . . . .
N8 N 0.2540(3) 0.74365(18) 0.4166(3) 0.0345(8) Uani 1 1 d . . . . .
C5 C 0.4584(3) 1.0946(3) 0.0652(4) 0.0451(12) Uani 1 1 d . . . . .
H5 H 0.501463 1.099486 0.010895 0.054 Uiso 1 1 calc R U . . .
C6 C 0.3630(4) 1.1240(3) 0.1764(4) 0.0418(11) Uani 1 1 d . . . . .
H6 H 0.321949 1.151334 0.220197 0.050 Uiso 1 1 calc R U . . .
C9 C 0.3380(3) 0.9912(2) 0.2411(3) 0.0297(8) Uani 1 1 d . . . . .
C10 C 0.2864(3) 1.0117(2) 0.3280(3) 0.0287(8) Uani 1 1 d . . . . .
C11 C 0.2472(3) 0.9540(2) 0.3902(3) 0.0265(8) Uani 1 1 d . . . . .
C12 C 0.2606(3) 0.8759(2) 0.3659(3) 0.0274(8) Uani 1 1 d . . . . .
C13 C 0.3110(3) 0.8586(2) 0.2833(3) 0.0322(9) Uani 1 1 d . . . . .
H13 H 0.320730 0.806592 0.266258 0.039 Uiso 1 1 calc R U . . .
C14 C 0.3500(3) 0.9165(2) 0.2212(3) 0.0340(9) Uani 1 1 d . . . . .
H14 H 0.385453 0.902022 0.164079 0.041 Uiso 1 1 calc R U . . .
C15 C 0.1628(3) 0.8229(2) 0.5041(3) 0.0271(8) Uani 1 1 d . . . . .
H15 H 0.132172 0.868560 0.525717 0.033 Uiso 1 1 calc R U . . .
C16 C 0.2089(3) 0.7082(2) 0.4881(3) 0.0336(9) Uani 1 1 d . . . . .
H16 H 0.215374 0.654894 0.499959 0.040 Uiso 1 1 calc R U . . .
C17 C 0.000000 0.5977(3) 0.750000 0.0363(14) Uani 1 2 d S T P . .
C24 C 0.000000 -0.1086(3) 0.750000 0.0222(10) Uani 1 2 d S T P . .
C25 C 0.1667(3) 0.7380(2) 0.8768(4) 0.0358(10) Uani 1 1 d . . . . .
C26 C 0.2554(3) 0.7245(2) 0.9585(3) 0.0344(9) Uani 1 1 d . . . . .
C27 C 0.3585(4) 0.7341(3) 0.9395(4) 0.0411(10) Uani 1 1 d . . . . .
H27 H 0.374198 0.748425 0.872630 0.049 Uiso 1 1 calc R U . . .
C28 C 0.4394(3) 0.7224(3) 1.0196(4) 0.0412(11) Uani 1 1 d . . . . .
H28 H 0.509847 0.730119 1.006825 0.049 Uiso 1 1 calc R U . . .
C29 C 0.4185(3) 0.6998(2) 1.1167(3) 0.0348(9) Uani 1 1 d . . . . .
C30 C 0.3143(3) 0.6880(3) 1.1343(4) 0.0420(11) Uani 1 1 d . . . . .
H30 H 0.298436 0.670819 1.200001 0.050 Uiso 1 1 calc R U . . .
C31 C 0.2350(3) 0.7012(3) 1.0562(4) 0.0432(11) Uani 1 1 d . . . . .
H31 H 0.164481 0.694311 1.069499 0.052 Uiso 1 1 calc R U . . .
C32 C 0.5048(3) 0.6950(2) 1.1998(3) 0.0376(10) Uani 1 1 d . . . . .
H32 H 0.573609 0.691476 1.180224 0.045 Uiso 1 1 calc R U . . .
C1 C 0.0092(8) 0.2200(4) 0.7215(7) 0.032(2) Uani 0.5 1 d D . P A -1
H1 H 0.024151 0.239422 0.656648 0.039 Uiso 0.5 1 calc R U P A -1
C2 C 0.044(3) 0.0916(11) 0.659(2) 0.032(4) Uani 0.5 1 d D . P A -1
H2 H 0.072621 0.112529 0.600589 0.038 Uiso 0.5 1 calc R U P A -1
C3 C -0.003(6) 0.5128(5) 0.7644(18) 0.034(3) Uani 0.5 1 d D . P A -1
C4 C -0.0068(7) 0.2701(4) 0.7937(7) 0.0335(18) Uani 0.5 1 d D . P A -1
H4 H -0.022712 0.250894 0.858396 0.040 Uiso 0.5 1 calc R U P A -1
C7 C 0.0102(10) 0.3891(5) 0.6883(9) 0.048(3) Uani 0.5 1 d D . P A -1
H7 H 0.016813 0.358804 0.628968 0.057 Uiso 0.5 1 calc R U P A -1
C8 C -0.0121(10) 0.4002(5) 0.8667(8) 0.046(3) Uani 0.5 1 d D . P A -1
H8 H -0.018421 0.377362 0.931894 0.055 Uiso 0.5 1 calc R U P A -1
C18 C 0.009(2) -0.0225(3) 0.7615(15) 0.016(3) Uani 0.5 1 d D . P A -1
C19 C 0.0126(16) 0.4677(6) 0.6807(10) 0.046(4) Uani 0.5 1 d D . P A -1
H19 H 0.024785 0.490724 0.617111 0.055 Uiso 0.5 1 calc R U P A -1
C20 C -0.0132(15) 0.4788(6) 0.8582(10) 0.040(3) Uani 0.5 1 d D . P A -1
H20 H -0.021255 0.509330 0.916990 0.048 Uiso 0.5 1 calc R U P A -1
C21 C -0.0019(8) 0.3543(5) 0.7816(6) 0.031(3) Uani 0.5 1 d D . P A -1
C22 C -0.045(2) 0.0224(11) 0.8252(17) 0.030(7) Uani 0.5 1 d D . P A -1
H22 H -0.083781 0.000715 0.875724 0.036 Uiso 0.5 1 calc R U P A -1
C23 C -0.039(3) 0.1007(11) 0.8120(18) 0.029(4) Uani 0.5 1 d D . P A -1
H23 H -0.068434 0.132204 0.860712 0.035 Uiso 0.5 1 calc R U P A -1
C33 C 0.006(3) 0.1364(4) 0.733(2) 0.027(5) Uani 0.5 1 d D . P A -1
C34 C 0.038(2) 0.0136(12) 0.6751(18) 0.039(7) Uani 0.5 1 d D . P A -1
H34 H 0.056164 -0.018430 0.620931 0.047 Uiso 0.5 1 calc R U P A -1
 
loop_
 _atom_site_aniso_label
 _atom_site_aniso_U_11
 _atom_site_aniso_U_22
 _atom_site_aniso_U_33
 _atom_site_aniso_U_23
 _atom_site_aniso_U_13
 _atom_site_aniso_U_12
Zn1 0.0264(2) 0.0159(2) 0.0254(3) 0.00199(16) 0.00601(17) -0.00156(14)
S1 0.0533(7) 0.0239(5) 0.0363(6) 0.0027(4) 0.0139(5) -0.0023(4)
O2 0.0387(15) 0.0159(13) 0.0380(17) 0.0011(11) 0.0154(12) 0.0023(10)
O3 0.074(2) 0.0185(15) 0.057(2) -0.0013(14) 0.0199(18) -0.0056(14)
O4 0.0400(17) 0.0404(18) 0.0394(19) 0.0076(14) -0.0105(14) -0.0001(12)
O5 0.0351(19) 0.061(2) 0.054(2) -0.0054(16) -0.0097(16) 0.0098(14)
N1 0.0405(19) 0.0298(19) 0.0307(19) 0.0053(15) 0.0056(15) -0.0051(14)
N2 0.0339(18) 0.044(2) 0.0254(19) 0.0098(15) 0.0055(14) -0.0062(14)
N3 0.0318(19) 0.054(2) 0.036(2) 0.0153(17) 0.0103(15) -0.0007(15)
N4 0.049(2) 0.049(2) 0.040(2) 0.0182(19) 0.0096(18) -0.0087(18)
N5 0.0359(18) 0.0269(18) 0.0308(19) 0.0030(14) 0.0086(14) -0.0010(13)
N6 0.0338(17) 0.0213(16) 0.0240(17) 0.0025(13) 0.0086(13) 0.0000(12)
N7 0.0343(18) 0.0222(17) 0.0279(19) 0.0019(13) 0.0093(14) 0.0003(12)
N8 0.044(2) 0.0256(18) 0.037(2) 0.0001(14) 0.0161(16) 0.0030(13)
C5 0.032(2) 0.063(3) 0.041(3) 0.022(2) 0.0057(19) -0.009(2)
C6 0.050(3) 0.041(3) 0.035(3) 0.011(2) 0.006(2) -0.0090(19)
C9 0.0278(19) 0.034(2) 0.026(2) 0.0075(17) 0.0005(15) -0.0054(15)
C10 0.0285(19) 0.031(2) 0.026(2) 0.0044(16) -0.0009(15) -0.0028(14)
C11 0.0283(19) 0.027(2) 0.024(2) 0.0023(15) 0.0017(15) -0.0033(14)
C12 0.0271(19) 0.030(2) 0.025(2) 0.0052(16) 0.0048(15) -0.0030(14)
C13 0.037(2) 0.032(2) 0.029(2) 0.0035(17) 0.0093(17) 0.0008(16)
C14 0.035(2) 0.040(2) 0.028(2) 0.0031(18) 0.0093(16) -0.0018(17)
C15 0.0302(19) 0.0212(19) 0.031(2) 0.0028(15) 0.0087(16) 0.0003(13)
C16 0.044(2) 0.025(2) 0.034(2) 0.0033(17) 0.0127(18) 0.0038(16)
C17 0.044(3) 0.017(3) 0.047(4) 0.000 0.004(3) 0.000
C24 0.023(2) 0.014(2) 0.030(3) 0.000 0.002(2) 0.000
C25 0.036(2) 0.021(2) 0.048(3) -0.0015(18) -0.007(2) 0.0004(15)
C26 0.034(2) 0.028(2) 0.039(3) 0.0000(18) -0.0041(18) 0.0000(16)
C27 0.039(2) 0.046(3) 0.037(3) 0.013(2) 0.0004(19) -0.0034(18)
C28 0.030(2) 0.050(3) 0.043(3) 0.011(2) 0.0013(19) -0.0049(18)
C29 0.032(2) 0.034(2) 0.036(2) 0.0018(18) -0.0026(17) -0.0046(16)
C30 0.036(2) 0.055(3) 0.035(3) 0.002(2) 0.0034(19) -0.0049(19)
C31 0.031(2) 0.055(3) 0.043(3) -0.003(2) 0.0024(19) -0.0045(19)
C32 0.033(2) 0.040(2) 0.039(2) 0.0024(19) 0.0013(18) -0.0035(17)
C1 0.037(5) 0.009(3) 0.053(8) 0.005(3) 0.013(5) 0.000(3)
C2 0.037(6) 0.018(7) 0.043(13) -0.003(6) 0.012(9) 0.001(5)
C3 0.044(7) 0.016(3) 0.047(12) -0.006(6) 0.020(17) 0.003(7)
C4 0.041(5) 0.018(4) 0.043(5) 0.003(3) 0.015(4) 0.002(3)
C7 0.082(8) 0.017(6) 0.051(9) -0.006(7) 0.040(8) 0.002(5)
C8 0.070(7) 0.029(6) 0.040(7) 0.003(5) 0.016(6) -0.001(4)
C18 0.012(8) 0.014(3) 0.018(10) 0.004(3) -0.016(7) -0.002(4)
C19 0.087(8) 0.019(6) 0.040(9) 0.006(6) 0.042(9) 0.000(5)
C20 0.073(7) 0.019(5) 0.030(8) 0.000(5) 0.020(7) 0.006(5)
C21 0.045(4) 0.012(4) 0.039(7) 0.001(3) 0.010(6) 0.006(4)
C22 0.028(8) 0.029(13) 0.035(10) -0.022(8) 0.011(7) 0.004(7)
C23 0.035(6) 0.008(5) 0.046(14) 0.000(7) 0.012(9) 0.001(5)
C33 0.025(8) 0.011(3) 0.048(18) 0.001(4) 0.012(10) -0.002(4)
C34 0.034(9) 0.002(5) 0.081(16) -0.003(7) 0.002(8) -0.003(5)
 
_geom_special_details
;
 All esds (except the esd in the dihedral angle between two l.s. planes)
 are estimated using the full covariance matrix.  The cell esds are taken
 into account individually in the estimation of esds in distances, angles
 and torsion angles; correlations between esds in cell parameters are only
 used when they are defined by crystal symmetry.  An approximate (isotropic)
 treatment of cell esds is used for estimating esds involving l.s. planes.
;
 
loop_
 _geom_bond_atom_site_label_1
 _geom_bond_atom_site_label_2
 _geom_bond_distance
 _geom_bond_site_symmetry_2
 _geom_bond_publ_flag
Zn1 O3 2.010(3) . ?
Zn1 O4 2.014(3) . ?
Zn1 N7 2.024(3) . ?
Zn1 O5 2.035(3) 2_556 ?
Zn1 O2 2.066(3) 1_565 ?
Zn1 Zn1 2.9570(9) 2_556 ?
S1 N1 1.598(4) . ?
S1 N5 1.613(3) . ?
O2 C24 1.255(3) . ?
O3 C17 1.257(4) . ?
O4 C25 1.249(6) . ?
O5 C25 1.261(6) . ?
N1 C10 1.342(5) . ?
N2 C6 1.346(6) . ?
N2 N3 1.361(5) . ?
N2 C9 1.413(5) . ?
N3 C5 1.325(6) . ?
N4 C6 1.317(6) . ?
N4 C5 1.336(7) . ?
N5 C11 1.343(5) . ?
N6 C15 1.342(5) . ?
N6 N8 1.360(4) . ?
N6 C12 1.418(5) . ?
N7 C15 1.319(5) . ?
N7 C16 1.365(5) . ?
N8 C16 1.309(5) . ?
C5 H5 0.9500 . ?
C6 H6 0.9500 . ?
C9 C14 1.349(6) . ?
C9 C10 1.421(6) . ?
C10 C11 1.424(5) . ?
C11 C12 1.420(5) . ?
C12 C13 1.352(6) . ?
C13 C14 1.424(6) . ?
C13 H13 0.9500 . ?
C14 H14 0.9500 . ?
C15 H15 0.9500 . ?
C16 H16 0.9500 . ?
C17 C3 1.502(9) . ?
C24 C18 1.520(8) . ?
C25 C26 1.488(6) . ?
C26 C31 1.389(6) . ?
C26 C27 1.386(6) . ?
C27 C28 1.402(6) . ?
C27 H27 0.9500 . ?
C28 C29 1.378(6) . ?
C28 H28 0.9500 . ?
C29 C30 1.401(6) . ?
C29 C32 1.463(6) . ?
C30 C31 1.375(6) . ?
C30 H30 0.9500 . ?
C31 H31 0.9500 . ?
C32 C32 1.326(9) 2_657 ?
C32 H32 0.9500 . ?
C1 C4 1.319(12) . ?
C1 C33 1.477(9) . ?
C1 H1 0.9500 . ?
C2 C33 1.383(8) . ?
C2 C34 1.389(8) . ?
C2 H2 0.9500 . ?
C3 C20 1.379(8) . ?
C3 C19 1.378(8) . ?
C4 C21 1.489(9) . ?
C4 H4 0.9500 . ?
C7 C21 1.383(8) . ?
C7 C19 1.382(8) . ?
C7 H7 0.9500 . ?
C8 C20 1.383(8) . ?
C8 C21 1.388(8) . ?
C8 H8 0.9500 . ?
C18 C22 1.383(8) . ?
C18 C34 1.381(8) . ?
C19 H19 0.9500 . ?
C20 H20 0.9500 . ?
C22 C23 1.388(8) . ?
C22 H22 0.9500 . ?
C23 C33 1.384(8) . ?
C23 H23 0.9500 . ?
C34 H34 0.9500 . ?
 
loop_
 _geom_angle_atom_site_label_1
 _geom_angle_atom_site_label_2
 _geom_angle_atom_site_label_3
 _geom_angle
 _geom_angle_site_symmetry_1
 _geom_angle_site_symmetry_3
 _geom_angle_publ_flag
O3 Zn1 O4 89.68(13) . . ?
O3 Zn1 N7 106.08(13) . . ?
O4 Zn1 N7 101.09(14) . . ?
O3 Zn1 O5 86.80(14) . 2_556 ?
O4 Zn1 O5 159.33(16) . 2_556 ?
N7 Zn1 O5 99.46(15) . 2_556 ?
O3 Zn1 O2 159.41(14) . 1_565 ?
O4 Zn1 O2 89.91(12) . 1_565 ?
N7 Zn1 O2 94.19(11) . 1_565 ?
O5 Zn1 O2 86.35(12) 2_556 1_565 ?
O3 Zn1 Zn1 79.60(10) . 2_556 ?
O4 Zn1 Zn1 83.89(11) . 2_556 ?
N7 Zn1 Zn1 172.33(9) . 2_556 ?
O5 Zn1 Zn1 75.44(12) 2_556 2_556 ?
O2 Zn1 Zn1 79.89(8) 1_565 2_556 ?
N1 S1 N5 100.90(18) . . ?
C24 O2 Zn1 127.3(3) . 1_545 ?
C17 O3 Zn1 127.2(3) . . ?
C25 O4 Zn1 122.1(3) . . ?
C25 O5 Zn1 131.5(3) . 2_556 ?
C10 N1 S1 106.5(3) . . ?
C6 N2 N3 109.6(3) . . ?
C6 N2 C9 131.0(4) . . ?
N3 N2 C9 119.3(4) . . ?
C5 N3 N2 101.0(4) . . ?
C6 N4 C5 102.3(4) . . ?
C11 N5 S1 106.5(3) . . ?
C15 N6 N8 110.2(3) . . ?
C15 N6 C12 128.8(3) . . ?
N8 N6 C12 121.0(3) . . ?
C15 N7 C16 104.0(3) . . ?
C15 N7 Zn1 119.7(3) . . ?
C16 N7 Zn1 136.2(3) . . ?
C16 N8 N6 102.9(3) . . ?
N3 C5 N4 116.6(4) . . ?
N3 C5 H5 121.7 . . ?
N4 C5 H5 121.7 . . ?
N4 C6 N2 110.5(4) . . ?
N4 C6 H6 124.8 . . ?
N2 C6 H6 124.8 . . ?
C14 C9 N2 121.5(4) . . ?
C14 C9 C10 118.2(4) . . ?
N2 C9 C10 120.3(4) . . ?
N1 C10 C9 126.6(4) . . ?
N1 C10 C11 113.5(4) . . ?
C9 C10 C11 119.9(4) . . ?
N5 C11 C12 127.3(3) . . ?
N5 C11 C10 112.6(3) . . ?
C12 C11 C10 120.1(4) . . ?
C13 C12 N6 120.4(4) . . ?
C13 C12 C11 118.4(4) . . ?
N6 C12 C11 121.2(3) . . ?
C12 C13 C14 121.4(4) . . ?
C12 C13 H13 119.3 . . ?
C14 C13 H13 119.3 . . ?
C9 C14 C13 122.0(4) . . ?
C9 C14 H14 119.0 . . ?
C13 C14 H14 119.0 . . ?
N7 C15 N6 109.0(3) . . ?
N7 C15 H15 125.5 . . ?
N6 C15 H15 125.5 . . ?
N8 C16 N7 113.9(4) . . ?
N8 C16 H16 123.1 . . ?
N7 C16 H16 123.1 . . ?
O3 C17 O3 125.8(5) . 2_556 ?
O3 C17 C3 123.9(14) . . ?
O3 C17 C3 110.2(13) 2_556 . ?
O2 C24 O2 125.5(5) 2_556 . ?
O2 C24 C18 115.5(11) 2_556 . ?
O2 C24 C18 118.6(11) . . ?
O4 C25 O5 125.9(4) . . ?
O4 C25 C26 118.7(4) . . ?
O5 C25 C26 115.4(4) . . ?
C31 C26 C27 118.9(4) . . ?
C31 C26 C25 119.4(4) . . ?
C27 C26 C25 121.7(4) . . ?
C26 C27 C28 119.6(4) . . ?
C26 C27 H27 120.2 . . ?
C28 C27 H27 120.2 . . ?
C29 C28 C27 121.1(4) . . ?
C29 C28 H28 119.4 . . ?
C27 C28 H28 119.4 . . ?
C28 C29 C30 118.8(4) . . ?
C28 C29 C32 118.9(4) . . ?
C30 C29 C32 122.1(4) . . ?
C31 C30 C29 119.8(4) . . ?
C31 C30 H30 120.1 . . ?
C29 C30 H30 120.1 . . ?
C30 C31 C26 121.6(4) . . ?
C30 C31 H31 119.2 . . ?
C26 C31 H31 119.2 . . ?
C32 C32 C29 125.4(5) 2_657 . ?
C32 C32 H32 117.3 2_657 . ?
C29 C32 H32 117.3 . . ?
C4 C1 C33 125.5(11) . . ?
C4 C1 H1 117.3 . . ?
C33 C1 H1 117.2 . . ?
C33 C2 C34 115.0(17) . . ?
C33 C2 H2 122.8 . . ?
C34 C2 H2 122.2 . . ?
C20 C3 C19 119.1(10) . . ?
C20 C3 C17 123.1(10) . . ?
C19 C3 C17 117.7(10) . . ?
C1 C4 C21 125.0(8) . . ?
C1 C4 H4 117.5 . . ?
C21 C4 H4 117.5 . . ?
C21 C7 C19 120.6(9) . . ?
C21 C7 H7 119.7 . . ?
C19 C7 H7 119.7 . . ?
C20 C8 C21 121.0(9) . . ?
C20 C8 H8 119.5 . . ?
C21 C8 H8 119.5 . . ?
C22 C18 C34 115.3(7) . . ?
C22 C18 C24 126.2(18) . . ?
C34 C18 C24 113.5(16) . . ?
C3 C19 C7 120.7(10) . . ?
C3 C19 H19 119.7 . . ?
C7 C19 H19 119.7 . . ?
C3 C20 C8 120.1(10) . . ?
C3 C20 H20 119.9 . . ?
C8 C20 H20 119.9 . . ?
C7 C21 C8 118.3(8) . . ?
C7 C21 C4 122.8(7) . . ?
C8 C21 C4 118.9(8) . . ?
C18 C22 C23 117.0(17) . . ?
C18 C22 H22 121.8 . . ?
C23 C22 H22 121.2 . . ?
C33 C23 C22 124.9(16) . . ?
C33 C23 H23 117.2 . . ?
C22 C23 H23 117.8 . . ?
C2 C33 C23 118.3(7) . . ?
C2 C33 C1 118.5(14) . . ?
C23 C33 C1 123.1(15) . . ?
C18 C34 C2 127.1(17) . . ?
C18 C34 H34 116.2 . . ?
C2 C34 H34 116.7 . . ?
 
_refine_diff_density_max    3.193
_refine_diff_density_min   -0.402
_refine_diff_density_rms    0.130

_shelx_res_file
;
TITL pvl507_autored_a.res in P2/c
    pvl507.res
    created by SHELXL-2018/3 at 15:39:40 on 21-Jun-2023
REM Old TITL pvl507_autored in P2/c
REM SHELXT solution in P2/c: R1 0.135, Rweak 0.007, Alpha 0.049
REM <I/s>   0.731 for  200 systematic absences,  Orientation as input
REM Formula found by SHELXT:  C55 N18 O4 S2 Zn2
CELL  0.71073  12.8658  17.5516  13.0107   90.000   96.514   90.000
ZERR    5.000   0.0004   0.0005   0.0005    0.000    0.003    0.000
LATT  1
SYMM -X, Y, 1/2-Z
SFAC C H N O S ZN
UNIT 104 64 32 16 4 4
ACTA
LIST 4 ! automatically inserted. Change 6 to 4 for CHECKCIF!!
SADI 0.01 C21 C7 C21 C8 C8 C20 C7 C19 C3 C19 C3 C20
SADI 0.01 C33 C23 C33 C2 C2 C34 C23 C22 C18 C22 C18 C34
SADI 0.01 C21 C4 C1 C33
TEMP -123
L.S. 5 0   46
BOND $H
OMIT 0
FMAP 2
PLAN 20
ABIN
WGHT    0.046900    0.790400
FVAR       0.16042
ZN1   6    0.068975    0.742852    0.666515    11.00000    0.02642    0.01594 =
         0.02543    0.00199    0.00601   -0.00156
S1    5    0.212105    1.073959    0.462942    11.00000    0.05334    0.02393 =
         0.03634    0.00270    0.01387   -0.00234
O2    4    0.053582   -0.141301    0.688280    11.00000    0.03875    0.01586 =
         0.03802    0.00114    0.01538    0.00235
O3    4    0.046669    0.630308    0.682464    11.00000    0.07411    0.01850 =
         0.05676   -0.00128    0.01985   -0.00555
O4    4    0.184681    0.739487    0.784474    11.00000    0.04001    0.04038 =
         0.03940    0.00765   -0.01046   -0.00011
O5    4    0.078501    0.746485    0.908703    11.00000    0.03511    0.06063 =
         0.05352   -0.00540   -0.00971    0.00977
N1    3    0.271461    1.082570    0.362151    11.00000    0.04053    0.02983 =
         0.03068    0.00529    0.00557   -0.00506
N2    3    0.378020    1.048086    0.179527    11.00000    0.03387    0.04359 =
         0.02541    0.00983    0.00553   -0.00621
N3    3    0.439862    1.027436    0.105961    11.00000    0.03179    0.05396 =
         0.03599    0.01526    0.01032   -0.00069
N4    3    0.413350    1.154974    0.104271    11.00000    0.04874    0.04905 =
         0.04010    0.01820    0.00959   -0.00866
N5    3    0.202223    0.982547    0.470011    11.00000    0.03588    0.02693 =
         0.03081    0.00299    0.00862   -0.00098
N6    3    0.224311    0.817290    0.427752    11.00000    0.03378    0.02127 =
         0.02403    0.00250    0.00861    0.00001
N7    3    0.151823    0.754785    0.544255    11.00000    0.03428    0.02223 =
         0.02794    0.00185    0.00932    0.00031
N8    3    0.254009    0.743650    0.416564    11.00000    0.04364    0.02562 =
         0.03689    0.00009    0.01607    0.00300
C5    1    0.458371    1.094555    0.065177    11.00000    0.03163    0.06339 =
         0.04056    0.02187    0.00573   -0.00942
AFIX  43
H5    2    0.501463    1.099486    0.010895    11.00000   -1.20000
AFIX   0
C6    1    0.363042    1.123967    0.176449    11.00000    0.04980    0.04059 =
         0.03534    0.01082    0.00597   -0.00896
AFIX  43
H6    2    0.321949    1.151334    0.220197    11.00000   -1.20000
AFIX   0
C9    1    0.338005    0.991165    0.241068    11.00000    0.02785    0.03448 =
         0.02606    0.00747    0.00045   -0.00544
C10   1    0.286357    1.011729    0.327953    11.00000    0.02854    0.03052 =
         0.02599    0.00445   -0.00095   -0.00277
C11   1    0.247246    0.953969    0.390151    11.00000    0.02834    0.02710 =
         0.02371    0.00227    0.00172   -0.00328
C12   1    0.260570    0.875931    0.365901    11.00000    0.02711    0.03040 =
         0.02512    0.00519    0.00479   -0.00296
C13   1    0.311039    0.858552    0.283270    11.00000    0.03728    0.03168 =
         0.02900    0.00351    0.00934    0.00079
AFIX  43
H13   2    0.320730    0.806592    0.266258    11.00000   -1.20000
AFIX   0
C14   1    0.349962    0.916458    0.221224    11.00000    0.03547    0.04013 =
         0.02780    0.00308    0.00934   -0.00184
AFIX  43
H14   2    0.385453    0.902022    0.164079    11.00000   -1.20000
AFIX   0
C15   1    0.162832    0.822891    0.504088    11.00000    0.03023    0.02116 =
         0.03115    0.00280    0.00867    0.00026
AFIX  43
H15   2    0.132172    0.868560    0.525717    11.00000   -1.20000
AFIX   0
C16   1    0.208932    0.708185    0.488143    11.00000    0.04364    0.02521 =
         0.03372    0.00332    0.01268    0.00383
AFIX  43
H16   2    0.215374    0.654894    0.499959    11.00000   -1.20000
AFIX   0
C17   1    0.000000    0.597666    0.750000    10.50000    0.04427    0.01708 =
         0.04713    0.00000    0.00393    0.00000
C24   1    0.000000   -0.108578    0.750000    10.50000    0.02298    0.01371 =
         0.02965    0.00000    0.00216    0.00000
C25   1    0.166702    0.737958    0.876768    11.00000    0.03621    0.02070 =
         0.04781   -0.00154   -0.00747    0.00044
C26   1    0.255444    0.724514    0.958527    11.00000    0.03395    0.02846 =
         0.03878   -0.00003   -0.00409    0.00003
C27   1    0.358478    0.734053    0.939547    11.00000    0.03932    0.04579 =
         0.03719    0.01266    0.00041   -0.00344
AFIX  43
H27   2    0.374198    0.748425    0.872630    11.00000   -1.20000
AFIX   0
C28   1    0.439384    0.722374    1.019648    11.00000    0.02972    0.05036 =
         0.04292    0.01114    0.00128   -0.00495
AFIX  43
H28   2    0.509847    0.730119    1.006825    11.00000   -1.20000
AFIX   0
C29   1    0.418454    0.699849    1.116687    11.00000    0.03231    0.03428 =
         0.03619    0.00176   -0.00262   -0.00458
C30   1    0.314272    0.687983    1.134300    11.00000    0.03600    0.05512 =
         0.03460    0.00232    0.00343   -0.00493
AFIX  43
H30   2    0.298436    0.670819    1.200001    11.00000   -1.20000
AFIX   0
C31   1    0.234972    0.701240    1.056249    11.00000    0.03111    0.05479 =
         0.04335   -0.00347    0.00236   -0.00454
AFIX  43
H31   2    0.164481    0.694311    1.069499    11.00000   -1.20000
AFIX   0
C32   1    0.504839    0.694950    1.199793    11.00000    0.03306    0.04005 =
         0.03899    0.00242    0.00126   -0.00355
AFIX  43
H32   2    0.573609    0.691476    1.180224    11.00000   -1.20000
AFIX   0
PART -1 10.5
C1    1    0.009201    0.220042    0.721545    10.50000    0.03677    0.00902 =
         0.05337    0.00518    0.01343    0.00000
AFIX  43
H1    2    0.024151    0.239422    0.656648    10.50000   -1.20000
AFIX   0
C2    1    0.044199    0.091572    0.658658    10.50000    0.03687    0.01750 =
         0.04302   -0.00281    0.01173    0.00117
AFIX  43
H2    2    0.072621    0.112529    0.600589    10.50000   -1.20000
AFIX   0
C3    1   -0.002532    0.512815    0.764379    10.50000    0.04394    0.01593 =
         0.04688   -0.00551    0.02024    0.00252
C4    1   -0.006805    0.270076    0.793716    10.50000    0.04134    0.01790 =
         0.04340    0.00310    0.01467    0.00171
AFIX  43
H4    2   -0.022712    0.250894    0.858396    10.50000   -1.20000
AFIX   0
C7    1    0.010157    0.389135    0.688342    10.50000    0.08214    0.01726 =
         0.05077   -0.00562    0.03992    0.00174
AFIX  43
H7    2    0.016813    0.358804    0.628968    10.50000   -1.20000
AFIX   0
C8    1   -0.012078    0.400236    0.866724    10.50000    0.07045    0.02865 =
         0.03958    0.00289    0.01573   -0.00078
AFIX  43
H8    2   -0.018421    0.377362    0.931894    10.50000   -1.20000
AFIX   0
C18   1    0.008581   -0.022546    0.761479    10.50000    0.01247    0.01439 =
         0.01763    0.00442   -0.01585   -0.00210
C19   1    0.012579    0.467655    0.680697    10.50000    0.08721    0.01908 =
         0.04016    0.00603    0.04242    0.00042
AFIX  43
H19   2    0.024785    0.490724    0.617111    10.50000   -1.20000
AFIX   0
C20   1   -0.013167    0.478766    0.858162    10.50000    0.07314    0.01878 =
         0.03023    0.00017    0.02028    0.00584
AFIX  43
H20   2   -0.021255    0.509330    0.916990    10.50000   -1.20000
AFIX   0
C21   1   -0.001867    0.354311    0.781636    10.50000    0.04462    0.01188 =
         0.03914    0.00148    0.01032    0.00602
C22   1   -0.044900    0.022438    0.825191    10.50000    0.02846    0.02851 =
         0.03513   -0.02179    0.01097    0.00376
AFIX  43
H22   2   -0.083781    0.000715    0.875724    10.50000   -1.20000
AFIX   0
C23   1   -0.039207    0.100743    0.811975    10.50000    0.03492    0.00793 =
         0.04583   -0.00031    0.01246    0.00083
AFIX  43
H23   2   -0.068434    0.132204    0.860712    10.50000   -1.20000
AFIX   0
C33   1    0.005830    0.136423    0.733162    10.50000    0.02513    0.01072 =
         0.04762    0.00097    0.01182   -0.00168
C34   1    0.038081    0.013555    0.675064    10.50000    0.03395    0.00177 =
         0.08134   -0.00344    0.00194   -0.00337
AFIX  43
H34   2    0.056164   -0.018430    0.620931    10.50000   -1.20000
PART 0
AFIX   0
HKLF 4




REM  pvl507_autored_a.res in P2/c
REM wR2 = 0.1833, GooF = S = 2.263, Restrained GooF = 2.259 for all data
REM R1 = 0.0557 for 5493 Fo > 4sig(Fo) and 0.0661 for all 6530 data
REM 425 parameters refined using 31 restraints

END

WGHT      0.1186      4.5200

REM Highest difference peak  3.193,  deepest hole -0.402,  1-sigma level  0.130
Q1    1   0.2655  0.5297  0.5207  11.00000  0.05    3.19
Q2    1   0.2581  0.4927  0.4496  11.00000  0.05    1.81
Q3    1   0.2684  0.5164  0.6170  11.00000  0.05    0.91
Q4    1   0.0135  0.7418  0.6267  11.00000  0.05    0.78
Q5    1   0.2301  0.9789  0.4895  11.00000  0.05    0.67
Q6    1   0.0000 -0.0606  0.7500  10.50000  0.05    0.44
Q7    1   0.2547  0.9592  0.4272  11.00000  0.05    0.42
Q8    1   0.2127  1.0277  0.4730  11.00000  0.05    0.42
Q9    1   0.0000  0.1754  0.7500  10.50000  0.05    0.36
Q10   1   0.2941  1.0329  0.3399  11.00000  0.05    0.36
Q11   1   0.0076 -0.1500  0.6735  11.00000  0.05    0.35
Q12   1   0.1276  0.7424  0.7287  11.00000  0.05    0.35
Q13   1   0.0642 -0.1480  0.7305  11.00000  0.05    0.35
Q14   1   0.3953  0.7970  1.0750  11.00000  0.05    0.34
Q15   1   0.0668  0.4901  0.6486  11.00000  0.05    0.33
Q16   1   0.0439 -0.1693  0.6700  11.00000  0.05    0.32
Q17   1   0.0625  0.0033  0.6555  11.00000  0.05    0.31
Q18   1   0.2408  0.8496  0.3926  11.00000  0.05    0.31
Q19   1   0.1695  1.0756  0.4554  11.00000  0.05    0.31
Q20   1   0.2392  0.9165  0.3750  11.00000  0.05    0.30
;
_shelx_res_checksum   77672

_shelx_hkl_file
;
   0   0   2  226.76    3.08
   0   0  -2  226.11    3.08
   0   0  -2  227.79    3.04
   0   0   2  214.97    3.05
   0   0  -3   -0.09    0.23
   0   0  -3    0.13    0.19
   0   0   3    0.39    0.26
   0   0  -4   26.84    0.83
   0   0  -4   28.15    0.81
   0   0   4   24.06    0.80
   0   0  -5   -0.15    0.27
   0   0  -5    0.03    0.24
   0   0   5   -0.19    0.31
   0   0  -6  229.49    3.85
   0   0  -6  231.87    3.75
   0   0   6  233.38    3.75
   0   0  -7   -0.17    0.27
   0   0  -7   -0.39    0.33
   0   0   7   -0.57    0.40
   0   0  -8   65.13    1.83
   0   0  -8   64.69    1.75
   0   0   8   61.12    1.71
   0   0  -9   -0.13    0.33
   0   0  -9    0.01    0.32
   0   0   9   -0.08    0.39
   0   0  10   18.20    1.06
   0   0  11   -0.36    0.51
   0   0  12    8.93    0.87
   0   0  13    1.06    0.57
   0   0  14   29.61    1.62
   0   0  15    0.02    0.55
   0   0  16    1.83    0.72
   0   1  -1  321.65    4.10
   0  -1   2    0.47    0.20
   0   1  -2   -0.06    0.17
   0   1   2    0.44    0.16
   0  -1  -2    0.07    0.16
   0   1  -2    0.33    0.16
   0   1   2    0.18    0.19
   0  -1  -2    0.41    0.16
   0   1  -3   23.66    0.70
   0   1   3   25.45    0.70
   0  -1  -3   24.79    0.68
   0   1  -3   23.57    0.67
   0  -1   3   24.15    0.69
   0  -1  -3   24.15    0.66
   0   1   3   25.07    0.70
   0   1  -4    0.76    0.29
   0  -1  -4    0.57    0.27
   0  -1  -4    0.41    0.23
   0  -1   4    0.73    0.32
   0   1  -4    0.53    0.23
   0   1   4    0.42    0.30
   0  -1  -5   86.90    1.79
   0   1  -5   88.46    1.85
   0  -1   5   86.45    1.77
   0   1  -5   84.40    1.74
   0  -1  -5   87.51    1.76
   0   1   5   86.54    1.77
   0   1  -6    0.14    0.28
   0  -1  -6   -0.25    0.27
   0  -1  -6   -0.20    0.29
   0  -1   6   -0.47    0.32
   0   1  -6   -0.10    0.27
   0   1   6   -0.29    0.31
   0  -1  -7  267.58    4.46
   0   1  -7  269.58    4.51
   0  -1  -7  271.85    4.38
   0   1  -7  266.01    4.37
   0  -1   7  266.10    4.37
   0   1   7  270.78    4.37
   0  -1  -8    0.39    0.33
   0   1  -8    0.79    0.36
   0  -1  -8   -0.10    0.33
   0   1  -8    0.48    0.34
   0  -1   8   -0.31    0.40
   0   1   8    0.18    0.36
   0  -1  -9   -0.12    0.33
   0   1  -9    0.11    0.36
   0  -1  -9    0.42    0.31
   0  -1   9    0.29    0.37
   0   1  -9    1.09    0.38
   0   1   9    0.28    0.36
   0  -1  10    2.19    0.51
   0   1  10    2.05    0.50
   0  -1  11   43.17    1.68
   0   1  11   43.33    1.66
   0  -1  12   -0.45    0.50
   0   1  12    0.62    0.48
   0  -1  13   47.74    1.95
   0   1  13   47.80    1.96
   0   1  14   14.75    1.19
   0  -1  14   15.80    1.21
   0   1  15    9.68    1.03
   0  -1  15   10.40    1.07
   0  -1  16    1.38    0.70
   0   1  16    1.59    0.73
   0  -2   0  177.11    2.47
   0   2   0  177.01    2.47
   0   2  -1    2.30    0.18
   0  -2   1    2.13    0.20
   0  -2  -1    2.22    0.17
   0   2   1    2.32    0.21
   0  -2  -2   65.90    1.08
   0   2  -2   65.02    1.18
   0   2   2   64.94    1.08
   0  -2   2   64.31    1.17
   0   2  -2   65.52    1.17
   0   2   2   64.86    1.16
   0  -2  -2   64.23    1.15
   0  -2   3  235.58    3.35
   0   2   3  224.76    3.29
   0   2  -3  227.53    3.40
   0  -2  -3  229.24    3.28
   0   2  -3  231.11    3.36
   0  -2  -3  237.85    3.34
   0   2   3  235.29    3.35
   0  -2   4   40.64    1.05
   0   2  -4   39.25    1.07
   0  -2  -4   38.82    0.98
   0   2  -4   40.36    1.04
   0  -2  -4   39.94    1.02
   0   2   4   39.97    1.03
   0  -2  -5    0.13    0.25
   0  -2   5    0.32    0.32
   0   2  -5    0.59    0.30
   0  -2  -5    0.56    0.25
   0   2  -5    0.16    0.25
   0   2   5    0.50    0.31
   0  -2   6   33.46    1.09
   0  -2  -6   32.86    1.07
   0   2  -6   34.00    1.14
   0   2  -6   32.71    1.08
   0  -2  -6   32.60    1.06
   0   2   6   31.68    1.06
   0  -2   7   35.48    1.21
   0  -2  -7   36.45    1.20
   0  -2  -7   37.09    1.23
   0   2  -7   36.34    1.29
   0   2  -7   35.92    1.21
   0   2   7   33.33    1.18
   0  -2  -8   66.12    1.79
   0  -2   8   63.77    1.79
   0   2  -8   66.14    1.89
   0  -2  -8   67.53    1.83
   0   2  -8   65.67    1.84
   0   2   8   65.41    1.78
   0  -2   9    3.39    0.54
   0  -2  -9    3.08    0.49
   0   2  -9    3.02    0.49
   0  -2  -9    3.95    0.51
   0   2  -9    3.30    0.48
   0   2   9    2.81    0.49
   0  -2  10    0.07    0.41
   0   2  10    0.20    0.40
   0  -2  11    7.66    0.78
   0   2  11    8.34    0.82
   0  -2  12   22.31    1.27
   0   2  12   21.68    1.25
   0  -2  13    0.88    0.51
   0   2  13    1.92    0.61
   0   2  14    7.31    0.91
   0  -2  14    5.20    0.79
   0  -2  15    4.97    0.85
   0   2  15    5.37    0.86
   0   2  16    1.07    0.64
   0  -2  16    0.83    0.60
   0  -3   0   93.04    1.58
   0   3   0   93.21    1.58
   0  -3   1   58.24    1.09
   0   3  -1   59.16    1.10
   0   3   1   54.90    1.09
   0  -3  -1   58.78    1.08
   0   3  -2    1.42    0.24
   0  -3  -2    1.67    0.16
   0   3   2    1.69    0.18
   0   3  -2    2.24    0.26
   0  -3   2    1.76    0.27
   0   3   2    2.00    0.29
   0  -3  -2    2.02    0.25
   0   3   3    6.65    0.36
   0   3  -3    6.62    0.42
   0  -3  -3    7.27    0.36
   0   3  -3    7.50    0.43
   0  -3   3    7.43    0.45
   0  -3  -3    7.84    0.41
   0   3   3    6.80    0.43
   0  -3   4    0.92    0.33
   0  -3  -4    0.46    0.22
   0   3  -4    0.26    0.27
   0   3  -4    0.30    0.24
   0   3   4    0.57    0.33
   0  -3  -4    0.27    0.24
   0  -3   5  260.58    4.06
   0   3  -5  263.95    4.17
   0  -3  -5  260.61    3.99
   0   3  -5  265.38    4.11
   0   3   5  266.04    4.09
   0  -3  -5  272.03    4.09
   0  -3   6   25.89    0.98
   0  -3  -6   25.33    0.92
   0   3  -6   25.86    1.04
   0   3  -6   25.23    0.96
   0   3   6   26.16    0.97
   0  -3  -6   26.20    0.96
   0  -3   7   13.09    0.76
   0   3  -7   12.82    0.80
   0  -3  -7   14.08    0.74
   0   3  -7   12.34    0.73
   0  -3  -7   14.90    0.77
   0   3   7   13.50    0.76
   0  -3   8    0.37    0.36
   0  -3  -8    1.22    0.37
   0  -3  -8    0.43    0.28
   0   3  -8    0.55    0.35
   0   3  -8    0.45    0.28
   0   3   8    1.00    0.39
   0  -3   9    1.64    0.46
   0  -3  -9    1.28    0.39
   0  -3  -9    0.45    0.31
   0   3  -9    0.45    0.33
   0   3  -9    1.48    0.40
   0   3   9    1.27    0.44
   0  -3  10    3.18    0.57
   0   3  10    2.78    0.51
   0   3  11   31.12    1.42
   0  -3  11   28.51    1.39
   0  -3  12   -0.52    0.50
   0   3  12    0.20    0.47
   0  -3  13    2.12    0.62
   0   3  13    2.00    0.58
   0   3  14   15.09    1.19
   0  -3  14   13.46    1.14
   0  -3  15   -0.28    0.57
   0   3  15    0.59    0.57
   0  -4   0 1616.54   20.38
   0   4   0 1655.46   20.37
   0  -4   1    8.27    0.44
   0   4  -1    7.76    0.42
   0  -4  -1    7.71    0.44
   0  -4  -1    7.76    0.41
   0  -4  -2  120.41    1.70
   0   4   2  121.34    1.72
   0   4  -2  116.95    1.93
   0   4  -2  119.86    2.02
   0  -4   2  121.98    2.03
   0  -4  -2  119.38    2.00
   0   4   2  119.73    2.03
   0   4   3   34.90    0.78
   0   4  -3   33.77    0.91
   0  -4  -3   33.03    0.75
   0   4  -3   32.86    0.93
   0  -4   3   31.48    0.92
   0  -4  -3   34.87    0.91
   0   4   3   32.68    0.93
   0   4  -4   45.06    1.20
   0  -4  -4   44.28    1.02
   0   4  -4   47.17    1.21
   0  -4   4   45.10    1.18
   0   4   4   46.90    1.20
   0  -4  -4   47.68    1.16
   0  -4   5    2.99    0.42
   0  -4  -5    2.96    0.33
   0   4  -5    2.57    0.41
   0   4  -5    3.04    0.39
   0  -4  -5    2.54    0.34
   0   4   5    2.78    0.41
   0  -4   6   28.28    1.04
   0   4  -6   27.30    1.06
   0  -4  -6   28.39    0.97
   0   4  -6   29.12    1.05
   0   4   6   30.79    1.08
   0  -4  -6   30.81    1.06
   0  -4   7   49.90    1.49
   0  -4  -7   50.13    1.43
   0   4  -7   50.89    1.56
   0   4  -7   50.27    1.53
   0   4   7   49.19    1.48
   0  -4  -7   50.70    1.47
   0  -4   8   10.92    0.77
   0   4  -8   10.01    0.77
   0  -4  -8   10.79    0.71
   0   4  -8   11.60    0.77
   0   4   8   10.50    0.74
   0  -4  -8   11.09    0.73
   0  -4  -9    2.02    0.39
   0  -4  -9    2.56    0.45
   0  -4   9    2.33    0.48
   0   4   9    2.84    0.51
   0  -4  10   21.03    1.12
   0   4  10   20.84    1.13
   0   4  11   19.23    1.16
   0  -4  11   20.70    1.19
   0   4  12   45.82    1.84
   0  -4  12   44.80    1.83
   0  -4  13   -1.15    0.59
   0   4  13   -0.66    0.55
   0   4  14   13.90    1.20
   0  -4  14   15.34    1.19
   0  -4  15   -0.30    0.56
   0   4  15   -0.50    0.57
   0  -5   0 1052.73   13.36
   0   5   0 1027.86   13.34
   0  -5  -1  571.79    7.66
   0  -5   1  584.69    7.68
   0   5  -1  574.08    7.68
   0  -5  -1  567.93    7.65
   0   5  -2   43.35    0.97
   0  -5  -2   44.69    0.75
   0   5   2   43.77    0.76
   0   5  -2   45.51    1.10
   0  -5   2   44.59    1.13
   0  -5  -2   45.22    1.09
   0   5   2   42.55    1.11
   0  -5  -3   62.53    1.12
   0   5  -3   62.59    1.36
   0   5   3   65.16    1.16
   0   5  -3   63.66    1.42
   0  -5   3   62.20    1.42
   0   5   3   65.85    1.46
   0  -5  -3   63.20    1.38
   0   5  -4   13.48    0.64
   0  -5  -4   12.56    0.50
   0   5  -4   12.85    0.64
   0  -5   4   12.25    0.64
   0  -5  -4   13.40    0.62
   0   5   4   13.25    0.67
   0  -5  -5    2.20    0.29
   0   5  -5    2.57    0.39
   0   5  -5    2.61    0.38
   0  -5   5    2.37    0.39
   0  -5  -5    1.99    0.32
   0   5   5    2.41    0.39
   0  -5   6   31.55    1.11
   0   5  -6   28.79    1.12
   0  -5  -6   31.34    0.99
   0   5  -6   31.01    1.12
   0  -5  -6   30.86    1.08
   0   5   6   31.19    1.11
   0  -5   7   98.36    2.25
   0   5  -7   98.75    2.35
   0  -5  -7   96.66    2.11
   0   5  -7  102.91    2.34
   0   5   7  102.22    2.31
   0  -5  -7  105.98    2.31
   0  -5  -8    1.52    0.37
   0  -5   8    0.92    0.42
   0   5  -8    1.08    0.41
   0  -5  -8    1.56    0.37
   0   5  -8    0.91    0.34
   0   5   8    0.73    0.40
   0  -5  -9   26.47    1.16
   0  -5   9   26.72    1.23
   0   5   9   26.99    1.24
   0  -5 -10    8.42    0.74
   0  -5  10    7.30    0.75
   0   5  10    8.04    0.77
   0  -5  11   34.90    1.53
   0   5  11   37.19    1.60
   0   5  12   17.00    1.17
   0  -5  12   17.05    1.15
   0  -5  13    0.02    0.50
   0   5  13    0.17    0.53
   0  -5  14    1.11    0.58
   0   5  14    1.74    0.65
   0  -5  15    1.01    0.59
   0   5  15   -1.05    0.68
   0   6   0  490.62    6.84
   0  -6   0  486.99    6.82
   0   6  -1    0.80    0.16
   0   6  -1    0.74    0.29
   0  -6   1    0.79    0.36
   0  -6  -1    1.14    0.29
   0  -6  -1    0.73    0.36
   0   6   1    1.17    0.31
   0  -6  -2    3.96    0.18
   0   6  -2    3.80    0.30
   0   6   2    4.23    0.19
   0  -6   2    3.94    0.44
   0   6  -2    3.94    0.38
   0  -6  -2    3.81    0.43
   0  -6  -2    4.57    0.41
   0   6  -3    0.21    0.23
   0  -6  -3    0.20    0.13
   0  -6   3    0.04    0.30
   0   6  -3   -0.20    0.24
   0  -6  -3   -0.18    0.24
   0   6   3    0.18    0.31
   0  -6  -4   27.32    0.73
   0   6  -4   27.02    0.92
   0   6  -4   27.38    0.98
   0  -6   4   27.10    0.97
   0   6   4   28.65    1.00
   0  -6  -4   27.77    0.95
   0  -6  -5    6.03    0.39
   0   6  -5    6.25    0.51
   0  -6   5    5.51    0.51
   0   6  -5    6.02    0.52
   0  -6  -5    6.56    0.50
   0   6   5    5.03    0.50
   0   6  -6   59.37    1.66
   0  -6  -6   60.07    1.44
   0   6  -6   61.00    1.69
   0  -6   6   59.95    1.63
   0   6   6   60.83    1.65
   0  -6  -6   61.29    1.61
   0  -6   7    0.30    0.36
   0  -6  -7    0.16    0.26
   0   6  -7    0.14    0.32
   0   6  -7    0.42    0.30
   0  -6  -7    0.43    0.38
   0   6   7    0.05    0.36
   0  -6   8   53.14    1.69
   0   6  -8   55.57    1.79
   0  -6  -8   52.69    1.54
   0   6  -8   57.50    1.77
   0  -6  -8   58.00    1.71
   0   6   8   52.83    1.70
   0  -6  -9    4.31    0.50
   0  -6   9    4.38    0.60
   0   6   9    4.87    0.62
   0  -6 -10   59.14    1.86
   0  -6  10   62.10    1.99
   0   6  10   63.91    2.04
   0  -6  11   12.33    0.98
   0   6  11   11.05    0.94
   0  -6  12    1.22    0.53
   0   6  12   -0.08    0.50
   0  -6  13    1.00    0.55
   0   6  13    1.81    0.60
   0  -6  14    6.65    0.90
   0   6  14    6.24    0.89
   0  -6  15   -0.07    0.58
   0   6  15   -0.83    0.60
   0   7   0  338.97    4.29
   0   7   0  341.63    5.11
   0  -7   0  327.35    5.08
   0   7  -1  418.87    5.33
   0  -7   1  387.58    5.89
   0  -7  -1  424.13    6.03
   0   7  -1  413.93    6.03
   0   7   1  389.85    5.90
   0  -7  -1  393.55    5.88
   0   7  -2   31.13    0.81
   0  -7   2   29.56    1.03
   0  -7  -2   32.37    1.06
   0   7  -2   31.51    1.04
   0  -7  -2   29.99    1.01
   0  -7  -3   49.78    0.90
   0   7  -3   49.68    1.19
   0  -7   3   48.48    1.36
   0   7  -3   49.69    1.36
   0   7   3   48.36    1.36
   0  -7  -3   47.48    1.31
   0  -7  -4    1.14    0.19
   0   7  -4    0.64    0.26
   0  -7   4    0.66    0.33
   0   7  -4    1.13    0.30
   0   7   4    0.61    0.32
   0  -7  -4    1.39    0.32
   0  -7  -5   11.24    0.51
   0   7  -5   12.07    0.67
   0  -7   5   12.14    0.72
   0   7  -5   11.62    0.70
   0   7   5   12.77    0.75
   0  -7  -5   12.81    0.69
   0  -7  -6    6.53    0.45
   0   7  -6    6.42    0.56
   0  -7   6    6.45    0.57
   0   7  -6    6.24    0.58
   0  -7  -6    7.97    0.60
   0   7   6    7.15    0.62
   0  -7   7  120.47    2.64
   0   7  -7  122.48    2.75
   0  -7  -7  118.71    2.38
   0   7  -7  126.89    2.79
   0  -7   7  121.30    2.67
   0  -7  -7  127.77    2.68
   0   7   7  122.53    2.72
   0   7  -8    0.73    0.37
   0  -7  -8    0.61    0.29
   0  -7   8    0.16    0.38
   0   7   8    0.62    0.40
   0  -7  -9    1.16    0.33
   0  -7   9    1.62    0.48
   0   7   9    2.38    0.53
   0  -7 -10    4.62    0.57
   0  -7  10    4.12    0.61
   0   7  10    3.70    0.63
   0  -7  11   33.63    1.56
   0   7  11   34.18    1.56
   0  -7  12   13.85    1.08
   0   7  12   14.04    1.12
   0  -7  13    5.29    0.78
   0   7  13    6.68    0.87
   0  -7  14    0.35    0.53
   0   7  14    0.28    0.56
   0  -7  15    1.06    0.60
   0   7  15    1.24    0.68
   0   8   0  962.44   11.81
   0  -8   0  970.43   12.81
   0   8   0  949.60   12.82
   0   8  -1   61.38    1.09
   0   8  -1   58.82    1.63
   0  -8   1   53.74    1.50
   0  -8  -1   60.75    1.63
   0  -8  -1   56.38    1.52
   0   8   1   52.28    1.50
   0   8  -2  382.02    5.23
   0   8  -2  379.46    5.78
   0  -8  -2  385.06    5.75
   0  -8   2  377.61    5.73
   0  -8  -2  384.84    5.74
   0  -8  -3   44.47    0.81
   0   8  -3   43.56    1.13
   0   8  -3   46.92    1.38
   0  -8   3   46.85    1.39
   0  -8  -3   47.03    1.38
   0  -8  -3   44.04    1.32
   0  -8  -4   54.44    1.08
   0   8  -4   52.21    1.37
   0  -8   4   55.27    1.54
   0   8  -4   55.54    1.55
   0   8   4   53.79    1.55
   0  -8  -4   55.66    1.51
   0  -8  -5   86.21    1.64
   0   8  -5   87.18    2.01
   0  -8   5   87.31    2.09
   0   8  -5   91.27    2.15
   0   8   5   92.79    2.17
   0  -8  -5   89.85    2.09
   0  -8  -6   67.87    1.52
   0   8  -6   70.96    1.86
   0   8  -6   71.30    1.94
   0  -8   6   70.98    1.88
   0   8   6   72.45    1.96
   0  -8  -6   69.21    1.84
   0   8  -7    0.75    0.36
   0  -8  -7    0.48    0.24
   0   8  -7    0.36    0.34
   0  -8   7    0.16    0.40
   0  -8  -7    1.06    0.36
   0   8   7    0.34    0.40
   0  -8  -8   38.47    1.29
   0   8  -8   39.55    1.54
   0  -8   8   42.84    1.53
   0   8   8   42.00    1.56
   0  -8  -9   16.91    0.88
   0  -8   9   17.52    1.04
   0   8   9   17.08    1.06
   0  -8 -10    7.73    0.68
   0  -8  10    6.62    0.75
   0   8  10    8.03    0.82
   0  -8  11    8.63    0.89
   0   8  11    9.58    0.94
   0  -8  12   56.83    2.13
   0   8  12   60.40    2.23
   0  -8  13    3.24    0.70
   0   8  13    3.77    0.76
   0  -8  14    8.73    1.01
   0   8  14    7.89    1.01
   0   9   0  337.46    4.41
   0   9   0  333.42    4.28
   0   9   0  336.52    5.32
   0  -9   0  342.81    5.32
   0   9  -1  487.07    6.27
   0  -9  -1  492.60    7.24
   0  -9   1  466.93    7.08
   0   9  -1  498.11    7.28
   0  -9  -1  468.06    7.10
   0   9   1  472.78    7.12
   0   9  -2   41.87    0.99
   0   9  -2   43.74    1.42
   0  -9  -2   42.44    1.38
   0  -9   2   42.29    1.36
   0  -9  -2   40.79    1.32
   0  -9  -3    1.78    0.14
   0   9  -3    2.07    0.27
   0  -9   3    2.01    0.43
   0   9  -3    2.03    0.38
   0  -9  -3    1.91    0.38
   0  -9  -3    1.60    0.39
   0   9  -4    5.31    0.44
   0  -9  -4    5.29    0.29
   0   9  -4    4.15    0.48
   0  -9   4    4.86    0.54
   0  -9  -4    4.87    0.50
   0  -9  -4    4.62    0.55
   0   9   4    4.53    0.53
   0   9  -5  155.91    2.96
   0  -9  -5  154.45    2.50
   0   9  -5  163.30    3.20
   0  -9   5  155.52    3.13
   0  -9  -5  156.06    3.11
   0   9   5  158.75    3.18
   0   9  -6   11.21    0.74
   0  -9  -6   11.06    0.54
   0  -9   6   11.26    0.78
   0   9  -6   13.03    0.82
   0   9   6   11.02    0.82
   0  -9  -6   12.48    0.78
   0  -9  -7   51.37    1.36
   0   9  -7   52.49    1.69
   0  -9   7   52.92    1.71
   0   9   7   57.87    1.83
   0  -9   8    4.10    0.62
   0  -9  -8    4.12    0.44
   0  -9   8    2.80    0.52
   0   9   8    2.77    0.56
   0  -9  -9   37.90    1.33
   0  -9   9   38.45    1.55
   0   9   9   37.51    1.60
   0  -9 -10    1.32    0.37
   0  -9  10    0.80    0.47
   0   9  10    1.15    0.52
   0  -9  11   19.81    1.24
   0   9  11   19.44    1.28
   0  -9  12    0.90    0.55
   0   9  12    0.55    0.51
   0  -9  13   16.10    1.22
   0   9  13   16.10    1.25
   0  -9  14    0.49    0.57
   0   9  14    0.90    0.64
   0  10   0  153.71    2.19
   0  10   0  146.93    2.04
   0  10   0  160.64    3.12
   0 -10   0  155.04    3.07
   0  10  -1   93.62    1.55
   0  10  -1   95.04    2.32
   0 -10   1   94.48    2.26
   0 -10  -1   97.26    2.34
   0  10   1   92.82    2.27
   0 -10  -1   94.16    2.26
   0  10  -2   27.27    0.77
   0 -10   2   23.60    1.07
   0  10  -2   27.40    1.18
   0 -10  -2   26.91    1.17
   0 -10  -2   25.34    1.07
   0  10  -3   23.26    0.80
   0  10  -3   23.85    1.08
   0 -10  -3   22.81    1.05
   0 -10   3   23.58    1.06
   0 -10  -3   23.97    1.04
   0 -10  -4   51.10    0.95
   0  10  -4   52.95    1.39
   0  10  -4   51.82    1.64
   0 -10   4   52.79    1.65
   0 -10  -4   54.72    1.63
   0 -10  -4   50.52    1.63
   0  10  -5    0.19    0.27
   0 -10  -5    0.31    0.17
   0  10  -5    0.42    0.30
   0 -10   5    0.59    0.39
   0 -10  -5    0.43    0.32
   0 -10  -5    1.28    0.48
   0  10   5    0.18    0.39
   0  10  -6   42.18    1.41
   0 -10  -6   41.32    1.07
   0 -10   6   41.56    1.51
   0  10   6   43.44    1.57
   0 -10  -7   41.21    1.17
   0  10  -7   41.94    1.51
   0 -10   7   40.13    1.55
   0  10   7   43.78    1.64
   0 -10  -8   51.95    1.45
   0 -10   8   50.86    1.80
   0  10   8   50.25    1.85
   0 -10  -9   36.77    1.29
   0 -10   9   38.85    1.61
   0  10   9   39.83    1.70
   0 -10 -10    0.90    0.35
   0 -10  10   -0.08    0.52
   0  10  10    0.96    0.50
   0 -10  11   -0.34    0.54
   0  10  11    0.06    0.52
   0 -10  12    7.30    0.87
   0  10  12    8.06    0.93
   0 -10  13    0.66    0.55
   0  10  13    1.02    0.63
   0 -10  14    9.33    1.02
   0  10  14    7.90    1.01
   0  11   0  220.73    2.97
   0  11   0  211.02    2.80
   0  11   0  208.91    2.78
   0 -11   0  225.90    4.04
   0  11   0  231.95    4.10
   0  11  -1  240.92    3.40
   0 -11   1  245.81    4.40
   0  11  -1  254.85    4.51
   0 -11  -1  245.56    4.47
   0 -11  -1  248.69    4.44
   0  11  -2   21.91    0.69
   0  11  -2   21.70    1.11
   0 -11   2   20.11    1.01
   0 -11  -2   19.70    1.08
   0 -11  -2   18.97    0.98
   0  11  -3   64.93    1.47
   0 -11  -3   67.78    1.98
   0  11  -3   68.78    2.01
   0 -11   3   61.09    1.88
   0 -11  -3   65.09    1.88
   0  11  -4    8.26    0.53
   0 -11   4    8.66    0.75
   0 -11  -4    8.58    0.75
   0  11  -4    8.56    0.70
   0 -11  -4    8.94    0.70
   0 -11  -5   27.11    0.70
   0  11  -5   26.46    1.05
   0 -11   5   28.64    1.27
   0 -11  -5   30.50    1.32
   0 -11  -6   25.79    0.80
   0  11  -6   25.89    1.10
   0 -11   6   26.63    1.26
   0  11   6   25.61    1.32
   0 -11  -7  160.45    2.78
   0  11  -7  154.07    3.31
   0 -11   7  157.48    3.48
   0  11   7  165.09    3.60
   0 -11  -8   10.67    0.65
   0 -11   8   11.84    0.95
   0  11   8   11.51    0.96
   0 -11   9   16.27    1.10
   0 -11  -9   15.56    0.83
   0 -11   9   18.33    1.18
   0  11   9   17.37    1.19
   0 -11 -10   11.10    0.76
   0 -11  10   12.88    1.05
   0  11  10   13.05    1.11
   0 -11  11    0.27    0.49
   0  11  11    1.50    0.66
   0 -11  12   10.05    1.05
   0  11  12   12.93    1.19
   0 -11  13    2.84    0.71
   0  11  13    3.27    0.79
   0  12   0  194.65    2.75
   0 -12   0  199.57    3.90
   0  12   0  203.62    3.89
   0  12  -1   37.56    0.81
   0  12  -1   40.35    1.52
   0 -12  -1   37.09    1.46
   0 -12   1   37.31    1.45
   0 -12  -1   40.34    1.50
   0  12  -2    0.90    0.20
   0 -12  -2    0.62    0.41
   0 -12   2    0.14    0.42
   0 -12  -2    0.98    0.37
   0  12  -2    1.15    0.41
   0  12  -3    1.47    0.26
   0 -12   3    1.09    0.42
   0 -12  -3    1.77    0.52
   0  12  -4    5.04    0.43
   0 -12   4    5.25    0.66
   0 -12  -4    6.19    0.70
   0 -12  -5   60.26    1.09
   0  12  -5   60.09    1.65
   0 -12   5   62.94    2.00
   0 -12  -5   62.73    2.01
   0 -12  -6    9.73    0.45
   0  12  -6    8.23    0.65
   0 -12   6    9.55    0.83
   0 -12  -6   11.01    0.89
   0 -12  -7    3.02    0.32
   0  12  -7    3.04    0.49
   0 -12   7    2.97    0.60
   0 -12  -7    3.92    0.66
   0  12   7    3.22    0.61
   0 -12  -8    7.41    0.51
   0 -12   8    5.95    0.75
   0  12   8    5.26    0.77
   0 -12  -9   -0.14    0.29
   0 -12   9    0.20    0.45
   0  12   9    0.04    0.51
   0 -12  10   32.01    1.59
   0  12  10   37.14    1.77
   0 -12  11    8.42    0.94
   0  12  11    9.32    0.98
   0 -12  12   10.02    1.02
   0  12  12   10.75    1.11
   0 -12  13   -0.24    0.58
   0  12  13    0.22    0.60
   0 -13   0    2.80    0.55
   0  13  -1   56.72    1.21
   0  13  -1   54.22    1.03
   0 -13  -1   56.29    1.87
   0 -13   1   54.20    1.85
   0  13  -2    6.68    0.38
   0 -13   2    5.66    0.65
   0 -13  -2    5.46    0.66
   0  13  -3    0.58    0.23
   0 -13   3    0.51    0.44
   0 -13  -3    0.45    0.51
   0  13  -4   22.20    0.89
   0 -13  -4   24.22    1.29
   0 -13   4   20.91    1.16
   0  13  -5    8.04    0.60
   0 -13   5    8.92    0.83
   0 -13  -5    7.02    0.75
   0 -13  -6    1.77    0.21
   0  13  -6    1.62    0.38
   0 -13   6    2.03    0.54
   0 -13  -6    1.30    0.51
   0 -13  -7    0.72    0.11
   0 -13  -7    1.05    0.22
   0  13  -7    1.58    0.42
   0 -13   7    1.02    0.50
   0 -13  -7    1.23    0.58
   0 -13  -8    0.37    0.23
   0 -13   8    1.03    0.54
   0 -13  -8    0.79    0.56
   0  13   8    0.64    0.55
   0 -13   9   10.21    0.95
   0  13   9    7.57    0.91
   0 -13  10    0.17    0.55
   0  13  10   -0.64    0.63
   0 -13  11    4.98    0.83
   0  13  11    4.59    0.86
   0 -13  12   24.94    1.56
   0  13  12   25.95    1.67
   0 -14   0   42.98    1.68
   0  14  -1   48.27    1.08
   0  14  -1   45.70    0.89
   0 -14  -1   46.36    1.76
   0 -14   1   46.48    1.75
   0  14  -2    9.38    0.45
   0 -14   2    9.97    0.87
   0 -14  -2    9.30    0.84
   0  14  -3    6.55    0.43
   0 -14   3    6.30    0.74
   0 -14  -3    6.88    0.80
   0  14  -4   73.39    1.75
   0 -14   4   70.91    2.28
   0 -14  -4   80.40    2.49
   0  14  -5    6.10    0.54
   0 -14   5    5.77    0.74
   0 -14  -5    6.80    0.79
   0  14  -6   10.53    0.73
   0 -14   6   13.02    1.04
   0 -14  -6   13.05    1.03
   0 -14   7   28.77    1.53
   0 -14  -7   30.79    1.60
   0 -14   8    3.88    0.71
   0 -14  -8    4.21    0.80
   0 -14   9    0.43    0.55
   0 -14  -9    0.21    0.56
   0  14   9   -0.86    0.66
   0 -14  10    0.99    0.61
   0 -14  10    1.35    0.60
   0  14  10    0.76    0.59
   0 -14  11    6.21    0.91
   0  14  11    7.15    1.00
   0 -14  12   34.05    1.85
   0  14  12   34.79    1.94
   0 -15   0   92.14    2.65
   0  15  -1   33.07    0.68
   0  15  -1   35.95    0.89
   0 -15   1   38.21    1.63
   0 -15  -1   35.90    1.61
   0  15  -1   32.53    0.66
   0  15  -2    6.36    0.44
   0  15  -2    7.28    0.39
   0 -15   2    7.14    0.78
   0 -15  -2    7.59    0.81
   0  15  -3   35.59    1.02
   0 -15  -3   36.72    1.71
   0 -15   3   32.58    1.55
   0  15  -4    0.60    0.25
   0 -15  -4   -0.48    0.57
   0 -15   4    0.02    0.46
   0  15  -5   19.85    0.90
   0 -15  -5   22.42    1.38
   0 -15   5   19.97    1.23
   0  15  -6   14.61    0.85
   0 -15  -6   16.02    1.21
   0 -15   6   17.32    1.22
   0 -15   7   34.07    1.67
   0 -15  -7   33.50    1.73
   0 -15   8    7.71    0.91
   0 -15  -8    8.65    0.98
   0 -15   9   -0.31    0.52
   0 -15  -9    0.65    0.61
   0 -15  10   15.82    1.27
   0 -15 -10   17.63    1.39
   0 -15  11    4.79    0.81
   0  15  11    5.40    0.93
   0 -15 -11    7.59    1.03
   0 -16   0   77.13    2.46
   0  16  -1   33.19    0.83
   0 -16   1   36.65    1.66
   0 -16  -1   35.31    1.63
   0  16  -2    4.21    0.37
   0  16  -2    4.51    0.31
   0 -16   2    3.83    0.67
   0 -16  -2    4.18    0.68
   0  16  -3   26.21    0.85
   0 -16   3   26.72    1.45
   0 -16  -3   26.60    1.51
   0  16  -4   12.34    0.65
   0 -16   4   12.31    1.03
   0 -16  -4   13.62    1.15
   0  16  -5    8.30    0.60
   0 -16   5    7.86    0.91
   0 -16  -5    8.41    0.95
   0  16  -6   17.63    0.95
   0 -16  -6   20.55    1.41
   0 -16   6   19.25    1.30
   0 -16  -7   23.27    1.51
   0 -16   7   21.02    1.40
   0 -16   8   15.44    1.25
   0 -16  -8   19.46    1.40
   0 -16   9    0.90    0.61
   0 -16  -9    1.72    0.65
   0 -16  10    5.99    0.91
   0 -16 -10    4.55    0.92
   0 -17   0   51.81    2.06
   0 -17  -1   38.83    1.79
   0 -17   1   38.28    1.76
   0 -17  -2   25.01    1.46
   0 -17   2   24.52    1.59
   0 -17  -3    1.29    0.60
   0 -17   3    0.67    0.53
   0 -17  -4   12.63    1.17
   0 -17   4   10.20    1.01
   0 -17  -5   13.20    1.23
   0 -17   5   11.29    1.07
   0 -17   6    6.34    0.87
   0 -17  -6    7.09    1.01
   0 -17   7   53.08    2.26
   0 -17  -7   62.57    2.54
   0 -17   8    9.20    1.05
   0 -17  -8   11.33    1.16
   0 -17   9    0.04    0.55
   0 -17  -9   -0.80    0.67
   0 -18   0  141.97    3.70
   0 -18   1   40.83    1.88
   0 -18  -1   42.59    1.92
   0 -18  -2    3.89    0.75
   0 -18   2    7.71    0.90
   0 -18  -3   -0.20    0.53
   0 -18   3    1.93    0.65
   0 -18   4    8.02    0.94
   0 -18  -4    9.18    1.05
   0 -18  -5   22.37    1.58
   0 -18   5   21.92    1.47
   0 -18   6   14.61    1.23
   0 -18  -6   14.93    1.37
   0 -18   7    1.08    0.57
   0 -18  -7    2.06    0.69
   0 -18   8   11.65    1.18
   0 -18  -8   10.94    1.23
   0 -19   0    5.82    0.86
   0 -19  -1    6.21    0.90
   0 -19   1    6.13    0.86
   0 -19  -2   36.33    1.85
   0 -19   2   35.91    1.82
   0 -19   3   -0.03    0.57
   0 -19  -3    0.29    0.54
   0 -19   4   28.11    1.68
   0 -19  -4   30.71    1.78
   0 -19  -5   18.08    1.48
   0 -19   5   17.16    1.37
   0 -19   6    7.13    0.91
   0 -19  -6    6.90    1.06
   0 -19   7    7.48    1.01
   0 -19  -7    8.04    1.10
   0 -20   0    2.23    0.66
   0 -20   1   19.25    1.40
   0 -20  -1   20.83    1.47
   0 -20  -2   22.54    1.52
   0 -20   2   21.91    1.49
   0 -20   3    1.15    0.70
   0 -20  -3   -0.95    0.69
   0 -20   4   12.38    1.19
   0 -20  -4   14.11    1.29
   0 -20   5    8.92    1.07
   0 -20  -5    8.34    1.10
   0 -21   0   43.74    2.12
   0 -21   1    6.62    0.95
   0 -21  -1    6.76    0.94
   0 -21   2    0.82    0.61
   0 -21  -2   -0.35    0.61
   0 -21   3    2.65    0.72
   0 -21  -3    1.92    0.68
  -1   0  16   21.37    1.52
  -1   0  15   -0.18    0.60
  -1   0  14    2.74    0.66
  -1   0  13    0.27    0.51
  -1   0  12   47.13    1.85
  -1   0  11    0.53    0.48
  -1   0  10  180.43    3.71
   1   0  -9    0.04    0.33
  -1   0   9   -0.18    0.38
   1   0  -9    0.53    0.35
   1   0  -8   28.56    1.18
   1   0  -8   29.85    1.15
  -1   0   8   26.48    1.11
   1   0  -7    0.11    0.28
   1   0  -7   -0.34    0.32
  -1   0   7   -0.11    0.32
   1   0  -6  186.58    3.31
   1   0  -6  195.47    3.26
  -1   0   6  188.69    3.24
   1   0  -5    0.56    0.31
  -1   0   5   -0.55    0.37
   1   0  -5   -0.15    0.28
   1   0  -4  426.82    5.83
  -1   0   4  421.63    5.83
  -1   0   3   -0.02    0.25
   1   0  -3   -0.09    0.20
  -1   0   2 1054.77   13.07
   1   0  -2 1055.98   13.07
  -1   0   1    0.80    0.12
   1   0   1    0.71    0.13
  -1   0  -1    0.90    0.13
  -1   0  -2   94.53    1.54
   1   0   2   94.04    1.54
  -1   0  -2   94.88    1.44
   1   0   2   94.50    1.45
  -1   0  -3    0.15    0.24
   1   0   3    0.39    0.24
   1   0   3   -0.18    0.23
  -1   0  -3    0.34    0.20
  -1   0  -4  460.59    6.28
   1   0   4  450.87    6.27
  -1   0  -4  451.26    6.14
   1   0   4  457.76    6.15
   1   0   5   -0.12    0.28
  -1   0  -5    0.35    0.26
  -1   0  -5    0.14    0.26
   1   0   5   -0.02    0.28
  -1   0  -6  366.92    5.48
   1   0   6  357.82    5.46
  -1   0  -6  359.40    5.32
   1   0   6  356.26    5.29
  -1   0  -7    0.78    0.39
   1   0   7    0.95    0.43
  -1   0  -7   -0.33    0.33
   1   0   7   -0.26    0.34
  -1   0  -8   77.18    2.04
  -1   0  -8   75.56    1.92
   1   0   8   72.45    1.89
  -1   0  -9   -0.04    0.32
  -1   0  -9   -0.60    0.36
   1   0   9   -0.48    0.43
   1   0  10    2.41    0.51
   1   0  11   -0.85    0.54
   1   0  12   41.41    1.72
   1   0  13    0.57    0.57
   1   0  14   16.38    1.23
   1   0  15   -0.58    0.63
   1   0  16    0.09    0.56
  -1   1  16   -0.41    0.57
  -1  -1  16   -0.05    0.58
  -1  -1  15    1.03    0.63
  -1   1  15    0.42    0.60
  -1   1  14    1.22    0.61
  -1  -1  14    0.83    0.61
  -1   1  13    4.00    0.70
  -1  -1  13    3.01    0.66
  -1  -1  12    1.28    0.58
  -1   1  12    1.13    0.54
  -1   1  11  114.67    2.90
  -1  -1  11  117.34    2.93
  -1  -1  10   30.91    1.35
  -1   1  10   30.42    1.34
   1   1  -9   19.39    1.05
   1  -1  -9   18.00    0.99
   1  -1  -9   17.05    0.94
   1   1  -9   17.81    0.96
  -1   1   9   17.42    0.99
  -1  -1   9   17.25    0.97
   1   1  -8   45.31    1.54
   1  -1  -8   44.00    1.48
   1   1  -8   45.31    1.44
   1  -1  -8   45.42    1.44
  -1   1   8   42.93    1.42
  -1  -1   8   42.74    1.43
   1   1  -7   66.24    1.80
   1  -1  -7   66.58    1.75
   1   1  -7   68.59    1.71
   1  -1  -7   68.09    1.72
  -1   1   7   66.26    1.71
  -1  -1   7   66.85    1.72
   1   1  -6    1.19    0.32
   1  -1  -6    1.28    0.32
   1  -1  -6    0.65    0.29
   1   1  -6    1.03    0.31
  -1  -1   6    0.88    0.35
  -1   1   6    1.51    0.37
   1  -1  -5  257.41    4.03
   1   1  -5  260.02    3.99
   1  -1  -5  260.53    3.98
  -1  -1   5  261.49    4.01
  -1   1   5  266.12    4.02
  -1  -1   4   10.68    0.56
   1   1  -4    9.50    0.50
   1  -1  -4   10.65    0.51
  -1   1   4   10.02    0.55
   1   1  -3   14.52    0.54
  -1  -1   3   15.94    0.58
  -1   1   3   15.87    0.56
   1  -1  -3   15.61    0.54
  -1  -1   2    7.52    0.34
   1   1  -2    7.69    0.32
  -1   1   2    7.58    0.33
   1  -1  -2    7.54    0.33
  -1  -1   1  241.59    2.69
  -1   1   1  244.29    2.70
  -1   1   0   17.03    0.38
  -1   1   0   17.02    0.36
   1  -1   1  556.90    6.92
   1   1   1  550.43    6.91
  -1  -1  -1  558.05    6.91
  -1   1  -1  546.95    6.92
   1  -1   1  540.92    6.84
  -1   1  -1  558.78    6.84
  -1  -1  -1  543.64    6.83
   1   1   1  549.24    6.82
   1  -1   2  156.92    2.19
   1   1   2  151.79    2.25
  -1  -1  -2  150.64    2.25
  -1   1  -2  151.89    2.28
   1  -1   2  150.16    2.28
  -1   1  -2  156.52    2.21
  -1  -1  -2  154.05    2.19
   1   1   2  154.18    2.19
   1   1   3   19.82    0.63
  -1  -1  -3   20.18    0.63
   1  -1   3   19.68    0.66
  -1   1  -3   19.63    0.66
   1  -1   3   20.92    0.62
  -1   1  -3   20.24    0.60
  -1  -1  -3   19.91    0.59
   1   1   3   19.88    0.61
   1   1   4  196.09    3.11
  -1   1  -4  192.21    3.15
   1  -1   4  194.02    3.15
  -1  -1  -4  196.85    3.10
  -1   1  -4  203.75    3.05
   1  -1   4  199.93    3.04
   1   1   4  199.72    3.04
  -1  -1  -4  200.47    3.03
   1  -1   5   23.40    0.87
   1   1   5   23.57    0.87
  -1  -1  -5   23.31    0.84
  -1   1  -5   23.05    0.87
  -1   1  -5   21.64    0.79
  -1  -1  -5   22.78    0.80
   1  -1   5   23.43    0.82
   1   1   5   22.67    0.81
   1  -1   6   13.40    0.77
  -1   1  -6   14.20    0.77
   1   1   6   15.75    0.77
  -1  -1  -6   14.63    0.73
  -1  -1  -6   15.05    0.69
  -1   1  -6   14.28    0.69
   1  -1   6   13.31    0.69
   1   1   6   13.81    0.69
  -1  -1  -7  174.23    3.26
  -1   1  -7  180.15    3.35
   1   1   7  173.59    3.26
  -1   1  -7  171.01    3.14
  -1  -1  -7  178.85    3.20
   1   1   7  173.03    3.15
   1  -1   7  173.72    3.16
  -1  -1  -8   51.26    1.61
  -1   1  -8   51.14    1.64
  -1   1  -8   48.57    1.50
  -1  -1  -8   49.52    1.51
   1  -1   8   49.79    1.53
   1   1   8   48.98    1.51
  -1   1  -9    6.00    0.63
  -1  -1  -9    5.13    0.58
  -1   1  -9    6.82    0.61
  -1  -1  -9    5.87    0.58
   1  -1   9    4.90    0.57
   1   1   9    6.43    0.64
   1   1  10   13.23    0.89
   1  -1  10   12.46    0.88
   1   1  11   15.54    1.02
   1  -1  11   15.07    1.01
   1  -1  12    0.12    0.49
   1   1  12   -0.59    0.51
   1   1  13   74.77    2.45
   1  -1  13   71.22    2.42
   1  -1  14    0.72    0.55
   1   1  14    0.91    0.61
   1  -1  15    0.89    0.57
   1   1  15    2.01    0.66
   1  -1  16   -0.03    0.59
   1   1  16    0.29    0.64
  -1  -2  16   22.84    1.56
  -1   2  15    0.96    0.57
  -1  -2  15    2.91    0.75
  -1   2  14    2.10    0.63
  -1  -2  14    0.66    0.54
  -1  -2  13    6.14    0.83
  -1   2  13    5.14    0.76
  -1   2  12   70.71    2.29
  -1  -2  12   68.48    2.25
  -1  -2  11   -0.39    0.52
  -1   2  11    0.32    0.44
  -1  -2  10    2.07    0.50
  -1   2  10    1.10    0.43
   1  -2  -9    0.17    0.31
  -1  -2   9   -0.11    0.39
   1  -2  -9    0.37    0.31
   1   2  -9    0.11    0.37
   1   2  -9    0.42    0.34
  -1   2   9    0.00    0.41
   1  -2  -8   60.77    1.71
  -1  -2   8   57.84    1.70
   1   2  -8   58.40    1.79
   1  -2  -8   59.57    1.70
   1   2  -8   60.32    1.72
  -1   2   8   59.63    1.69
   1  -2  -7    7.80    0.58
  -1  -2   7    6.65    0.59
   1   2  -7    7.22    0.56
   1   2  -7    7.73    0.61
   1  -2  -7    6.74    0.54
   1   2  -7    7.26    0.57
  -1   2   7    7.22    0.59
  -1  -2   6   35.20    1.14
   1   2  -6   35.40    1.18
   1  -2  -6   34.66    1.11
   1   2  -6   33.73    1.10
   1  -2  -6   34.62    1.10
  -1   2   6   34.04    1.10
  -1  -2   5  121.02    2.27
   1  -2  -5  117.32    2.22
   1   2  -5  124.24    2.27
   1  -2  -5  121.02    2.24
  -1   2   5  121.89    2.26
  -1  -2   4  117.39    2.08
   1   2  -4  117.40    2.07
  -1   2   4  115.06    2.06
   1  -2  -4  112.59    2.03
  -1  -2   3    0.03    0.26
   1   2  -3    0.57    0.23
  -1   2   3    0.01    0.26
   1  -2  -3    0.32    0.22
   1   2  -2    0.48    0.19
  -1  -2   2    0.39    0.22
   1  -2  -2    0.27    0.18
  -1   2   2    0.53    0.23
   1   2  -1  190.14    2.63
  -1  -2   1  190.78    2.63
   1  -2  -1  193.51    2.63
  -1   2   1  197.35    2.63
  -1   2   0  566.19    6.60
   1  -2   0  568.87    6.59
   1  -2   0  501.97    6.65
  -1  -2   0  507.55    6.64
   1   2   0  497.70    6.65
  -1   2   0  492.42    6.63
  -1  -2  -1    0.43    0.11
   1   2   1    0.48    0.14
   1  -2   1    0.49    0.15
  -1  -2  -1    0.29    0.13
  -1   2  -1    0.33    0.14
  -1   2  -1    0.33    0.14
   1  -2   1    0.47    0.16
  -1  -2  -1    0.42    0.15
   1   2   1    0.46    0.17
   1   2   2  250.78    3.42
  -1  -2  -2  243.50    3.41
  -1   2  -2  250.02    3.49
   1  -2   2  254.55    3.49
   1  -2   2  252.26    3.44
  -1   2  -2  252.23    3.44
  -1  -2  -2  252.78    3.42
   1   2   2  248.07    3.42
   1  -2   3  235.05    3.31
  -1   2  -3  226.82    3.40
  -1  -2  -3  223.52    3.30
   1  -2   3  223.80    3.39
   1   2   3  225.36    3.32
  -1   2  -3  237.00    3.35
  -1  -2  -3  233.56    3.30
   1   2   3  232.10    3.31
   1  -2   4   37.03    0.99
   1  -2   4   38.04    1.06
  -1   2  -4   39.93    1.08
   1   2   4   39.61    1.02
  -1  -2  -4   37.16    0.98
  -1   2  -4   36.74    0.99
  -1  -2  -4   39.63    0.99
   1   2   4   37.59    0.99
  -1  -2  -5    0.20    0.23
   1  -2   5    0.02    0.29
   1   2   5    0.11    0.26
  -1  -2  -5    0.28    0.23
   1  -2   5    0.23    0.29
  -1   2  -5    0.57    0.31
  -1   2  -5    0.04    0.24
   1   2   5   -0.13    0.31
   1  -2   6   73.89    1.70
  -1   2  -6   73.22    1.82
  -1  -2  -6   71.04    1.71
   1   2   6   73.54    1.75
   1  -2   6   73.81    1.80
  -1   2  -6   72.42    1.71
   1   2   6   72.23    1.69
  -1  -2  -6   74.60    1.69
  -1  -2  -7    8.00    0.59
   1  -2   7    7.78    0.61
  -1  -2  -7    9.35    0.65
  -1   2  -7    9.14    0.68
   1   2   7    9.67    0.68
  -1   2  -7    8.18    0.62
   1   2   7    8.52    0.62
  -1  -2  -8  372.71    5.77
  -1   2  -8  369.05    5.98
  -1  -2  -8  371.33    5.86
  -1   2  -8  361.51    5.78
   1  -2   8  361.27    5.74
   1   2   8  359.98    5.72
  -1  -2  -9   16.58    0.91
  -1  -2  -9   17.27    0.98
  -1   2  -9   16.03    0.92
   1   2   9   15.69    0.91
   1  -2   9   15.85    0.93
   1  -2  10    1.29    0.45
   1   2  10    2.00    0.50
   1  -2  11    8.65    0.81
   1   2  11    8.78    0.82
   1   2  12   16.33    1.11
   1  -2  12   16.86    1.12
   1  -2  13    1.31    0.55
   1   2  13    1.55    0.59
   1  -2  14    4.61    0.77
   1   2  14    6.10    0.86
   1   2  15    7.22    0.93
   1  -2  15    6.45    0.89
   1   2  16   -0.60    0.60
   1  -2  16   -0.37    0.61
  -1  -3  15    9.52    1.05
  -1   3  15    8.73    1.00
  -1  -3  14    0.74    0.58
  -1   3  14    0.27    0.53
  -1  -3  13    7.98    0.88
  -1   3  13    8.25    0.86
  -1   3  12   12.25    1.03
  -1  -3  12   11.55    0.99
  -1  -3  11   17.04    1.06
  -1   3  11   17.92    1.10
  -1  -3  10    5.88    0.67
  -1   3  10    5.77    0.69
  -1  -3   9   26.23    1.20
   1  -3  -9   28.72    1.20
   1   3  -9   26.30    1.23
   1  -3  -9   26.64    1.19
   1   3  -9   25.78    1.18
  -1   3   9   27.00    1.20
  -1  -3   8   33.79    1.27
   1  -3  -8   38.32    1.31
   1   3  -8   31.47    1.30
   1  -3  -8   31.42    1.22
   1   3  -8   33.23    1.26
  -1   3   8   33.53    1.26
  -1  -3   7   37.19    1.29
   1  -3  -7   38.08    1.22
   1   3  -7   35.83    1.32
   1   3  -7   38.10    1.28
   1  -3  -7   41.25    1.30
  -1   3   7   37.19    1.26
  -1  -3   6    7.36    0.56
   1   3  -6    6.68    0.55
   1  -3  -6    6.72    0.49
   1   3  -6    7.24    0.54
  -1   3   6    6.47    0.52
   1  -3  -6    7.31    0.53
  -1  -3   5  488.92    6.87
   1  -3  -5  482.74    6.75
   1   3  -5  497.61    6.89
  -1   3   5  491.15    6.86
   1  -3  -5  494.52    6.87
  -1  -3   4   32.07    0.95
   1  -3  -4   30.71    0.85
   1   3  -4   30.92    0.93
  -1   3   4   33.06    0.95
   1  -3  -4   31.30    0.91
   1   3  -3   92.74    1.72
  -1  -3   3   92.08    1.71
   1  -3  -3   97.64    1.71
  -1   3   3   96.32    1.74
  -1  -3   2   59.37    1.16
   1   3  -2   59.21    1.16
  -1   3   2   59.58    1.16
   1  -3  -2   59.48    1.14
  -1  -3   1  602.63    7.63
   1   3  -1  593.60    7.64
   1  -3  -1  591.71    7.62
  -1   3   1  598.73    7.63
  -1   3   0    7.42    0.28
  -1  -3   0    8.57    0.42
   1   3   0    6.62    0.36
   1  -3   0    6.96    0.39
  -1   3   0    7.04    0.37
  -1  -3  -1  698.92    8.72
   1  -3   1  708.49    8.75
   1   3   1  689.47    8.72
  -1   3  -1  688.88    8.75
  -1   3  -1  693.47    8.88
   1  -3   1  717.85    8.88
  -1  -3  -1  708.96    8.89
  -1  -3  -1  697.71    8.87
  -1  -3  -2   17.02    0.49
   1   3   2   17.04    0.50
   1  -3   2   18.32    0.56
  -1   3  -2   17.31    0.54
  -1   3  -2   16.24    0.55
   1  -3   2   16.77    0.56
   1   3   2   16.98    0.56
  -1  -3  -2   17.09    0.53
  -1  -3  -3  292.49    4.14
  -1   3  -3  294.94    4.29
   1   3   3  298.01    4.16
   1  -3   3  302.51    4.28
  -1   3  -3  306.67    4.26
   1  -3   3  300.89    4.24
  -1  -3  -3  305.07    4.21
   1   3   3  302.10    4.24
   1  -3   4    0.31    0.29
  -1  -3  -4    0.53    0.24
   1   3   4    0.21    0.24
  -1   3  -4    0.35    0.26
   1  -3   4    0.36    0.28
  -1   3  -4    0.08    0.23
   1   3   4    0.75    0.32
  -1  -3  -4    0.24    0.23
   1  -3   5  142.91    2.53
  -1  -3  -5  141.46    2.50
  -1   3  -5  140.18    2.65
   1   3   5  140.03    2.51
   1  -3   5  141.67    2.62
  -1   3  -5  140.91    2.56
  -1  -3  -5  143.69    2.54
   1   3   5  142.58    2.53
   1  -3   6   20.05    0.86
  -1  -3  -6   20.59    0.84
   1   3   6   21.30    0.88
  -1   3  -6   21.13    0.92
  -1   3  -6   20.20    0.86
   1   3   6   21.03    0.86
  -1  -3  -6   21.14    0.84
   1  -3   7  183.14    3.30
  -1   3  -7  181.12    3.47
  -1  -3  -7  176.16    3.27
   1   3   7  176.04    3.30
  -1   3  -7  176.52    3.30
  -1  -3  -7  183.88    3.29
   1   3   7  181.41    3.27
   1  -3   8    2.74    0.51
  -1  -3  -8    4.20    0.52
  -1   3  -8    3.88    0.57
  -1  -3  -8    3.24    0.47
  -1   3  -8    2.87    0.45
   1   3   8    2.96    0.49
  -1  -3  -9   72.97    1.99
   1  -3   9   71.51    1.98
  -1  -3  -9   68.75    1.98
  -1   3  -9   70.73    2.00
   1   3   9   68.39    1.95
   1  -3  10   -0.01    0.41
   1   3  10   -0.16    0.39
   1  -3  11   16.25    1.07
   1   3  11   19.20    1.14
   1  -3  12   19.52    1.21
   1   3  12   19.38    1.20
   1  -3  13   44.58    1.89
   1   3  13   41.66    1.82
   1  -3  14   -0.08    0.54
   1   3  14   -0.55    0.59
   1   3  15    8.92    1.02
   1  -3  15    9.89    1.04
   1   3  16    4.57    0.87
   1  -3  16    4.32    0.80
  -1  -4  15    1.40    0.62
  -1   4  15    0.97    0.64
  -1  -4  14   -0.71    0.58
  -1   4  14    0.41    0.54
  -1  -4  13    0.37    0.52
  -1   4  13   -0.80    0.56
  -1  -4  12    4.56    0.70
  -1   4  12    5.61    0.76
  -1  -4  11   24.02    1.29
  -1   4  11   23.97    1.27
   1  -4 -10   15.52    0.94
  -1  -4  10   16.09    0.99
  -1   4  10   15.69    0.99
   1  -4  -9    1.92    0.41
  -1  -4   9    2.13    0.50
  -1   4   9    2.19    0.50
  -1  -4   8    7.28    0.65
   1  -4  -8    6.71    0.58
   1   4  -8    6.43    0.64
   1   4  -8    7.10    0.63
   1  -4  -8    7.13    0.60
  -1   4   8    6.32    0.61
  -1  -4   7   21.95    0.99
   1  -4  -7   22.88    0.93
   1   4  -7   21.96    1.02
   1   4  -7   23.08    1.00
   1  -4  -7   23.42    0.97
  -1   4   7   22.73    0.99
  -1  -4   6   13.71    0.74
   1  -4  -6   13.41    0.65
   1   4  -6   11.89    0.72
   1   4  -6   12.41    0.70
  -1   4   6   13.26    0.73
   1  -4  -6   13.78    0.72
  -1  -4   5    0.18    0.36
   1  -4  -5    0.94    0.26
   1   4  -5    0.52    0.28
  -1   4   5    0.43    0.37
   1  -4  -5    0.61    0.27
   1  -4  -4  188.72    2.88
   1   4  -4  186.56    3.10
  -1  -4   4  185.64    3.07
   1  -4  -4  192.55    3.06
  -1   4   4  196.40    3.12
   1  -4  -3   17.13    0.51
   1   4  -3   16.96    0.66
  -1  -4   3   15.54    0.64
   1  -4  -3   16.97    0.64
  -1   4   3   16.52    0.67
   1   4  -2  118.63    2.01
  -1  -4   2  115.98    2.02
   1  -4  -2  122.18    2.01
  -1   4   2  122.78    2.04
   1   4  -1  776.12   10.06
  -1  -4   1  777.94   10.07
   1  -4  -1  788.27   10.04
   1  -4  -1  800.17   10.06
  -1   4   0  155.83    2.22
   1  -4   0  161.20    2.53
  -1   4   0  157.04    2.49
  -1  -4   0  155.09    2.50
   1   4   0  158.93    2.51
  -1  -4  -1  154.42    2.13
   1   4   1  145.60    2.13
  -1   4  -1  149.77    2.16
   1  -4   1  155.73    2.17
   1  -4   1  154.40    2.41
  -1   4  -1  153.82    2.41
  -1  -4  -1  156.48    2.39
  -1  -4  -1  153.54    2.39
  -1   4  -2   13.69    0.50
   1  -4   2   14.52    0.51
   1   4   2   13.23    0.44
  -1  -4  -2   13.06    0.43
  -1   4  -2   12.95    0.53
   1  -4   2   13.65    0.56
  -1  -4  -2   13.72    0.53
   1   4   2   12.97    0.57
  -1   4  -3   19.17    0.70
  -1  -4  -3   18.78    0.59
   1  -4   3   19.71    0.69
   1   4   3   19.91    0.61
  -1   4  -3   19.35    0.69
   1  -4   3   20.14    0.70
   1   4   3   19.89    0.71
  -1  -4  -3   20.16    0.67
   1   4   4   22.08    0.72
  -1  -4  -4   21.43    0.70
  -1   4  -4   21.83    0.81
   1  -4   4   21.33    0.80
  -1   4  -4   21.74    0.80
   1  -4   4   22.18    0.80
   1   4   4   22.21    0.80
  -1  -4  -4   23.17    0.77
   1  -4   5    9.04    0.56
  -1   4  -5    9.59    0.62
   1   4   5    9.90    0.56
  -1  -4  -5    8.70    0.51
  -1   4  -5    9.62    0.59
  -1  -4  -5   10.00    0.56
   1   4   5    9.21    0.58
   1  -4   6   97.91    2.10
  -1  -4  -6   95.78    2.04
   1   4   6   96.17    2.07
  -1   4  -6   98.41    2.22
  -1   4  -6   99.76    2.14
  -1  -4  -6  104.73    2.15
   1   4   6  103.07    2.15
   1  -4   7    1.06    0.42
  -1  -4  -7    1.05    0.34
   1   4   7    2.55    0.45
  -1   4  -7    1.01    0.38
  -1  -4  -7    1.75    0.37
  -1   4  -7    1.97    0.41
   1   4   7    1.04    0.41
   1  -4   8  109.66    2.51
  -1   4  -8  111.97    2.68
  -1  -4  -8  105.74    2.45
  -1   4  -8  111.29    2.54
   1   4   8  110.12    2.49
  -1  -4  -8  115.36    2.52
  -1  -4  -9   10.47    0.75
   1  -4   9    8.95    0.74
  -1  -4  -9   11.88    0.81
   1   4   9   10.02    0.78
   1  -4  10   15.14    0.99
   1   4  10   17.13    1.03
   1  -4  11   44.31    1.73
   1   4  11   44.27    1.72
   1   4  12   49.20    1.91
   1  -4  12   48.56    1.88
   1  -4  13   -0.96    0.60
   1   4  13    0.66    0.52
   1  -4  14    1.05    0.57
   1   4  14    1.77    0.69
   1  -4  15    0.88    0.58
   1   4  15   -1.40    0.68
  -1  -5  15    7.94    0.96
  -1   5  15    8.82    1.03
  -1  -5  14    1.16    0.61
  -1   5  14    1.05    0.60
  -1  -5  13    9.92    0.96
  -1   5  13   10.22    0.99
  -1  -5  12    1.69    0.56
  -1   5  12    2.13    0.59
  -1  -5  11   95.52    2.64
  -1   5  11   99.66    2.72
   1  -5 -10   42.87    1.56
  -1  -5  10   42.07    1.62
  -1   5  10   42.47    1.64
   1  -5  -9   50.18    1.60
  -1  -5   9   52.84    1.73
  -1   5   9   49.71    1.71
   1  -5  -8    0.22    0.31
  -1  -5   8    0.17    0.37
   1  -5  -8    0.23    0.27
   1   5  -8    0.41    0.32
   1   5  -8    0.45    0.35
  -1   5   8    0.37    0.38
  -1  -5   7    8.11    0.65
   1   5  -7    8.46    0.65
   1  -5  -7    7.71    0.55
   1   5  -7    8.01    0.63
  -1   5   7    9.43    0.69
   1  -5  -7    8.30    0.62
  -1  -5   6    0.73    0.36
   1   5  -6    0.42    0.27
   1  -5  -6    0.16    0.23
   1   5  -6    0.20    0.29
   1  -5  -6    0.63    0.32
  -1   5   6    0.34    0.33
   1  -5  -5    6.41    0.41
   1   5  -5    6.18    0.51
  -1  -5   5    5.09    0.49
   1  -5  -5    6.55    0.49
  -1   5   5    6.62    0.53
   1  -5  -4   23.77    0.68
  -1  -5   4   23.85    0.87
   1   5  -4   23.72    0.87
  -1   5   4   23.90    0.88
   1  -5  -4   23.01    0.82
   1  -5  -3   24.19    0.58
  -1  -5   3   23.92    0.82
   1   5  -3   23.37    0.80
   1  -5  -3   23.61    0.79
  -1   5   3   25.52    0.85
   1  -5  -2   16.01    0.36
   1   5  -2   15.85    0.63
  -1  -5   2   16.69    0.68
  -1   5   2   16.15    0.68
   1  -5  -2   15.87    0.62
   1  -5  -1  180.15    2.46
   1   5  -1  181.37    2.89
   1  -5  -1  187.40    2.90
  -1  -5   1  186.54    2.91
   1  -5  -1  180.60    2.87
  -1   5   0   68.90    1.20
   1   5   0   73.01    1.52
  -1   5   0   72.50    1.52
  -1  -5   0   73.54    1.53
   1  -5   0   75.71    1.56
   1  -5   1    2.67    0.22
  -1   5  -1    2.15    0.21
   1   5   1    2.11    0.20
   1  -5   1    2.88    0.38
  -1   5  -1    2.08    0.32
  -1  -5  -1    2.20    0.36
  -1  -5  -1    2.25    0.32
  -1  -5  -2    4.65    0.19
   1   5   2    5.05    0.27
  -1   5  -2    4.68    0.32
   1  -5   2    4.92    0.33
  -1  -5  -2    5.44    0.28
   1  -5   2    4.85    0.43
  -1   5  -2    6.12    0.42
  -1  -5  -2    5.41    0.40
   1   5   2    4.58    0.44
  -1  -5  -3   17.84    0.56
   1  -5   3   19.02    0.68
  -1   5  -3   17.17    0.67
   1   5   3   18.61    0.57
   1  -5   3   17.82    0.71
  -1   5  -3   18.32    0.70
   1   5   3   15.91    0.70
  -1  -5  -3   18.24    0.68
   1   5   4    4.07    0.34
  -1   5  -4    3.19    0.38
  -1  -5  -4    3.94    0.32
  -1   5  -4    3.33    0.39
   1  -5   4    3.22    0.39
  -1  -5  -4    3.96    0.40
   1   5   4    3.57    0.42
  -1   5  -5   24.43    0.95
   1   5   5   25.31    0.85
  -1  -5  -5   25.34    0.84
  -1   5  -5   24.59    0.94
   1  -5   5   24.70    0.95
   1   5   5   24.78    0.94
  -1  -5  -5   26.45    0.92
   1  -5   6    0.67    0.32
   1   5   6    0.74    0.29
  -1   5  -6    0.98    0.32
  -1  -5  -6    1.41    0.30
  -1   5  -6    0.45    0.29
  -1  -5  -6    0.48    0.27
   1   5   6    0.55    0.33
   1  -5   7   42.25    1.37
  -1  -5  -7   40.35    1.28
  -1   5  -7   41.42    1.45
   1   5   7   44.34    1.35
  -1   5  -7   43.72    1.43
  -1  -5  -7   44.24    1.38
   1   5   7   41.76    1.38
  -1  -5  -8    3.20    0.48
   1  -5   8    3.07    0.50
  -1   5  -8    3.10    0.50
  -1  -5  -8    3.02    0.43
  -1   5  -8    1.73    0.37
   1   5   8    2.55    0.48
  -1  -5  -9    1.51    0.34
   1  -5   9    1.39    0.41
   1   5   9    1.86    0.46
   1  -5  10    7.29    0.74
   1   5  10    7.71    0.76
   1  -5  11    0.27    0.51
   1   5  11    0.49    0.52
   1  -5  12    3.51    0.64
   1   5  12    4.50    0.73
   1   5  13   24.90    1.45
   1  -5  13   25.87    1.46
   1  -5  14    3.10    0.74
   1   5  14    3.88    0.78
   1  -5  15    0.71    0.56
   1   5  15    0.81    0.57
  -1  -6  15    0.24    0.56
  -1   6  15   -0.11    0.59
  -1  -6  14    1.60    0.65
  -1   6  14    1.76    0.63
  -1  -6  13   -0.33    0.53
  -1   6  13   -0.01    0.55
  -1  -6  12   11.02    0.98
  -1   6  12   11.62    1.01
  -1  -6  11    0.74    0.50
  -1   6  11    2.68    0.61
   1  -6 -10   82.99    2.24
  -1  -6  10   84.30    2.40
  -1   6  10   86.86    2.43
   1  -6  -9   -0.23    0.29
  -1  -6   9    0.30    0.40
  -1   6   9    0.17    0.45
   1  -6  -8    1.97    0.40
  -1  -6   8    1.24    0.43
   1  -6  -8    1.49    0.34
   1   6  -8    1.59    0.43
   1   6  -8    1.70    0.40
  -1   6   8    1.30    0.41
  -1  -6   7    0.54    0.36
   1   6  -7    1.25    0.37
   1  -6  -7    1.19    0.28
   1   6  -7    1.95    0.38
   1  -6  -7    1.12    0.31
  -1   6   7    0.72    0.40
   1   6  -6   61.69    1.68
   1  -6  -6   60.00    1.43
   1   6  -6   64.47    1.73
  -1  -6   6   58.95    1.64
   1  -6  -6   62.73    1.64
  -1   6   6   62.97    1.69
   1  -6  -5  130.87    2.23
   1   6  -5  133.40    2.62
  -1  -6   5  129.41    2.54
   1  -6  -5  132.37    2.54
  -1   6   5  133.46    2.59
   1  -6  -4  487.67    6.40
   1   6  -4  491.45    6.94
  -1  -6   4  479.67    6.87
   1  -6  -4  486.96    6.87
  -1   6   4  485.69    6.91
   1  -6  -3    2.07    0.19
   1   6  -3    1.55    0.30
  -1  -6   3    1.90    0.36
   1  -6  -3    1.90    0.32
  -1   6   3    1.60    0.34
  -1  -6   2  177.68    2.95
   1   6  -2  170.26    2.94
   1  -6  -2  177.22    2.92
   1  -6  -2  175.63    2.95
  -1   6   2  182.08    2.96
   1   6  -1  169.45    2.90
  -1  -6   1  165.61    2.84
   1  -6  -1  173.61    2.90
   1  -6  -1  168.18    2.83
  -1   6   0  342.61    4.60
  -1   6   0  338.73    4.38
   1   6   0  371.87    5.17
  -1   6   0  353.03    5.13
   1  -6   0  370.78    5.16
  -1  -6   0  368.04    5.14
   1   6   1   13.12    0.40
  -1   6  -1   15.52    0.45
  -1   6  -1   16.03    0.71
   1  -6   1   16.26    0.71
  -1  -6  -1   15.19    0.71
  -1  -6  -1   14.44    0.65
   1   6   1   15.81    0.68
  -1  -6  -2    7.87    0.32
   1   6   2    7.51    0.32
  -1   6  -2    7.75    0.40
   1  -6   2    7.90    0.54
  -1   6  -2    8.45    0.52
  -1  -6  -2    7.74    0.49
  -1  -6  -2    7.93    0.55
  -1  -6  -3    1.67    0.21
  -1   6  -3    1.58    0.28
   1   6   3    1.63    0.22
  -1   6  -3    1.42    0.32
   1  -6   3    2.47    0.39
   1   6   3    1.38    0.35
  -1  -6  -3    1.15    0.28
  -1  -6  -4    4.12    0.32
   1   6   4    4.61    0.34
  -1   6  -4    4.28    0.40
   1  -6   4    4.35    0.44
  -1   6  -4    4.26    0.42
   1   6   4    4.04    0.43
  -1  -6  -4    4.52    0.43
  -1   6  -5    0.91    0.31
  -1  -6  -5    0.91    0.23
   1   6   5    1.09    0.28
  -1   6  -5    0.91    0.28
   1  -6   5    0.99    0.33
   1   6   5    0.76    0.34
  -1  -6  -5    0.99    0.32
   1   6   6   18.59    0.77
  -1  -6  -6   18.14    0.76
  -1   6  -6   18.23    0.90
  -1   6  -6   19.04    0.91
   1  -6   6   17.62    0.85
  -1  -6  -6   17.44    0.84
   1   6   6   18.45    0.88
   1  -6   7   14.94    0.83
  -1  -6  -7   15.59    0.77
   1   6   7   16.82    0.80
  -1   6  -7   15.39    0.90
  -1   6  -7   17.59    0.92
   1   6   7   15.66    0.87
  -1  -6  -7   16.70    0.85
   1  -6   8   26.48    1.15
  -1   6  -8   27.01    1.25
  -1  -6  -8   26.26    1.07
  -1   6  -8   27.09    1.20
  -1  -6  -8   26.98    1.14
   1   6   8   25.21    1.14
  -1  -6  -9    0.84    0.34
   1  -6   9    1.40    0.44
   1   6   9    1.31    0.44
   1  -6  10   14.04    0.97
   1   6  10   14.29    0.98
   1  -6  11    3.45    0.62
   1   6  11    3.12    0.64
   1  -6  12   17.91    1.17
   1   6  12   16.71    1.18
   1  -6  13    5.45    0.84
   1   6  13    3.90    0.74
   1  -6  14   37.48    1.84
   1   6  14   38.46    1.88
   1  -6  15    0.55    0.55
   1   6  15    0.89    0.62
  -1  -7  15    1.55    0.64
  -1   7  15    0.65    0.59
  -1  -7  14   -0.07    0.51
  -1   7  14   -0.99    0.65
  -1  -7  13   18.76    1.28
  -1   7  13   17.82    1.27
  -1  -7  12    9.74    0.95
  -1   7  12    8.64    0.89
  -1  -7  11   23.57    1.31
  -1   7  11   24.09    1.34
   1  -7 -10    2.44    0.46
  -1  -7  10    2.12    0.58
  -1   7  10    1.48    0.49
   1  -7  -9   50.89    1.57
  -1  -7   9   50.20    1.75
  -1   7   9   52.75    1.81
   1   7  -8    2.23    0.45
   1  -7  -8    1.84    0.33
  -1  -7   8    1.45    0.44
  -1   7   8    2.29    0.47
  -1  -7   7   23.82    1.08
   1  -7  -7   25.51    0.93
   1   7  -7   24.41    1.11
   1   7  -7   25.69    1.14
  -1  -7   7   24.81    1.10
  -1   7   7   25.93    1.14
   1  -7  -7   27.00    1.11
   1  -7  -6    1.97    0.28
   1   7  -6    1.74    0.37
  -1  -7   6    2.87    0.46
   1   7  -6    2.48    0.42
  -1   7   6    1.64    0.41
   1  -7  -6    2.78    0.39
   1   7  -5   77.07    1.84
   1  -7  -5   75.07    1.47
  -1  -7   5   74.36    1.85
   1   7  -5   78.03    1.91
  -1   7   5   77.91    1.90
   1  -7  -5   75.23    1.82
   1  -7  -4   10.11    0.40
   1   7  -4   10.80    0.65
  -1  -7   4   10.48    0.66
   1  -7  -4   10.24    0.62
  -1   7   4   10.31    0.65
   1  -7  -3  168.49    2.32
  -1  -7   3  165.65    3.00
   1   7  -3  173.50    3.02
  -1   7   3  171.84    3.01
   1  -7  -3  170.06    2.96
   1  -7  -2    0.50    0.12
  -1  -7   2    0.47    0.32
   1   7  -2    0.45    0.26
   1  -7  -2    0.38    0.31
   1  -7  -2    0.66    0.28
   1   7  -1  444.89    6.37
  -1  -7   1  437.33    6.25
   1  -7  -1  443.85    6.35
   1  -7  -1  429.56    6.22
  -1   7   1  416.29    6.24
  -1   7   0    5.35    0.29
  -1   7   0    5.77    0.21
  -1  -7   0    4.90    0.51
   1   7   0    5.56    0.49
   1  -7   0    5.60    0.52
  -1   7   0    5.67    0.49
   1   7   1   77.28    1.29
  -1   7  -1   86.64    1.37
  -1   7  -1   83.24    1.90
   1  -7   1   84.99    1.83
  -1  -7  -1   86.91    1.90
  -1  -7  -1   79.20    1.79
   1   7   1   81.75    1.82
  -1  -7  -2   58.66    1.03
  -1   7  -2   56.63    1.19
   1   7   2   58.01    1.03
   1  -7   2   60.37    1.49
  -1   7  -2   57.40    1.47
  -1  -7  -2   58.07    1.46
  -1  -7  -2   57.67    1.45
  -1  -7  -3   24.82    0.49
  -1   7  -3   25.66    0.83
  -1  -7  -3   25.23    0.66
   1   7   3   25.60    0.66
  -1   7  -3   26.14    0.95
   1  -7   3   25.85    0.95
   1   7   3   24.41    0.93
  -1  -7  -3   25.73    0.91
  -1  -7  -3   26.27    0.98
   1   7   4   33.14    0.87
  -1   7  -4   32.46    1.04
  -1  -7  -4   32.37    0.86
   1  -7   4   33.00    1.11
  -1   7  -4   33.15    1.12
   1   7   4   34.14    1.14
  -1  -7  -4   33.89    1.09
  -1  -7  -5   75.63    1.58
  -1   7  -5   76.65    1.85
   1   7   5   78.23    1.61
   1  -7   5   76.24    1.86
  -1   7  -5   78.17    1.90
  -1  -7  -5   76.97    1.84
   1   7   5   78.48    1.89
   1   7   6   37.73    1.13
  -1   7  -6   38.51    1.31
  -1  -7  -6   35.23    1.08
  -1   7  -6   37.15    1.31
   1  -7   6   36.32    1.27
   1   7   6   37.36    1.29
  -1  -7  -6   36.03    1.24
   1  -7   7   93.67    2.25
  -1  -7  -7   92.14    2.06
   1   7   7   96.38    2.11
  -1   7  -7   94.95    2.36
   1  -7   7   93.18    2.27
  -1   7  -7   97.45    2.36
  -1  -7  -7   95.35    2.26
   1   7   7   97.11    2.32
  -1  -7  -8   31.89    1.17
  -1   7  -8   31.23    1.35
   1  -7   8   31.48    1.29
   1   7   8   33.63    1.35
  -1  -7  -9   51.88    1.64
   1  -7   9   52.27    1.76
   1   7   9   54.44    1.82
  -1  -7 -10    2.21    0.44
   1  -7  10    1.54    0.52
   1   7  10    2.57    0.55
   1  -7  11    9.44    0.88
   1   7  11    8.78    0.88
   1  -7  12    1.51    0.58
   1   7  12   -0.14    0.56
   1  -7  13   49.39    2.03
   1   7  13   48.55    2.06
   1  -7  14    0.49    0.55
   1   7  14    1.00    0.62
   1  -7  15    2.32    0.69
   1   7  15    2.56    0.74
  -1  -8  14    0.60    0.53
  -1   8  14    0.28    0.54
  -1  -8  13    0.78    0.56
  -1   8  13    0.39    0.57
  -1  -8  12   22.44    1.35
  -1   8  12   24.47    1.45
  -1  -8  11   10.17    0.95
  -1   8  11   11.21    0.99
   1  -8 -10   17.82    0.97
  -1  -8  10   17.78    1.11
  -1   8  10   18.78    1.17
   1  -8  -9    0.46    0.26
  -1  -8   9   -0.16    0.45
  -1   8   9    0.75    0.49
   1   8  -8    2.89    0.47
   1  -8  -8    3.46    0.41
  -1  -8   8    3.78    0.54
  -1   8   8    3.77    0.61
   1  -8  -7    1.70    0.31
   1   8  -7    1.14    0.36
  -1  -8   7    1.64    0.45
   1   8  -7    1.76    0.43
   1  -8  -7    1.81    0.40
  -1   8   7    1.92    0.49
   1   8  -6  205.92    3.77
   1  -8  -6  206.53    3.28
  -1  -8   6  202.22    3.77
   1   8  -6  213.54    3.89
   1  -8  -6  207.32    3.76
  -1   8   6  210.48    3.87
   1   8  -5   24.39    0.98
   1  -8  -5   24.72    0.72
   1   8  -5   25.55    1.06
  -1  -8   5   24.01    1.02
  -1   8   5   24.34    1.06
   1  -8  -5   26.73    1.05
   1  -8  -4   58.67    1.08
  -1  -8   4   59.36    1.60
   1   8  -4   59.47    1.61
  -1   8   4   59.71    1.63
   1  -8  -4   57.72    1.56
   1  -8  -3    0.13    0.09
  -1  -8   3    0.04    0.33
   1   8  -3   -0.07    0.26
   1  -8  -3    0.18    0.29
   1  -8  -3    0.09    0.33
  -1  -8   2  243.71    4.00
   1  -8  -2  238.07    4.01
   1   8  -2  243.73    4.03
   1  -8  -2  241.80    3.99
   1  -8  -1    0.41    0.38
  -1  -8   1    0.73    0.35
   1   8  -1    0.98    0.32
   1  -8  -1    1.17    0.33
  -1   8   1    0.62    0.29
  -1   8   0  821.13   10.35
  -1   8   0  802.29   10.06
  -1  -8   0  840.79   11.11
  -1   8   0  851.23   11.13
   1  -8   0  842.79   11.12
   1   8   0  850.04   11.13
  -1   8  -1  163.61    2.32
   1   8   1  154.18    2.23
  -1  -8  -1  164.29    3.04
   1  -8   1  150.41    2.89
  -1   8  -1  160.71    3.06
  -1  -8  -1  152.84    2.92
   1   8   1  151.41    2.92
   1   8   2  263.26    3.55
  -1   8  -2  264.56    3.80
  -1   8  -2  268.11    4.35
  -1  -8  -2  266.90    4.32
   1  -8   2  262.64    4.28
  -1  -8  -2  264.97    4.28
  -1  -8  -3   40.82    0.89
  -1   8  -3   42.20    1.11
   1   8   3   45.28    0.91
  -1   8  -3   42.49    1.32
   1  -8   3   41.15    1.31
  -1  -8  -3   42.79    1.33
  -1  -8  -3   42.52    1.29
   1   8   4   43.04    0.99
  -1   8  -4   41.88    1.21
  -1  -8  -4   40.18    0.97
  -1   8  -4   42.45    1.36
   1  -8   4   39.96    1.31
  -1  -8  -4   42.29    1.30
   1   8   4   43.84    1.37
   1   8   5    1.90    0.28
  -1  -8  -5    1.80    0.26
  -1   8  -5    2.01    0.36
  -1   8  -5    2.30    0.40
   1  -8   5    1.66    0.39
  -1  -8  -5    1.58    0.37
   1   8   5    1.81    0.44
  -1  -8  -6   38.82    1.12
  -1   8  -6   40.77    1.37
   1   8   6   41.76    1.17
   1  -8   6   40.56    1.38
  -1   8  -6   40.65    1.42
   1   8   6   40.39    1.40
  -1  -8  -6   40.02    1.35
  -1  -8  -7   28.69    1.03
  -1   8  -7   30.38    1.26
  -1   8  -7   30.54    1.29
   1  -8   7   29.02    1.23
   1   8   7   28.65    1.25
  -1  -8  -7   30.45    1.21
  -1  -8  -8  138.31    2.80
   1  -8   8  139.68    3.04
   1   8   8  141.44    3.13
  -1  -8  -9    3.58    0.50
   1  -8   9    2.29    0.54
   1   8   9    2.69    0.58
  -1  -8 -10    0.89    0.34
   1  -8  10    0.88    0.49
   1   8  10    0.97    0.47
   1  -8  11    1.78    0.57
   1   8  11    1.45    0.56
   1  -8  12    4.76    0.73
   1   8  12    4.74    0.77
   1  -8  13    0.87    0.66
   1   8  13   -0.03    0.61
   1  -8  14   20.01    1.39
   1   8  14   22.05    1.48
   1  -8  15   -0.65    0.65
  -1  -9  14    0.89    0.60
  -1   9  14   -0.34    0.64
  -1  -9  13   27.95    1.59
  -1   9  13   29.91    1.67
  -1  -9  12   10.26    1.00
  -1   9  12    9.15    1.00
  -1  -9  11   12.07    1.01
  -1   9  11   10.86    0.99
   1  -9 -10   13.12    0.83
  -1  -9  10   13.29    1.02
  -1   9  10   13.41    1.04
   1  -9  -9    6.83    0.57
  -1  -9   9    7.75    0.77
  -1   9   9    7.55    0.79
   1  -9  -8    0.33    0.26
  -1  -9   8    0.57    0.42
  -1   9   8   -0.15    0.43
   1  -9  -7   36.38    1.08
   1   9  -7   34.05    1.33
  -1  -9   7   38.91    1.44
  -1   9   7   37.33    1.48
   1   9  -6   -0.26    0.30
   1  -9  -6    0.25    0.18
   1   9  -6    0.33    0.33
  -1  -9   6   -0.15    0.40
   1  -9  -6    0.51    0.33
  -1   9   6    0.41    0.42
   1   9  -5   91.35    2.10
   1  -9  -5   92.17    1.64
   1   9  -5   96.93    2.31
  -1  -9   5   94.43    2.25
  -1   9   5   93.48    2.30
   1  -9  -5   97.88    2.26
   1  -9  -4   94.61    1.50
   1   9  -4   96.88    2.03
  -1  -9   4   97.24    2.27
   1   9  -4   97.31    2.28
  -1   9   4   99.18    2.29
   1  -9  -4   95.38    2.20
   1  -9  -4   98.45    2.31
   1  -9  -3   22.52    0.47
   1   9  -3   23.85    1.02
  -1  -9   3   21.98    0.98
   1  -9  -3   23.92    1.00
   1  -9  -3   23.97    1.03
   1   9  -2   43.92    1.41
   1  -9  -2   41.61    1.38
  -1  -9   2   39.51    1.33
   1  -9  -2   41.35    1.32
   1  -9  -1   34.73    1.27
  -1  -9   1   30.86    1.18
   1   9  -1   33.90    1.26
   1  -9  -1   31.64    1.16
  -1   9   1   32.07    1.18
  -1   9   0   38.57    0.86
  -1  -9   0   37.39    1.29
  -1   9   0   38.29    1.29
   1  -9   0   39.14    1.31
   1   9   0   38.18    1.29
  -1   9  -1  490.32    6.30
   1   9   1  483.35    6.20
  -1   9  -1  499.26    7.34
   1  -9   1  474.58    7.14
  -1  -9  -1  507.71    7.31
   1   9   1  477.35    7.17
  -1  -9  -1  475.09    7.15
   1   9   2    0.07    0.11
  -1   9  -2    0.33    0.16
   1  -9   2    0.04    0.34
  -1   9  -2   -0.19    0.36
  -1  -9  -2    0.14    0.30
  -1  -9  -2   -0.06    0.36
  -1  -9  -3   29.74    0.70
   1   9   3   31.44    0.71
  -1   9  -3   29.47    0.90
   1  -9   3   31.51    1.19
  -1  -9  -3   29.88    1.14
  -1   9  -3   31.44    1.17
  -1  -9  -3   31.90    1.14
  -1  -9  -4   33.26    0.83
  -1  -9  -4   30.67    0.57
  -1   9  -4   35.28    1.09
   1   9   4   34.79    0.84
  -1   9  -4   35.39    1.27
   1  -9   4   34.90    1.25
  -1  -9  -4   36.60    1.29
  -1  -9  -4   33.05    1.19
  -1  -9  -5   10.03    0.50
  -1   9  -5    9.60    0.64
   1   9   5   11.07    0.52
   1  -9   5   11.79    0.76
  -1   9  -5    9.62    0.69
   1   9   5   11.02    0.77
  -1  -9  -5   11.21    0.72
  -1   9  -6   49.98    1.56
  -1  -9  -6   47.71    1.26
   1   9   6   51.10    1.30
   1  -9   6   49.28    1.62
  -1   9  -6   54.50    1.70
   1   9   6   49.95    1.65
  -1  -9  -6   49.55    1.58
  -1  -9  -7  100.89    2.14
  -1   9  -7  104.09    2.52
   1  -9   7  104.02    2.54
   1   9   7  103.40    2.57
   1  -9   8   12.22    0.89
  -1  -9  -8   12.14    0.72
   1  -9   8   12.38    0.89
   1   9   8   12.69    0.93
  -1  -9  -9   20.73    1.00
   1  -9   9   23.63    1.22
   1   9   9   24.57    1.28
  -1  -9 -10    0.01    0.34
   1  -9  10    0.35    0.46
   1   9  10    0.02    0.47
   1  -9  11   69.84    2.32
   1   9  11   73.96    2.44
   1  -9  12    0.88    0.55
   1   9  12    1.26    0.61
   1  -9  13    0.95    0.64
   1   9  13    2.32    0.71
   1  -9  14    1.81    0.68
   1   9  14    0.62    0.65
  -1 -10  14   -0.40    0.58
  -1  10  14    0.07    0.61
  -1 -10  13    0.10    0.54
  -1  10  13   -0.24    0.54
  -1 -10  12   24.25    1.47
  -1  10  12   24.68    1.49
  -1 -10  11   41.83    1.84
  -1  10  11   47.84    1.99
   1 -10 -10   26.42    1.14
  -1 -10  10   27.53    1.41
  -1  10  10   27.63    1.47
   1 -10  -9   -0.13    0.30
  -1 -10   9    0.08    0.47
  -1  10   9   -0.29    0.48
   1 -10  -8    3.92    0.41
  -1 -10   8    3.40    0.57
  -1  10   8    4.30    0.66
   1  10  -7    7.72    0.68
   1 -10  -7    7.83    0.49
  -1 -10   7    8.42    0.76
  -1  10   7    7.83    0.75
   1  10  -6   73.40    1.95
   1 -10  -6   75.86    1.51
  -1 -10   6   75.42    2.10
  -1  10   6   78.88    2.20
   1  10  -5    7.08    0.55
   1 -10  -5    7.18    0.35
  -1 -10   5    8.09    0.71
   1  10  -5    8.54    0.71
   1 -10  -5    8.02    0.65
  -1  10   5    7.04    0.66
   1 -10  -5    7.46    0.72
   1 -10  -4   91.80    1.34
   1  10  -4   91.35    1.99
  -1 -10   4   92.62    2.29
   1  10  -4   92.42    2.30
   1 -10  -4   92.07    2.28
   1 -10  -4   97.47    2.29
   1 -10  -3   11.25    0.75
  -1 -10   3    9.36    0.73
   1  10  -3   11.32    0.75
   1 -10  -3   11.23    0.73
  -1 -10   2   16.35    0.89
   1 -10  -2   17.18    0.95
   1  10  -2   16.82    0.95
   1 -10  -2   16.67    0.88
   1  10  -1  157.85    3.20
   1 -10  -1  159.14    3.20
  -1 -10   1  147.55    3.05
   1 -10  -1  151.69    3.07
   1  10   0  190.97    2.78
  -1  10   0  196.77    2.87
  -1 -10   0  194.25    3.63
  -1  10   0  199.78    3.68
   1  10   0  200.76    3.67
   1 -10   0  197.24    3.65
  -1  10  -1    3.09    0.30
  -1  10  -1    3.37    0.23
   1  10   1    3.00    0.20
  -1 -10  -1    3.81    0.54
   1 -10   1    3.05    0.52
   1  10   1    3.40    0.46
  -1 -10  -1    2.79    0.44
  -1  10  -1    3.77    0.52
   1  10   2   37.80    0.70
  -1  10  -2   36.55    0.92
  -1 -10  -2   36.18    1.36
   1 -10   2   33.45    1.27
  -1  10  -2   35.15    1.36
  -1 -10  -2   34.32    1.26
  -1  10  -3    3.02    0.32
   1  10   3    3.51    0.23
   1 -10   3    3.55    0.50
  -1  10  -3    3.00    0.54
  -1 -10  -3    3.15    0.48
  -1 -10  -3    3.32    0.53
  -1 -10  -4   -0.07    0.15
   1  10   4    0.29    0.15
  -1  10  -4    0.10    0.22
   1 -10   4    0.03    0.36
  -1  10  -4    0.40    0.35
  -1 -10  -4    0.08    0.31
  -1 -10  -4    0.14    0.36
  -1 -10  -5   16.78    0.43
   1  10   5   17.54    0.63
  -1 -10  -5   16.52    0.62
  -1  10  -5   15.78    0.81
   1 -10   5   17.62    0.97
  -1  10  -5   17.66    0.98
  -1 -10  -5   17.89    0.93
  -1 -10  -5   17.72    0.98
   1  10   5   17.41    0.97
  -1 -10  -6   29.01    0.93
  -1  10  -6   29.40    1.17
   1 -10   6   30.05    1.28
   1  10   6   29.90    1.32
  -1  10  -7   30.41    1.28
  -1 -10  -7   27.95    1.00
   1 -10   7   28.72    1.29
   1  10   7   29.97    1.35
  -1 -10  -8  140.89    2.80
   1 -10   8  137.27    3.21
   1  10   8  146.87    3.35
  -1 -10  -9    0.35    0.30
   1 -10   9    0.64    0.48
   1  10   9    0.11    0.46
  -1 -10 -10    4.50    0.56
   1 -10  10    5.72    0.72
   1  10  10    4.78    0.73
   1 -10  11   22.07    1.33
   1  10  11   26.69    1.49
   1 -10  12    0.93    0.55
   1  10  12    0.79    0.56
   1 -10  13   49.02    2.12
   1  10  13   50.32    2.19
   1 -10  14    7.73    0.95
   1  10  14    7.10    0.97
  -1 -11  13    1.73    0.59
  -1  11  13    0.99    0.62
  -1 -11  12    3.10    0.70
  -1  11  12    2.25    0.71
  -1 -11  11   46.76    1.96
  -1  11  11   47.80    2.05
   1 -11 -10    0.83    0.35
  -1 -11  10    0.47    0.50
  -1  11  10    1.47    0.60
  -1 -11   9    3.82    0.64
   1 -11  -9    3.55    0.43
  -1 -11   9    4.69    0.70
  -1  11   9    4.84    0.70
   1 -11  -8   19.30    0.82
  -1 -11   8   20.52    1.18
  -1  11   8   21.16    1.23
   1 -11  -7  113.69    2.13
   1  11  -7  109.45    2.65
  -1 -11   7  113.71    2.84
  -1  11   7  118.54    2.95
   1  11  -6   21.41    1.03
   1 -11  -6   23.07    0.70
  -1 -11   6   23.25    1.18
  -1  11   6   23.44    1.22
   1 -11  -5   50.57    0.94
   1  11  -5   47.14    1.44
  -1 -11   5   50.39    1.72
   1 -11  -5   51.12    1.75
   1  11  -4  124.55    2.49
   1  11  -4  130.74    2.94
  -1 -11   4  127.85    2.92
   1 -11  -4  130.41    2.93
   1 -11  -4  135.02    2.91
   1  11  -3  126.71    2.37
  -1 -11   3  124.09    2.85
   1 -11  -3  134.94    2.96
   1  11  -3  133.65    2.95
   1 -11  -3  126.16    2.81
   1 -11  -2   69.85    2.03
   1  11  -2   69.64    2.05
  -1 -11   2   62.76    1.86
   1 -11  -2   65.86    1.90
   1  11  -1  155.17    3.25
  -1 -11   1  146.71    3.12
   1 -11  -1  150.95    3.20
   1 -11  -1  148.49    3.13
  -1  11   0   61.30    1.20
   1  11   0   61.15    1.12
  -1 -11   0   61.67    1.83
   1 -11   0   61.77    1.84
  -1  11   0   63.42    1.85
   1  11   0   64.39    1.85
  -1  11  -1   61.11    1.34
  -1  11  -1   59.30    1.11
   1  11   1   64.76    1.02
  -1 -11  -1   60.82    1.85
   1 -11   1   57.52    1.79
  -1  11  -1   64.22    1.89
  -1 -11  -1   62.41    1.84
   1  11   1   61.35    1.85
  -1  11  -2    0.14    0.15
   1  11   2    0.26    0.09
   1 -11   2   -0.38    0.41
  -1  11  -2   -0.02    0.32
  -1 -11  -2   -0.16    0.43
  -1 -11  -2    0.01    0.33
  -1  11  -3    5.92    0.42
   1  11   3    6.10    0.26
  -1  11  -3    5.78    0.61
   1 -11   3    5.40    0.61
  -1 -11  -3    6.08    0.60
  -1 -11  -3    5.91    0.65
  -1  11  -4    0.25    0.22
   1  11   4    0.61    0.16
   1 -11   4    0.37    0.38
  -1  11  -4    0.24    0.32
  -1 -11  -4    0.08    0.32
  -1 -11  -4    0.31    0.38
  -1 -11  -5   82.32    1.58
  -1  11  -5   83.93    1.99
   1 -11   5   82.45    2.26
  -1 -11  -5   86.80    2.33
  -1 -11  -6   92.18    1.51
  -1 -11  -6   94.26    1.86
  -1  11  -6   93.43    2.28
   1 -11   6   96.88    2.49
  -1 -11  -6  101.02    2.62
   1  11   6   95.92    2.57
  -1 -11  -7   87.95    1.91
  -1  11  -7   87.75    2.30
   1 -11   7   86.90    2.43
   1  11   7   87.68    2.49
  -1 -11  -8    1.62    0.35
   1 -11   8    1.54    0.54
   1  11   8    1.32    0.59
   1 -11   9   18.42    1.17
  -1 -11  -9   18.20    0.93
   1 -11   9   20.66    1.23
   1  11   9   20.60    1.27
  -1 -11 -10   -0.08    0.33
   1 -11  10   -0.06    0.49
   1  11  10   -0.53    0.58
   1 -11  11   -0.24    0.49
   1  11  11    0.10    0.54
   1 -11  12    4.84    0.84
   1  11  12    5.17    0.84
   1 -11  13   30.32    1.70
   1  11  13   32.94    1.83
  -1 -12  13    2.97    0.73
  -1  12  13    2.49    0.71
  -1 -12  12    5.19    0.81
  -1  12  12    7.03    0.96
  -1 -12  11    6.57    0.87
  -1  12  11    9.13    1.02
  -1 -12  10    3.58    0.70
  -1  12  10    5.08    0.79
   1 -12  -9   26.85    1.02
  -1 -12   9   26.29    1.42
  -1  12   9   26.35    1.48
   1 -12  -8    2.42    0.32
  -1 -12   8    3.02    0.59
  -1  12   8    2.18    0.64
   1 -12  -7    4.71    0.36
   1  12  -7    3.70    0.52
  -1 -12   7    4.05    0.63
  -1  12   7    4.17    0.66
   1  12  -6   21.26    1.01
   1 -12  -6   22.12    0.62
  -1 -12   6   22.70    1.21
   1 -12  -6   23.22    1.27
   1  12  -5    7.54    0.58
  -1 -12   5    7.09    0.72
   1 -12  -5    7.82    0.78
   1  12  -4   94.36    2.04
  -1 -12   4   91.50    2.47
   1 -12  -4   95.01    2.51
   1  12  -3   14.36    0.65
   1 -12  -3   13.44    0.93
  -1 -12   3   13.45    0.91
   1  12  -2   11.62    0.53
   1  12  -2   12.61    0.89
   1 -12  -2   10.95    0.84
  -1 -12   2   11.85    0.84
   1 -12  -2   11.93    0.82
   1  12  -1    4.78    0.31
  -1 -12   1    4.14    0.58
   1 -12  -1    3.65    0.58
   1 -12  -1    5.05    0.58
   1  12  -1    4.78    0.58
   1  12   0  124.01    1.86
  -1  12   0  120.59    1.97
   1  12   0  116.87    1.73
  -1 -12   0  126.17    2.87
   1 -12   0  122.69    2.83
  -1  12   0  128.60    2.87
   1  12   0  129.21    2.89
  -1  12  -1   49.33    1.18
   1  12   1   49.31    0.80
  -1  12  -1   48.93    0.95
  -1 -12  -1   48.48    1.68
  -1  12  -1   52.56    1.75
   1 -12   1   47.62    1.66
  -1 -12  -1   52.72    1.72
  -1  12  -2    1.45    0.22
  -1 -12  -2    1.45    0.47
   1 -12   2    1.78    0.48
  -1 -12  -2    1.67    0.41
  -1  12  -2    1.67    0.45
  -1  12  -3    4.45    0.37
   1 -12   3    3.31    0.51
  -1 -12  -3    3.89    0.59
  -1  12  -4    1.09    0.27
   1 -12   4    0.89    0.45
  -1 -12  -4    1.32    0.49
  -1 -12  -5   30.58    0.80
  -1  12  -5   31.73    1.15
  -1 -12  -5   32.54    1.44
   1 -12   5   32.71    1.41
  -1 -12  -6  101.35    1.93
  -1  12  -6  102.02    2.41
   1 -12   6  106.76    2.73
  -1 -12  -6  105.09    2.76
  -1 -12  -7    5.88    0.32
  -1  12  -7    5.73    0.60
  -1 -12  -7    5.62    0.44
   1 -12   7    6.83    0.76
   1  12   7    5.07    0.71
  -1 -12  -7    5.43    0.74
  -1 -12  -8    6.10    0.51
   1 -12   8    5.56    0.75
   1  12   8    4.30    0.73
  -1 -12  -9    0.42    0.32
   1 -12   9    0.08    0.48
   1  12   9   -0.15    0.52
   1 -12  10    1.69    0.56
   1  12  10    2.80    0.68
   1 -12  11    5.73    0.84
   1  12  11    8.06    0.95
   1 -12  12   13.54    1.16
   1  12  12   13.80    1.20
   1 -12  13    6.57    0.93
   1  12  13    7.93    1.01
  -1 -13  12   12.23    1.16
  -1  13  12   13.39    1.26
  -1 -13  11   18.79    1.32
  -1  13  11   20.66    1.45
  -1 -13  10    0.73    0.52
  -1  13  10    1.76    0.64
  -1 -13   9   30.86    1.56
  -1  13   9   31.54    1.65
   1 -13  -8   52.64    1.31
  -1 -13   8   52.15    2.01
   1 -13  -8   56.91    2.16
  -1  13   8   54.33    2.13
   1  13  -7    0.12    0.30
   1 -13  -7    0.08    0.17
  -1 -13   7   -0.19    0.48
   1 -13  -7    0.17    0.49
   1 -13  -6    6.14    0.27
   1  13  -6    6.10    0.58
  -1 -13   6    7.45    0.82
   1 -13  -6    8.09    0.84
   1  13  -5    1.21    0.33
  -1 -13   5    1.16    0.48
   1 -13  -5    0.85    0.48
   1 -13  -4   27.31    1.36
  -1 -13   4   23.87    1.28
   1  13  -4   26.10    0.97
   1 -13  -3   76.96    2.35
  -1 -13   3   68.69    2.14
   1  13  -3   74.73    1.64
  -1 -13   2   36.34    1.49
   1 -13  -2   37.51    1.57
   1  13  -2   36.62    0.97
   1 -13  -1    2.32    0.52
  -1 -13   1    2.06    0.48
   1  13  -1    2.10    0.21
   1  13   0   27.34    0.60
   1  13   0   22.05    0.47
  -1 -13   0   25.49    1.25
   1 -13   0   25.37    1.29
   1  13   0   24.92    0.56
  -1  13  -1   73.88    1.52
  -1 -13  -1   74.03    2.18
   1 -13   1   74.65    2.19
  -1  13  -1   71.12    1.22
  -1  13  -2   15.02    0.68
  -1  13  -2   13.05    0.53
  -1 -13  -2   13.98    1.00
   1 -13   2   12.55    0.92
  -1  13  -3    6.19    0.42
  -1 -13  -3    4.70    0.64
   1 -13   3    3.43    0.54
  -1  13  -4    0.97    0.26
   1 -13   4    0.44    0.42
  -1 -13  -4    0.35    0.45
  -1  13  -5    1.45    0.34
   1 -13   5    1.87    0.54
  -1 -13  -5    2.15    0.55
  -1 -13  -6    1.87    0.25
  -1  13  -6    2.14    0.41
   1 -13   6    2.71    0.62
  -1 -13  -6    2.81    0.61
  -1  13  -7    0.64    0.34
  -1 -13  -7    1.50    0.31
   1 -13   7    1.82    0.59
  -1 -13  -7    2.58    0.67
  -1 -13  -8   24.47    0.94
   1 -13   8   25.26    1.42
  -1 -13  -8   25.00    1.46
   1  13   8   24.60    1.42
   1 -13   9    5.88    0.82
   1  13   9    5.61    0.82
   1 -13  10    0.65    0.58
   1  13  10    0.11    0.58
   1 -13  11   12.45    1.10
   1  13  11   12.08    1.14
   1 -13  12   -0.47    0.58
   1  13  12   -0.85    0.64
  -1 -14  12   23.78    1.57
  -1  14  12   25.91    1.69
  -1 -14  11   11.33    1.09
  -1  14  11   12.53    1.23
  -1 -14  10    0.82    0.58
  -1 -14  10    1.22    0.58
  -1  14  10    0.31    0.58
  -1 -14   9    6.51    0.89
  -1  14   9    6.39    0.87
   1 -14  -9    6.95    0.93
  -1 -14   8   46.56    1.95
   1 -14  -8   50.73    2.09
  -1 -14   7    0.86    0.59
   1 -14  -7    1.77    0.64
   1  14  -6   61.04    1.80
   1 -14  -6   67.63    2.30
  -1 -14   6   65.15    2.23
   1  14  -5    8.96    0.63
  -1 -14   5    8.44    0.85
   1 -14  -5    8.58    0.90
   1 -14  -4   16.29    1.13
  -1 -14   4   15.13    1.06
   1  14  -4   16.20    0.76
   1 -14  -3   67.42    2.27
  -1 -14   3   60.44    2.07
   1  14  -3   66.06    1.52
   1 -14  -2    0.66    0.48
  -1 -14   2    0.91    0.46
   1  14  -2    0.75    0.20
   1 -14  -1    0.62    0.44
  -1 -14   1    0.73    0.43
   1  14  -1    0.88    0.18
   1  14   0   60.22    0.98
   1 -14   0   61.43    2.03
  -1 -14   0   62.70    2.04
   1  14   0   55.45    0.94
  -1  14  -1   21.22    0.73
   1 -14   1   21.62    1.21
  -1 -14  -1   20.63    1.18
  -1  14  -1   19.77    0.48
  -1  14  -2   30.27    1.00
  -1  14  -2   27.83    0.81
   1 -14   2   29.28    1.38
  -1 -14  -2   31.05    1.46
  -1  14  -3   23.81    0.83
   1 -14   3   22.17    1.23
  -1 -14  -3   23.21    1.33
  -1  14  -4    2.29    0.34
   1 -14   4    2.27    0.56
  -1 -14  -4    2.01    0.56
  -1  14  -5    6.74    0.55
   1 -14   5    7.10    0.80
  -1 -14  -5    8.71    0.90
  -1  14  -6    0.29    0.28
   1 -14   6    0.77    0.47
  -1 -14  -6    0.64    0.52
   1 -14   7   17.87    1.20
  -1 -14  -7   18.60    1.26
   1 -14   8   60.87    2.24
  -1 -14  -8   63.86    2.36
   1 -14   9    1.71    0.61
  -1 -14  -9    2.87    0.74
   1 -14  10    9.47    1.02
   1 -14  10    9.89    1.02
  -1 -14 -10    9.04    1.02
   1  14  10    8.02    0.93
   1 -14  11    1.40    0.60
   1  14  11    3.34    0.80
   1 -14  12   10.64    1.12
   1  14  12   12.77    1.25
  -1 -15  11    6.75    0.92
   1 -15 -11    7.23    1.02
  -1  15  11    5.38    0.95
  -1 -15  10   10.96    1.09
   1 -15 -10   10.78    1.17
  -1  15  10    9.49    1.10
  -1 -15   9   17.25    1.30
   1 -15  -9   18.14    1.34
  -1 -15   8    1.08    0.60
   1 -15  -8    0.70    0.52
  -1 -15   7    7.94    0.91
   1 -15  -7    7.87    0.91
   1  15  -6    0.54    0.30
  -1 -15   6    0.46    0.51
   1 -15  -6    0.71    0.54
   1 -15  -5   46.96    1.97
  -1 -15   5   43.16    1.85
   1  15  -5   43.38    1.39
   1 -15  -4   74.34    2.52
  -1 -15   4   67.37    2.31
   1  15  -4   75.67    1.79
  -1 -15   3   25.47    1.38
   1 -15  -3   26.00    1.45
   1  15  -3   26.49    0.90
   1 -15  -2   35.55    1.62
  -1 -15   2   33.88    1.54
   1  15  -2   33.10    0.91
   1  15  -1    0.15    0.14
   1  15  -1    0.46    0.16
  -1 -15   1   -0.01    0.45
   1 -15  -1   -0.28    0.48
   1  15  -1    0.10    0.13
   1 -15   0   52.78    1.95
  -1 -15   0   52.16    1.94
  -1  15  -1  183.78    2.97
   1 -15   1  190.26    4.09
  -1 -15  -1  189.33    4.09
  -1  15  -2   -0.13    0.23
  -1  15  -2   -0.14    0.15
  -1 -15  -2   -0.05    0.49
   1 -15   2   -0.35    0.50
  -1  15  -3    0.23    0.19
   1 -15   3   -0.05    0.43
  -1 -15  -3    0.54    0.52
  -1  15  -4    0.10    0.25
  -1 -15  -4   -0.43    0.56
   1 -15   4   -0.28    0.45
  -1  15  -5   15.32    0.80
   1 -15   5   14.38    1.11
  -1 -15  -5   16.15    1.19
  -1  15  -6   28.52    1.21
   1 -15   6   31.12    1.58
  -1 -15  -6   30.05    1.61
   1 -15   7   13.83    1.13
  -1 -15  -7   15.80    1.25
   1 -15   8    1.54    0.65
  -1 -15  -8    2.16    0.66
   1 -15   9   18.26    1.31
  -1 -15  -9   17.37    1.34
   1 -15  10    4.57    0.82
  -1 -15 -10    4.87    0.86
   1 -15  11    5.06    0.81
  -1 -15 -11    6.11    0.95
  -1 -16  10    3.11    0.80
   1 -16 -10    5.01    0.88
  -1 -16   9    3.64    0.78
   1 -16  -9    3.21    0.81
  -1 -16   8    1.20    0.62
   1 -16  -8    0.88    0.64
  -1 -16   7   12.20    1.10
   1 -16  -7   12.58    1.14
   1  16  -6    9.70    0.71
  -1 -16   6   11.17    1.06
   1 -16  -6   10.72    1.08
   1  16  -5    4.97    0.50
  -1 -16   5    4.51    0.72
   1 -16  -5    4.55    1.06
  -1 -16   4   33.96    1.65
   1 -16  -4   36.42    1.81
   1  16  -4   35.11    1.14
  -1 -16   3    6.11    0.80
   1 -16  -3    5.44    0.78
   1  16  -3    5.87    0.44
   1 -16  -2    1.76    0.57
  -1 -16   2    1.12    0.50
   1  16  -2    1.63    0.23
   1  16  -1   63.42    1.19
   1  16  -1   68.52    1.19
   1 -16  -1   70.94    2.34
  -1 -16   1   71.23    2.34
   1  16  -1   65.99    1.15
  -1 -16   0   36.85    1.68
   1 -16   0   37.77    1.68
  -1  16  -1    0.42    0.18
  -1 -16  -1    1.84    0.58
   1 -16   1    0.48    0.48
  -1  16  -2    0.54    0.23
  -1 -16  -2    1.06    0.51
   1 -16   2    1.08    0.49
  -1  16  -2    2.13    0.22
  -1  16  -3    9.14    0.62
  -1  16  -3    9.36    0.50
  -1 -16  -3    9.74    0.97
   1 -16   3    9.12    0.91
  -1  16  -4    0.44    0.22
   1 -16   4   -0.04    0.49
  -1  16  -5   14.14    0.78
  -1 -16  -5   14.94    1.22
   1 -16   5   13.39    1.11
   1 -16   6   12.17    1.05
  -1 -16  -6   12.02    1.14
   1 -16   7    7.27    0.91
  -1 -16  -7    7.99    0.98
  -1 -16  -8   24.45    1.56
   1 -16   8   24.86    1.52
   1 -16   9    0.32    0.59
  -1 -16  -9    1.61    0.71
   1 -16  10    0.19    0.59
  -1 -16 -10    0.81    0.62
  -1 -17   9    0.66    0.64
   1 -17  -9   -0.12    0.57
  -1 -17   8    2.35    0.65
   1 -17  -8    2.09    0.74
  -1 -17   7   20.84    1.42
   1 -17  -7   21.97    1.55
   1 -17  -6   18.71    1.43
  -1 -17   6   17.07    1.29
  -1 -17   5   17.95    1.29
   1 -17  -5   19.78    1.45
   1 -17  -4   28.83    1.66
  -1 -17   4   24.77    1.47
  -1 -17   3    3.89    0.73
   1 -17  -3    3.10    0.70
   1 -17  -2   17.75    1.26
  -1 -17   2   18.55    1.27
   1 -17  -1   86.94    2.71
  -1 -17   1   82.76    2.66
   1 -17   0   25.59    1.45
  -1 -17   0   26.14    1.47
   1 -17   1   50.71    2.05
  -1 -17  -1   52.83    2.08
  -1 -17  -2   29.88    1.57
   1 -17   2   29.33    1.57
  -1 -17  -3    3.22    0.70
   1 -17   3    2.15    0.65
   1 -17   4   -0.39    0.53
  -1 -17  -4    0.38    0.56
  -1 -17  -5    4.27    0.76
   1 -17   5    4.42    0.75
   1 -17   6   31.55    1.72
  -1 -17  -6   34.15    1.90
   1 -17   7   15.82    1.26
  -1 -17  -7   18.40    1.41
   1 -17   8   12.53    1.19
  -1 -17  -8   13.75    1.29
   1 -17   9    9.06    1.05
  -1 -17  -9   10.00    1.11
  -1 -18   8    3.45    0.77
   1 -18  -8    3.93    0.90
  -1 -18   7   12.38    1.16
   1 -18  -7   15.51    1.38
   1 -18  -6   20.02    1.55
  -1 -18   6   17.60    1.33
  -1 -18   5   24.28    1.52
   1 -18  -5   27.09    1.71
   1 -18  -4   13.45    1.23
  -1 -18   4   12.50    1.12
  -1 -18   3    3.78    0.76
   1 -18  -3    3.50    0.72
   1 -18  -2    0.80    0.57
  -1 -18   2    1.55    0.65
   1 -18  -1   17.13    1.25
  -1 -18   1   15.84    1.20
   1 -18   0   41.58    1.89
  -1 -18   0   41.29    1.89
  -1 -18  -1   26.31    1.52
   1 -18   1   25.57    1.50
  -1 -18  -2    7.57    0.91
   1 -18   2    8.22    0.96
  -1 -18  -3   12.03    1.11
   1 -18   3   12.39    1.12
   1 -18   4    0.62    0.55
  -1 -18  -4   -0.30    0.60
   1 -18   5   16.22    1.26
  -1 -18  -5   17.01    1.38
   1 -18   6   23.03    1.52
  -1 -18  -6   23.74    1.67
   1 -18   7    8.91    1.02
  -1 -18  -7    9.45    1.17
   1 -18   8   11.74    1.16
  -1 -18  -8   13.53    1.32
   1 -19  -7   21.02    1.63
  -1 -19   7   17.94    1.42
  -1 -19   6   22.81    1.57
   1 -19  -6   25.87    1.78
   1 -19  -5   32.54    1.93
  -1 -19   5   34.31    1.85
   1 -19  -4   13.07    1.21
  -1 -19   4   14.68    1.26
   1 -19  -3    0.99    0.62
  -1 -19   3    2.24    0.71
   1 -19  -2    0.95    0.60
  -1 -19   2    1.17    0.65
  -1 -19   1    2.90    0.67
   1 -19  -1    2.83    0.67
   1 -19   0   13.02    1.16
  -1 -19   0   14.17    1.19
  -1 -19  -1   53.28    2.22
   1 -19   1   54.18    2.25
   1 -19   2   37.39    1.85
  -1 -19  -2   36.70    1.85
  -1 -19  -3    0.91    0.56
   1 -19   3    0.02    0.57
  -1 -19  -4    6.16    0.95
   1 -19   4    8.91    1.02
   1 -19   5    4.53    0.82
  -1 -19  -5    5.12    0.92
   1 -19   6    7.68    0.99
  -1 -19  -6    9.32    1.17
  -1 -19  -7    5.24    1.04
   1 -19   7    4.16    0.81
  -1 -20   5    9.69    1.10
   1 -20  -5   10.77    1.19
   1 -20  -4   -0.06    0.57
  -1 -20   4    0.40    0.59
   1 -20  -3    2.20    0.75
  -1 -20   3    3.01    0.80
   1 -20  -2    4.24    0.78
  -1 -20   2    4.34    0.81
   1 -20  -1   17.01    1.34
  -1 -20   1   16.97    1.31
  -1 -20   0    4.94    0.91
   1 -20   0    4.41    0.79
   1 -20   1    8.92    1.04
  -1 -20  -1    9.77    1.06
   1 -20   2   23.97    1.56
  -1 -20  -2   21.91    1.50
  -1 -20  -3    0.09    0.56
   1 -20   3    0.65    0.61
  -1 -20  -4   10.70    1.17
   1 -20   4   11.89    1.18
   1 -20   5   10.09    1.10
  -1 -20  -5    9.68    1.16
  -1 -21   3    1.67    0.68
   1 -21  -2    4.90    0.87
  -1 -21   2    5.51    0.88
   1 -21  -1    2.21    0.72
  -1 -21   1    3.76    0.80
   1 -21   0   18.81    1.42
  -1 -21   0   18.46    1.42
  -1 -21  -1   19.99    1.46
   1 -21   1   19.55    1.44
  -1 -21  -2    2.73    0.73
   1 -21   2    4.00    0.83
  -1 -21  -3   -0.48    0.59
  -2   0  15   -0.02    0.56
  -2   0  14    1.11    0.62
  -2   0  13   -1.15    0.56
  -2   0  12   44.26    1.81
  -2   0  11    0.13    0.49
  -2   0  10   58.07    1.90
   2   0  -9    0.34    0.35
  -2   0   9   -0.48    0.44
   2   0  -9   -0.06    0.35
   2   0  -8   39.48    1.42
   2   0  -8   40.51    1.36
  -2   0   8   36.72    1.32
   2   0  -7   -0.22    0.33
  -2   0   7   -0.68    0.39
   2   0  -6  130.27    2.51
  -2   0   6  133.44    2.53
   2   0  -5   -0.42    0.28
  -2   0   5    0.11    0.32
   2   0  -4  746.32    9.72
  -2   0   4  744.82    9.73
  -2   0   3    0.02    0.24
   2   0  -3    1.18    0.26
   2   0  -2 1733.52   21.35
  -2   0   2 1747.79   21.35
   2   0  -1    0.13    0.10
  -2   0   1    0.20    0.13
  -2   0   0    5.17    0.29
   2   0   0    5.57    0.29
   2   0   1    0.42    0.21
  -2   0  -1    0.60    0.20
  -2   0  -1    0.68    0.20
   2   0   1    0.20    0.20
   2   0   2 1507.16   18.45
  -2   0  -2 1497.79   18.45
  -2   0  -2 1484.83   18.15
   2   0   2 1463.16   18.15
  -2   0  -3   -0.01    0.26
   2   0   3   -0.28    0.30
   2   0   3    0.16    0.22
  -2   0  -3    0.35    0.20
   2   0   4   38.26    1.06
  -2   0  -4   36.14    1.06
  -2   0  -4   38.53    0.94
   2   0   4   37.41    0.94
  -2   0  -5    0.18    0.25
   2   0   5   -0.20    0.30
   2   0   5    0.07    0.27
  -2   0  -5    0.57    0.26
  -2   0  -6   48.81    1.40
   2   0   6   46.91    1.37
  -2   0  -6   46.85    1.26
   2   0   6   45.33    1.25
   2   0   7    1.15    0.40
  -2   0  -7    0.54    0.34
  -2   0  -7   -0.30    0.31
   2   0   7   -0.75    0.37
  -2   0  -8  260.78    4.61
   2   0   8  252.88    4.54
  -2   0  -8  264.82    4.41
   2   0   8  258.26    4.37
  -2   0  -9   -0.85    0.42
   2   0   9   -0.37    0.44
   2   0  10  140.94    3.10
   2   0  11   -0.01    0.45
   2   0  12  113.79    2.99
   2   0  13    0.29    0.52
   2   0  14   16.64    1.23
   2   0  15   -0.44    0.60
   2   0  16    4.34    0.83
  -2  -1  15    5.38    0.85
  -2   1  15    6.65    0.93
  -2  -1  14    0.34    0.54
  -2   1  14   -0.41    0.54
  -2  -1  13    2.70    0.64
  -2   1  13    2.67    0.67
  -2  -1  12    5.11    0.73
  -2   1  12    5.10    0.74
  -2  -1  11  109.49    2.82
  -2   1  11  109.95    2.83
  -2  -1  10    4.28    0.59
  -2   1  10    6.55    0.70
   2   1  -9   18.87    1.03
   2  -1  -9   18.57    1.01
   2   1  -9   18.58    0.97
   2  -1  -9   19.62    1.00
  -2  -1   9   17.36    0.98
  -2   1   9   17.79    0.99
   2   1  -8    3.40    0.52
   2  -1  -8    2.25    0.45
   2   1  -8    2.66    0.44
   2  -1  -8    2.02    0.38
  -2  -1   8    2.61    0.47
  -2   1   8    2.83    0.48
   2   1  -7   73.96    1.83
   2  -1  -7   75.82    1.85
  -2   1   7   73.09    1.83
  -2  -1   7   76.59    1.86
  -2  -1   6   84.34    1.89
   2  -1  -6   84.85    1.86
   2   1  -6   82.32    1.86
  -2   1   6   83.89    1.88
  -2  -1   5  351.80    5.12
   2   1  -5  346.78    5.12
   2  -1  -5  349.41    5.11
  -2   1   5  356.53    5.13
   2   1  -4   11.06    0.53
  -2  -1   4   12.64    0.60
   2  -1  -4   11.48    0.54
  -2   1   4   10.67    0.57
   2   1  -3  147.26    2.36
  -2  -1   3  153.73    2.38
  -2   1   3  152.03    2.36
   2  -1  -3  151.95    2.34
  -2  -1   2  109.47    1.70
   2   1  -2  107.34    1.67
  -2   1   2  107.98    1.67
   2  -1  -2  107.68    1.67
   2   1  -1    6.18    0.23
  -2  -1   1    5.70    0.23
  -2   1   1    5.95    0.24
   2  -1  -1    5.79    0.22
   2   1   0  196.54    2.80
   2  -1   0  201.03    2.75
   2  -1   0  196.18    2.78
  -2   1   0  194.86    2.75
  -2  -1  -1  407.34    5.38
   2   1   1  413.17    5.35
  -2  -1  -1  413.42    5.34
  -2   1  -1  406.41    5.41
   2  -1   1  414.26    5.42
  -2   1  -1  405.33    5.37
   2  -1   1  420.49    5.38
   2   1   1  419.02    5.40
  -2   1  -1  405.81    5.13
   2  -1   1  413.32    5.13
  -2  -1  -1  404.42    5.10
   2   1   1  399.54    5.11
   2  -1   2  109.43    1.63
   2   1   2  111.37    1.84
  -2  -1  -2  109.75    1.84
   2  -1   2  108.74    1.84
  -2   1  -2  104.72    1.83
  -2   1  -2  111.05    1.67
  -2  -1  -2  108.50    1.63
   2   1   2  110.10    1.63
  -2   1  -3   71.90    1.29
   2  -1   3   72.81    1.30
  -2  -1  -3   71.37    1.44
   2   1   3   70.91    1.44
  -2   1  -3   72.06    1.47
   2  -1   3   69.94    1.45
  -2   1  -3   70.74    1.32
   2   1   3   73.17    1.30
  -2  -1  -3   70.29    1.28
   2  -1   4   11.73    0.60
   2   1   4   12.01    0.59
  -2   1  -4   11.96    0.59
  -2  -1  -4   12.23    0.60
   2  -1   4   10.84    0.52
  -2   1  -4   11.41    0.50
   2   1   4   11.28    0.52
  -2  -1  -4   12.92    0.53
  -2  -1  -5    1.57    0.30
  -2   1  -5    1.72    0.33
   2  -1   5    1.12    0.32
   2   1   5    1.60    0.42
  -2  -1  -5    1.25    0.27
   2  -1   5    1.00    0.29
  -2   1  -5    1.71    0.29
   2   1   5    1.66    0.33
   2  -1   6    0.54    0.34
   2   1   6   -0.04    0.30
  -2  -1  -6    0.25    0.26
  -2   1  -6    0.53    0.29
  -2  -1  -6    0.07    0.25
  -2   1  -6   -0.08    0.27
   2  -1   6    0.45    0.31
   2   1   6    0.70    0.31
  -2  -1  -7   85.00    2.08
  -2   1  -7   87.94    2.13
   2   1   7   85.67    2.08
   2  -1   7   85.48    2.10
  -2  -1  -7   86.84    1.97
  -2   1  -7   84.03    1.93
   2  -1   7   83.95    1.94
   2   1   7   84.27    1.93
  -2   1  -8    2.14    0.49
  -2  -1  -8    2.30    0.49
   2   1   8    2.38    0.52
   2  -1   8    2.41    0.53
  -2   1  -8    0.41    0.32
   2  -1   8    0.20    0.38
  -2  -1  -8    0.29    0.34
   2   1   8    0.18    0.36
   2  -1   9  153.89    3.35
   2   1   9  155.78    3.35
  -2  -1  -9  157.52    3.38
  -2   1  -9  161.46    3.22
  -2  -1  -9  162.70    3.24
   2   1   9  153.72    3.15
   2  -1   9  153.47    3.16
   2  -1  10    4.68    0.61
   2   1  10    4.65    0.59
   2   1  11   33.00    1.44
   2  -1  11   32.31    1.44
   2   1  12   12.06    1.00
   2  -1  12   11.82    0.98
   2   1  13   43.56    1.86
   2  -1  13   42.05    1.82
   2  -1  14    2.94    0.70
   2   1  14    4.51    0.80
   2   1  15    3.22    0.73
   2  -1  15    1.39    0.60
   2   1  16    0.45    0.62
   2  -1  16    0.03    0.59
  -2  -2  15    1.52    0.65
  -2   2  15    3.33    0.79
  -2   2  14    0.74    0.55
  -2  -2  14    0.52    0.54
  -2  -2  13   12.22    1.05
  -2   2  13   13.09    1.10
  -2  -2  12   -0.39    0.56
  -2   2  12    0.74    0.49
  -2  -2  11    2.96    0.59
  -2   2  11    2.51    0.55
  -2   2  10   57.80    1.86
  -2  -2  10   54.15    1.82
   2  -2  -9   49.54    1.62
   2  -2  -9   48.50    1.64
   2   2  -9   49.08    1.71
   2   2  -9   46.17    1.58
  -2   2   9   49.70    1.63
  -2  -2   9   48.70    1.64
  -2  -2   8   76.35    2.00
   2  -2  -8   79.65    2.01
   2  -2  -8   78.22    2.03
   2   2  -8   77.43    2.11
   2   2  -8   80.92    2.02
  -2   2   8   77.67    2.00
   2  -2  -7   34.75    1.18
  -2  -2   7   34.90    1.20
   2  -2  -7   32.80    1.17
   2   2  -7   33.22    1.16
  -2   2   7   34.25    1.18
   2  -2  -6  650.25    8.93
  -2  -2   6  654.26    8.96
   2   2  -6  650.48    8.91
  -2   2   6  639.75    8.90
  -2  -2   5   -0.14    0.32
   2  -2  -5    0.08    0.25
   2   2  -5    0.05    0.25
  -2   2   5   -0.13    0.34
  -2  -2   4   49.78    1.21
   2   2  -4   49.29    1.17
  -2   2   4   48.88    1.19
   2  -2  -4   47.74    1.14
  -2  -2   3   47.31    1.06
   2   2  -3   47.75    1.04
   2  -2  -3   46.47    1.04
  -2   2   3   44.80    1.05
  -2  -2   2    0.82    0.22
   2   2  -2    0.47    0.19
   2  -2  -2    0.80    0.20
  -2   2   2    0.89    0.24
   2   2  -1  250.07    3.35
  -2  -2   1  255.84    3.36
  -2   2   1  252.20    3.36
   2  -2  -1  250.92    3.35
   2   2   0  130.51    1.98
  -2   2   0  132.29    1.91
   2  -2   0  132.73    1.89
   2  -2   0  133.68    1.97
  -2  -2   0  127.29    1.83
  -2   2   0  123.84    1.82
   2   2   0  118.08    1.84
   2  -2   0  120.87    1.85
   2  -2   0  133.72    1.81
   2   2   1    1.44    0.20
  -2  -2  -1    1.32    0.20
  -2   2  -1    1.25    0.24
   2  -2   1    1.20    0.20
  -2   2  -1    1.17    0.21
  -2  -2  -1    1.52    0.23
   2   2   1    1.13    0.22
   2  -2   1    1.23    0.18
  -2   2  -1    1.23    0.17
  -2  -2  -1    1.18    0.17
  -2  -2  -2  111.99    1.82
  -2   2  -2  112.72    1.91
  -2  -2  -2  115.62    1.90
   2   2   2  112.75    1.90
   2  -2   2  115.98    1.92
  -2   2  -2  115.63    1.78
   2  -2   2  117.07    1.79
  -2  -2  -2  114.42    1.75
   2   2   2  115.79    1.76
   2  -2   3   51.74    1.07
  -2   2  -3   50.53    1.19
   2   2   3   51.39    1.16
   2  -2   3   50.83    1.18
  -2  -2  -3   51.37    1.16
  -2   2  -3   51.54    1.09
   2   2   3   52.57    1.07
  -2  -2  -3   51.68    1.06
   2  -2   4    5.25    0.39
   2   2   4    4.54    0.41
  -2   2  -4    5.20    0.43
   2  -2   4    5.48    0.45
  -2  -2  -4    4.59    0.40
  -2   2  -4    4.91    0.38
   2   2   4    5.21    0.40
  -2  -2  -4    5.43    0.38
   2  -2   5    7.57    0.50
  -2  -2  -5    6.52    0.49
  -2   2  -5    6.84    0.53
   2   2   5    7.17    0.51
   2  -2   5    6.60    0.53
  -2   2  -5    6.47    0.46
  -2  -2  -5    7.05    0.47
   2   2   5    7.01    0.48
   2  -2   6   16.55    0.76
   2  -2   6   17.03    0.85
  -2  -2  -6   16.44    0.79
  -2   2  -6   17.25    0.83
   2   2   6   16.84    0.81
  -2   2  -6   15.19    0.73
  -2  -2  -6   16.98    0.75
   2   2   6   17.82    0.78
   2  -2   7   47.28    1.41
  -2  -2  -7   46.32    1.36
   2   2   7   48.54    1.50
  -2  -2  -7   49.30    1.49
  -2   2  -7   49.38    1.55
   2  -2   7   48.15    1.53
  -2   2  -7   47.14    1.41
   2   2   7   48.51    1.40
  -2  -2  -8  142.45    2.85
  -2  -2  -8  141.23    2.98
   2   2   8  136.01    2.94
  -2   2  -8  140.10    3.06
   2  -2   8  135.93    2.99
  -2   2  -8  140.66    2.88
   2   2   8  139.72    2.83
   2  -2   8  137.28    2.82
   2  -2   9    2.77    0.49
  -2  -2  -9    3.62    0.50
   2   2   9    5.67    0.66
  -2  -2  -9    5.53    0.64
  -2   2  -9    4.20    0.53
   2   2   9    5.29    0.60
   2   2  10   16.55    0.97
   2  -2  10   17.35    0.99
   2  -2  11    0.08    0.46
   2   2  11    0.44    0.45
   2  -2  12    5.79    0.73
   2   2  12    7.21    0.79
   2  -2  13   -0.08    0.55
   2   2  13    0.47    0.51
   2   2  14   43.48    1.93
   2  -2  14   46.39    1.99
   2  -2  15    1.60    0.64
   2   2  15    2.13    0.64
   2   2  16    1.06    0.59
   2  -2  16    1.81    0.70
  -2   3  15   26.85    1.62
  -2  -3  15   25.87    1.61
  -2  -3  14    4.98    0.84
  -2   3  14    7.20    0.92
  -2  -3  13   14.84    1.14
  -2   3  13   15.35    1.15
  -2  -3  12   -0.14    0.50
  -2   3  12   -0.33    0.49
  -2  -3  11   70.23    2.20
  -2   3  11   67.68    2.16
  -2  -3  10   10.48    0.84
  -2   3  10   10.75    0.85
   2  -3  -9  198.18    3.81
  -2  -3   9  194.42    3.79
   2   3  -9  189.57    3.93
   2  -3  -9  200.72    3.83
   2   3  -9  198.52    3.82
  -2   3   9  192.88    3.77
   2  -3  -8    0.52    0.35
  -2  -3   8    0.74    0.39
   2   3  -8    0.46    0.35
   2  -3  -8    0.58    0.30
   2   3  -8    0.26    0.29
  -2   3   8    0.90    0.42
  -2  -3   7   18.25    0.90
   2  -3  -7   17.58    0.85
   2   3  -7   18.10    0.88
   2  -3  -7   20.28    0.90
  -2   3   7   18.50    0.89
   2  -3  -6    0.14    0.27
  -2  -3   6    0.69    0.36
   2   3  -6    0.25    0.28
  -2   3   6    0.80    0.36
  -2  -3   5  311.13    4.73
   2   3  -5  316.12    4.74
   2  -3  -5  317.41    4.72
  -2   3   5  312.12    4.73
  -2  -3   4    7.48    0.51
   2   3  -4    7.75    0.48
  -2   3   4    7.40    0.51
   2  -3  -4    8.23    0.48
   2   3  -3  253.44    3.75
  -2  -3   3  254.78    3.73
  -2   3   3  266.18    3.77
   2  -3  -3  255.08    3.73
   2   3  -2   90.64    1.58
  -2  -3   2   91.43    1.59
   2  -3  -2   95.15    1.58
  -2   3   2   93.70    1.60
   2   3  -1  265.14    3.58
  -2  -3   1  257.82    3.56
  -2   3   1  261.62    3.56
   2  -3  -1  253.08    3.53
  -2   3   0   14.08    0.48
  -2   3   0   14.20    0.43
   2  -3   0   14.77    0.48
   2   3   0   14.13    0.49
   2  -3   0   14.01    0.40
  -2   3   0   13.15    0.46
   2  -3   0   14.03    0.50
  -2  -3   0   13.09    0.47
   2   3   0   12.69    0.48
  -2   3  -1  565.36    7.50
  -2  -3  -1  572.66    7.41
   2   3   1  558.95    7.30
  -2   3  -1  578.68    7.40
   2   3   1  561.53    7.42
   2  -3   1  584.38    7.38
   2  -3   1  587.76    7.37
  -2   3  -1  590.21    7.40
  -2  -3  -1  582.71    7.37
  -2  -3  -1  566.43    7.38
  -2  -3  -2    1.16    0.20
   2  -3   2    1.08    0.25
   2   3   2    1.14    0.26
  -2  -3  -2    1.07    0.24
  -2   3  -2    0.89    0.24
  -2   3  -2    1.14    0.22
   2  -3   2    1.37    0.26
  -2  -3  -2    1.12    0.22
   2   3   2    0.78    0.24
  -2   3  -3   48.04    1.14
   2   3   3   46.18    1.10
  -2  -3  -3   46.45    1.09
   2  -3   3   47.24    1.13
   2  -3   3   46.54    1.07
  -2   3  -3   46.27    1.07
   2   3   3   46.16    1.05
  -2  -3  -3   48.10    1.04
   2  -3   4    7.30    0.45
  -2  -3  -4    7.43    0.46
   2  -3   4    6.75    0.50
   2   3   4    6.83    0.47
  -2   3  -4    7.49    0.51
  -2   3  -4    6.99    0.44
  -2  -3  -4    6.75    0.43
   2   3   4    7.28    0.47
   2  -3   5   10.02    0.57
  -2  -3  -5    9.62    0.57
   2  -3   5    9.91    0.62
   2   3   5   10.48    0.60
  -2   3  -5    9.83    0.62
  -2   3  -5    9.62    0.56
   2   3   5   10.36    0.58
  -2  -3  -5   10.37    0.56
  -2  -3  -6    4.53    0.44
   2  -3   6    4.41    0.45
   2  -3   6    4.86    0.54
  -2  -3  -6    4.83    0.46
   2   3   6    4.18    0.46
  -2   3  -6    4.69    0.51
  -2   3  -6    4.12    0.44
   2   3   6    3.83    0.43
   2  -3   7  284.39    4.54
   2  -3   7  279.59    4.73
  -2   3  -7  281.58    4.81
   2   3   7  274.72    4.63
  -2  -3  -7  274.46    4.61
  -2   3  -7  283.04    4.61
  -2  -3  -7  287.92    4.57
   2   3   7  281.32    4.54
  -2  -3  -8    3.62    0.50
   2  -3   8    4.43    0.55
   2   3   8    3.98    0.56
  -2   3  -8    4.39    0.56
   2  -3   8    3.47    0.56
  -2  -3  -8    3.40    0.48
  -2   3  -8    3.75    0.50
   2   3   8    3.51    0.51
  -2  -3  -9  111.38    2.56
  -2  -3  -9  108.75    2.62
   2   3   9  104.30    2.60
  -2   3  -9  109.72    2.59
   2   3   9  104.92    2.50
   2  -3   9  106.70    2.53
   2   3  10   50.00    1.71
   2  -3  10   51.82    1.74
   2  -3  11   10.07    0.86
   2   3  11   12.07    0.92
   2  -3  12    0.62    0.48
   2   3  12    1.91    0.59
   2   3  13   12.92    1.06
   2  -3  13   14.34    1.09
   2   3  14    2.17    0.70
   2  -3  14    1.72    0.64
   2  -3  15    4.88    0.82
   2   3  15    7.36    0.93
   2   3  16   -0.31    0.64
   2  -3  16    0.39    0.61
  -2  -4  15    0.14    0.57
  -2   4  15    0.11    0.57
  -2  -4  14    6.94    0.87
  -2   4  14    7.51    0.93
  -2  -4  13   -0.14    0.49
  -2   4  13    0.09    0.53
  -2  -4  12    0.67    0.47
  -2   4  12   -0.03    0.47
  -2  -4  11   -0.40    0.50
  -2   4  11   -0.46    0.49
   2  -4 -10  119.31    2.86
  -2  -4  10  119.29    2.89
  -2   4  10  123.01    2.92
   2  -4  -9   12.01    0.81
  -2  -4   9   12.54    0.85
  -2   4   9   12.70    0.87
  -2  -4   8  160.49    3.24
   2  -4  -8  159.04    3.17
   2   4  -8  156.15    3.35
   2   4  -8  164.41    3.27
   2  -4  -8  167.51    3.26
  -2   4   8  162.91    3.25
  -2  -4   7   57.74    1.65
   2  -4  -7   59.21    1.59
   2   4  -7   61.75    1.70
   2  -4  -7   61.82    1.66
  -2   4   7   61.37    1.68
  -2  -4   6   80.14    1.90
   2  -4  -6   79.33    1.80
   2   4  -6   86.06    1.94
   2  -4  -6   85.82    1.92
  -2   4   6   83.29    1.92
  -2  -4   5    0.14    0.31
   2   4  -5    0.49    0.28
   2  -4  -5    0.50    0.27
  -2   4   5    0.40    0.34
  -2  -4   4  207.98    3.33
   2   4  -4  212.28    3.37
   2  -4  -4  209.14    3.32
  -2   4   4  209.28    3.37
  -2  -4   3   14.84    0.63
   2   4  -3   15.54    0.61
  -2   4   3   15.90    0.66
   2  -4  -3   15.41    0.61
  -2  -4   2    9.31    0.48
   2   4  -2    8.81    0.45
   2  -4  -2    9.47    0.45
  -2   4   2    9.17    0.49
   2  -4  -1    2.24    0.19
   2   4  -1    2.50    0.29
  -2  -4   1    3.03    0.33
   2  -4  -1    2.54    0.27
   2  -4  -1    2.47    0.33
  -2   4   0   57.54    1.01
  -2   4   0   57.80    1.12
   2  -4   0   58.56    1.11
   2  -4   0   58.92    0.98
  -2   4   0   53.12    1.16
   2   4   0   56.35    1.20
   2  -4   0   55.98    1.21
  -2  -4   0   51.29    1.15
  -2   4  -1    6.13    0.39
   2   4   1    5.93    0.35
   2   4   1    5.38    0.28
  -2  -4  -1    6.55    0.35
  -2   4  -1    6.57    0.34
   2  -4   1    6.66    0.33
  -2  -4  -1    7.18    0.41
  -2   4  -1    6.04    0.37
   2  -4   1    6.76    0.41
  -2  -4  -1    6.05    0.37
  -2  -4  -2  182.83    2.65
  -2  -4  -2  190.69    2.81
  -2   4  -2  181.88    2.85
   2  -4   2  193.79    2.84
   2   4   2  181.30    2.82
   2  -4   2  191.56    2.87
  -2   4  -2  191.33    2.88
  -2  -4  -2  190.88    2.85
   2   4   2  192.42    2.88
   2  -4   3   16.53    0.64
  -2   4  -3   16.35    0.65
   2   4   3   15.99    0.61
  -2  -4  -3   15.34    0.59
  -2   4  -3   15.91    0.62
   2  -4   3   16.70    0.64
  -2  -4  -3   16.88    0.61
   2   4   3   16.27    0.63
   2  -4   4   24.29    0.86
   2   4   4   23.67    0.81
  -2  -4  -4   23.40    0.79
  -2   4  -4   24.67    0.88
  -2   4  -4   23.97    0.82
   2  -4   4   23.95    0.83
   2   4   4   25.27    0.84
  -2  -4  -4   25.45    0.80
   2  -4   5   24.49    0.87
  -2   4  -5   24.47    0.95
   2  -4   5   23.74    0.92
  -2  -4  -5   23.59    0.85
   2   4   5   24.77    0.89
  -2   4  -5   23.63    0.89
   2   4   5   23.96    0.87
  -2  -4  -5   24.10    0.85
   2  -4   6   48.29    1.37
   2  -4   6   47.68    1.45
  -2   4  -6   47.08    1.48
  -2  -4  -6   47.34    1.36
   2   4   6   48.12    1.37
  -2   4  -6   47.62    1.38
   2   4   6   48.68    1.37
  -2  -4  -6   50.78    1.38
   2  -4   7    7.19    0.61
   2  -4   7    7.46    0.69
  -2  -4  -7    7.73    0.59
   2   4   7    8.13    0.62
  -2   4  -7    7.54    0.65
  -2   4  -7    6.66    0.59
  -2  -4  -7    7.25    0.57
   2   4   7    7.07    0.61
   2  -4   8   70.05    1.92
  -2   4  -8   72.57    2.09
   2   4   8   69.59    1.93
  -2  -4  -8   70.92    1.94
  -2   4  -8   73.20    1.98
  -2  -4  -8   75.16    1.94
   2   4   8   74.30    1.94
  -2  -4  -9    6.09    0.64
   2   4   9    6.99    0.69
   2  -4   9    6.49    0.66
  -2  -4  -9    6.07    0.62
   2   4   9    5.86    0.64
   2  -4  10   28.29    1.30
   2   4  10   29.45    1.33
   2  -4  11    9.95    0.87
   2   4  11    9.37    0.86
   2  -4  12   16.68    1.12
   2   4  12   17.21    1.15
   2  -4  13    4.02    0.72
   2   4  13    3.17    0.71
   2  -4  14    2.04    0.64
   2   4  14    2.94    0.71
   2   4  15   -0.57    0.59
   2  -4  15   -0.28    0.55
  -2   5  15   19.09    1.42
  -2  -5  15   19.20    1.38
  -2  -5  14    0.86    0.59
  -2   5  14    0.85    0.58
  -2  -5  13    3.36    0.68
  -2   5  13    3.11    0.67
  -2  -5  12   14.21    1.10
  -2   5  12   12.44    1.03
  -2  -5  11   24.36    1.29
  -2   5  11   28.26    1.41
   2  -5 -10    1.13    0.40
  -2  -5  10    1.11    0.48
  -2   5  10    1.51    0.53
   2  -5  -9   18.64    0.97
  -2  -5   9   20.60    1.07
  -2   5   9   19.72    1.07
  -2  -5   8   13.16    0.84
   2  -5  -8   13.05    0.76
   2   5  -8   14.28    0.92
   2   5  -8   13.76    0.85
   2  -5  -8   13.94    0.82
  -2   5   8   14.20    0.89
  -2  -5   7   74.42    1.91
   2  -5  -7   72.50    1.78
   2   5  -7   76.60    1.95
  -2   5   7   77.09    1.97
   2  -5  -7   75.49    1.92
  -2  -5   6    5.07    0.50
   2  -5  -6    4.72    0.43
   2   5  -6    5.21    0.49
  -2   5   6    4.36    0.50
   2  -5  -6    4.68    0.47
   2   5  -5   82.27    1.86
  -2  -5   5   80.30    1.81
  -2   5   5   78.30    1.82
   2  -5  -5   80.22    1.79
   2   5  -4   10.18    0.57
  -2  -5   4    8.84    0.56
   2  -5  -4   11.17    0.58
  -2   5   4    9.94    0.60
  -2  -5   3   41.84    1.11
   2   5  -3   42.68    1.11
   2  -5  -3   41.99    1.08
  -2   5   3   41.85    1.12
  -2  -5   2   38.47    1.04
   2   5  -2   40.03    1.04
   2  -5  -2   40.67    1.01
  -2   5   2   39.10    1.05
   2  -5  -1   37.70    0.69
   2  -5  -1   38.71    0.84
   2   5  -1   36.85    0.99
  -2  -5   1   38.99    1.01
   2  -5  -1   38.62    1.02
   2  -5  -1   40.07    0.99
  -2   5   0   48.32    0.90
  -2   5   0   49.71    1.05
   2  -5   0   52.54    0.90
   2  -5   0   52.03    1.24
   2   5   0   50.86    1.20
  -2   5   0   46.61    1.16
  -2  -5   0   47.64    1.18
  -2   5  -1    3.07    0.32
   2   5   1    3.20    0.21
  -2   5  -1    3.56    0.27
   2  -5   1    4.18    0.30
   2   5   1    2.70    0.27
   2  -5   1    3.38    0.38
  -2   5  -1    3.43    0.36
  -2  -5  -1    3.41    0.39
  -2  -5  -1    3.63    0.34
  -2  -5  -2   15.91    0.55
  -2   5  -2   15.41    0.58
   2  -5   2   17.23    0.59
   2   5   2   16.12    0.57
  -2   5  -2   16.15    0.64
   2  -5   2   17.44    0.68
  -2  -5  -2   15.80    0.67
  -2  -5  -2   18.09    0.65
  -2  -5  -3   17.96    0.54
  -2  -5  -3   18.37    0.63
   2  -5   3   18.55    0.69
  -2   5  -3   18.61    0.70
   2   5   3   17.80    0.64
  -2   5  -3   19.07    0.72
   2  -5   3   18.11    0.72
   2   5   3   18.00    0.71
  -2  -5  -3   18.98    0.69
  -2   5  -4    1.11    0.28
   2   5   4    1.54    0.27
  -2  -5  -4    1.60    0.27
   2  -5   4    1.32    0.30
   2  -5   4    1.63    0.30
  -2   5  -4    0.98    0.27
  -2  -5  -4    1.11    0.28
   2   5   4    1.20    0.30
   2  -5   5    7.57    0.58
   2   5   5    7.70    0.50
  -2  -5  -5    7.44    0.49
  -2   5  -5    7.33    0.56
   2  -5   5    7.37    0.55
  -2   5  -5    8.10    0.56
   2   5   5    8.48    0.57
  -2  -5  -5    7.80    0.52
   2  -5   6    3.60    0.44
   2   5   6    3.99    0.44
   2  -5   6    3.41    0.49
  -2   5  -6    3.81    0.48
  -2  -5  -6    3.31    0.39
  -2   5  -6    3.45    0.44
  -2  -5  -6    3.02    0.39
   2   5   6    2.45    0.41
   2  -5   7    0.72    0.33
  -2  -5  -7    1.06    0.32
   2  -5   7    1.08    0.41
  -2  -5  -7    0.72    0.29
   2   5   7    1.51    0.39
  -2   5  -7    1.26    0.37
  -2   5  -7    0.93    0.34
   2   5   7    0.71    0.34
   2  -5   8    8.26    0.68
   2   5   8    9.51    0.72
  -2  -5  -8    8.07    0.67
  -2   5  -8    9.68    0.78
  -2   5  -8    8.11    0.68
   2   5   8    8.97    0.71
  -2  -5  -8    8.78    0.65
  -2  -5  -9   81.02    2.18
   2   5   9   76.28    2.15
   2  -5   9   84.87    2.22
   2   5   9   79.59    2.17
   2  -5  10   17.70    1.05
   2   5  10   18.77    1.10
   2  -5  11   21.81    1.21
   2   5  11   22.27    1.24
   2   5  12   25.84    1.43
   2  -5  12   23.99    1.35
   2  -5  13   58.16    2.17
   2   5  13   56.52    2.18
   2  -5  14    0.38    0.54
   2   5  14    1.44    0.64
   2  -5  15    8.70    1.00
   2   5  15    8.62    1.01
  -2  -6  15    3.26    0.77
  -2   6  15    1.35    0.65
  -2  -6  14    7.54    0.93
  -2   6  14    6.60    0.93
  -2  -6  13    0.07    0.54
  -2   6  13    0.33    0.54
  -2  -6  12   45.07    1.88
  -2   6  12   50.08    1.97
  -2  -6  11   11.17    0.94
  -2   6  11   13.88    1.03
   2  -6 -10   52.72    1.74
  -2  -6  10   51.84    1.84
  -2   6  10   55.13    1.90
   2  -6  -9   10.63    0.74
  -2  -6   9    9.99    0.82
  -2   6   9   10.14    0.80
  -2  -6   8   22.63    1.10
   2  -6  -8   23.73    0.99
   2   6  -8   22.04    1.15
   2   6  -8   23.97    1.13
  -2   6   8   22.34    1.10
   2  -6  -8   23.88    1.08
  -2  -6   7    0.32    0.36
   2  -6  -7    0.18    0.24
   2   6  -7    0.17    0.29
   2  -6  -7   -0.04    0.28
  -2   6   7   -0.12    0.41
   2  -6  -6   16.09    0.69
  -2  -6   6   15.44    0.82
   2   6  -6   16.62    0.87
  -2   6   6   16.89    0.87
   2  -6  -6   16.43    0.81
   2  -6  -5    8.14    0.45
  -2  -6   5    8.11    0.60
   2   6  -5    8.39    0.60
  -2   6   5    8.04    0.60
   2  -6  -5    8.75    0.59
   2   6  -4   24.31    0.91
  -2  -6   4   23.69    0.89
  -2   6   4   24.05    0.92
   2  -6  -4   24.97    0.90
  -2  -6   3    8.31    0.55
   2   6  -3    8.66    0.54
  -2   6   3    8.53    0.55
   2  -6  -3    8.27    0.50
  -2  -6   2   14.50    0.68
   2   6  -2   14.68    0.66
   2  -6  -2   15.35    0.64
  -2   6   2   15.07    0.70
   2  -6  -2   15.18    0.69
   2  -6  -1   16.52    0.52
   2  -6  -1   16.05    0.38
  -2  -6   1   16.67    0.73
   2  -6  -1   16.77    0.75
   2   6  -1   16.20    0.71
   2  -6  -1   16.10    0.68
  -2   6   0   11.96    0.38
  -2   6   0   13.65    0.51
   2  -6   0   13.33    0.36
   2   6   0   13.50    0.64
  -2   6   0   12.90    0.62
  -2  -6   0   13.11    0.65
   2  -6   0   13.92    0.68
   2   6   1    1.61    0.16
  -2   6  -1    1.92    0.28
  -2   6  -1    2.15    0.23
   2  -6   1    1.70    0.20
   2   6   1    1.75    0.23
   2  -6   1    1.73    0.35
  -2   6  -1    2.29    0.38
  -2  -6  -1    1.38    0.30
  -2  -6  -1    1.66    0.36
  -2  -6  -2   91.20    1.62
  -2   6  -2   92.34    1.68
   2   6   2   88.55    1.61
   2  -6   2   93.59    1.67
   2  -6   2   93.23    1.86
  -2   6  -2   94.19    1.88
  -2  -6  -2   94.47    1.86
  -2  -6  -2   93.77    1.84
  -2  -6  -3    5.59    0.29
  -2  -6  -3    5.78    0.37
   2   6   3    5.92    0.38
  -2   6  -3    6.24    0.43
   2  -6   3    5.96    0.43
  -2   6  -3    6.14    0.47
   2  -6   3    6.49    0.49
  -2  -6  -3    6.15    0.46
   2   6   3    5.68    0.47
  -2   6  -4    0.18    0.26
   2  -6   4    0.26    0.26
  -2  -6  -4    0.31    0.20
   2   6   4    0.41    0.22
  -2   6  -4    0.12    0.25
   2  -6   4    0.13    0.28
  -2  -6  -4    0.37    0.25
   2   6   4    0.38    0.32
  -2  -6  -5    4.48    0.40
   2  -6   5    3.64    0.43
   2   6   5    3.82    0.38
  -2   6  -5    4.59    0.46
   2  -6   5    4.03    0.45
  -2   6  -5    4.60    0.45
   2   6   5    4.66    0.47
  -2  -6  -5    4.44    0.44
  -2  -6  -6  124.87    2.48
  -2   6  -6  130.35    2.74
   2   6   6  128.87    2.51
   2  -6   6  129.89    2.69
   2  -6   6  128.37    2.62
  -2   6  -6  131.15    2.69
   2   6   6  134.12    2.66
  -2  -6  -6  131.06    2.60
   2  -6   7   38.69    1.32
  -2  -6  -7   38.88    1.28
  -2   6  -7   38.66    1.43
   2   6   7   39.81    1.30
  -2   6  -7   39.35    1.38
   2   6   7   40.70    1.38
  -2  -6  -7   39.47    1.33
   2  -6   8   87.44    2.21
   2   6   8   89.24    2.20
  -2  -6  -8   86.53    2.15
  -2   6  -8   87.63    2.38
  -2   6  -8   90.35    2.32
   2   6   8   88.01    2.26
  -2  -6  -8   93.19    2.26
   2   6   9    2.00    0.52
  -2  -6  -9    1.44    0.42
   2  -6   9    1.36    0.47
   2   6   9    1.33    0.50
   2  -6  10    7.51    0.75
   2   6  10    8.12    0.79
   2  -6  11    2.01    0.56
   2   6  11    2.70    0.57
   2  -6  12   63.68    2.20
   2   6  12   64.61    2.26
   2  -6  13    1.29    0.56
   2   6  13    1.95    0.62
   2  -6  14    4.34    0.75
   2   6  14    3.27    0.75
   2  -6  15   -0.03    0.57
   2   6  15    0.81    0.59
  -2   7  15   17.53    1.40
  -2  -7  15   16.59    1.31
  -2  -7  14    5.97    0.88
  -2   7  14    5.92    0.88
  -2  -7  13   10.42    1.01
  -2   7  13   11.87    1.09
  -2  -7  12    1.94    0.60
  -2   7  12    3.15    0.69
  -2  -7  11   58.10    2.08
  -2   7  11   61.54    2.15
   2  -7 -10    9.80    0.75
  -2  -7  10    8.84    0.82
  -2   7  10   11.19    0.92
   2  -7  -9   36.72    1.32
  -2  -7   9   35.73    1.48
  -2   7   9   36.85    1.51
   2  -7  -8    8.23    0.61
   2   7  -8    9.63    0.79
  -2  -7   8    8.09    0.72
  -2   7   8    8.61    0.77
  -2  -7   7   15.35    0.88
   2  -7  -7   14.33    0.70
  -2  -7   7   14.19    0.84
   2   7  -7   15.45    0.89
  -2   7   7   14.42    0.88
   2  -7  -7   15.75    0.85
   2  -7  -6   76.17    1.64
  -2  -7   6   73.38    1.92
   2   7  -6   81.25    2.03
  -2   7   6   79.32    2.00
   2  -7  -6   77.85    1.93
   2  -7  -5  214.14    3.27
   2   7  -5  223.81    3.82
  -2  -7   5  215.69    3.74
   2  -7  -5  214.56    3.70
  -2   7   5  215.02    3.80
   2  -7  -4   64.30    1.22
   2   7  -4   65.93    1.65
  -2  -7   4   64.15    1.63
  -2   7   4   65.30    1.67
   2  -7  -4   65.35    1.61
  -2  -7   3   29.41    1.03
   2   7  -3   28.53    1.01
   2  -7  -3   30.80    1.00
  -2   7   3   29.64    1.05
   2  -7  -2   10.93    0.42
   2  -7  -2   10.76    0.28
  -2  -7   2   10.52    0.62
   2  -7  -2   12.32    0.67
   2   7  -2   10.87    0.62
   2  -7  -2   11.14    0.60
   2  -7  -1    9.54    0.40
   2  -7  -1    9.35    0.25
  -2  -7   1    8.52    0.58
   2  -7  -1   10.03    0.65
   2   7  -1    9.05    0.61
   2  -7  -1    9.89    0.59
  -2   7   0    9.52    0.33
  -2   7   0    9.82    0.44
   2   7   0    9.95    0.45
   2  -7   0   10.57    0.32
  -2  -7   0   10.78    0.64
   2   7   0   10.05    0.62
   2  -7   0   11.05    0.64
  -2   7   0   10.52    0.62
   2   7   1   64.04    1.03
  -2   7  -1   68.10    1.41
   2   7   1   62.33    1.24
   2  -7   1   70.37    1.22
  -2   7  -1   64.85    1.21
  -2   7  -1   64.68    1.65
   2  -7   1   67.63    1.59
  -2  -7  -1   69.64    1.67
   2   7   1   66.29    1.58
  -2  -7  -1   61.70    1.54
  -2  -7  -2    0.86    0.19
   2   7   2    2.46    0.26
   2  -7   2    1.11    0.23
  -2   7  -2    1.13    0.23
  -2   7  -2    1.27    0.32
   2  -7   2    1.25    0.34
  -2  -7  -2    1.15    0.32
  -2  -7  -2    1.33    0.34
  -2  -7  -3  156.86    2.54
  -2   7  -3  160.17    2.71
   2  -7   3  161.88    2.70
   2   7   3  154.62    2.54
   2  -7   3  165.67    2.90
  -2   7  -3  163.51    2.91
  -2  -7  -3  159.21    2.84
  -2  -7  -3  164.10    2.91
  -2  -7  -4    0.18    0.14
   2   7   4    0.19    0.20
  -2  -7  -4   -0.05    0.20
   2  -7   4    0.00    0.25
  -2   7  -4    0.20    0.23
  -2   7  -4    0.20    0.26
   2  -7   4   -0.06    0.31
   2   7   4   -0.44    0.34
  -2  -7  -4    0.24    0.26
   2  -7   5   11.73    0.70
   2   7   5   12.99    0.63
  -2   7  -5   12.83    0.72
  -2  -7  -5   12.64    0.61
  -2   7  -5   13.72    0.75
   2  -7   5   11.23    0.70
   2   7   5   11.73    0.72
  -2  -7  -5   12.81    0.70
  -2   7  -6   10.93    0.74
  -2  -7  -6   12.19    0.65
   2   7   6   12.24    0.66
  -2   7  -6   12.14    0.77
   2  -7   6   12.90    0.76
  -2  -7  -6   13.20    0.75
   2   7   6   13.34    0.79
   2  -7   7   56.01    1.67
  -2  -7  -7   57.61    1.59
   2   7   7   61.26    1.64
  -2   7  -7   61.02    1.82
  -2   7  -7   59.88    1.79
   2   7   7   57.17    1.74
  -2  -7  -7   59.64    1.70
   2   7   8   10.18    0.74
  -2  -7  -8    9.60    0.69
   2  -7   8    9.40    0.75
   2   7   8   11.15    0.82
  -2  -7  -8   10.21    0.76
  -2  -7  -9  113.94    2.68
   2   7   9  117.25    2.74
   2  -7   9  119.20    2.81
   2   7   9  118.89    2.85
   2  -7  10    7.50    0.74
   2   7  10    6.70    0.73
   2  -7  11   12.95    0.99
   2   7  11   13.33    1.03
   2  -7  12    1.96    0.62
   2   7  12    1.54    0.61
   2  -7  13   14.70    1.14
   2   7  13   15.70    1.21
   2  -7  14    4.82    0.80
   2   7  14    5.87    0.91
   2  -7  15   10.83    1.12
   2   7  15    9.43    1.09
  -2  -8  14    0.69    0.58
  -2   8  14    1.23    0.59
  -2  -8  13    0.66    0.58
  -2   8  13    0.38    0.57
  -2  -8  12   14.16    1.13
  -2   8  12   15.05    1.16
  -2  -8  11    0.18    0.47
  -2   8  11   -0.54    0.54
   2  -8 -10   54.05    1.72
  -2  -8  10   55.54    1.94
  -2   8  10   57.78    2.02
   2  -8  -9   42.46    1.41
  -2  -8   9   44.09    1.65
  -2   8   9   43.36    1.68
   2  -8  -8   29.24    1.08
  -2  -8   8   28.02    1.25
  -2   8   8   28.56    1.30
   2  -8  -7    2.80    0.36
   2   8  -7    2.69    0.45
   2   8  -7    3.22    0.51
  -2  -8   7    2.41    0.45
   2  -8  -7    3.85    0.47
  -2   8   7    3.91    0.57
   2  -8  -6  108.22    2.03
  -2  -8   6  105.25    2.44
   2   8  -6  113.45    2.55
   2  -8  -6  107.83    2.43
  -2   8   6  111.35    2.54
   2  -8  -5   29.33    0.80
   2   8  -5   30.49    1.17
  -2  -8   5   29.43    1.14
   2  -8  -5   28.80    1.11
  -2   8   5   29.71    1.16
   2  -8  -4   90.54    1.51
  -2  -8   4   89.69    2.09
   2   8  -4   95.63    2.16
  -2   8   4   95.19    2.14
   2  -8  -4   90.75    2.06
   2  -8  -3    1.35    0.13
   2   8  -3    1.35    0.34
  -2  -8   3    1.24    0.37
   2  -8  -3    1.38    0.32
   2  -8  -3    1.68    0.39
  -2   8   3    1.61    0.39
   2  -8  -2  132.44    2.05
  -2  -8   2  134.31    2.62
   2  -8  -2  135.79    2.64
   2   8  -2  131.68    2.63
   2  -8  -2  135.20    2.61
   2  -8  -1   18.88    0.90
  -2  -8   1   16.71    0.81
   2   8  -1   17.21    0.87
   2  -8  -1   17.25    0.80
   2   8   0  380.29    5.31
  -2   8   0  374.75    5.02
  -2   8   0  383.28    5.34
   2  -8   0  410.69    5.02
   2  -8   0  396.87    5.88
  -2   8   0  384.73    5.85
  -2  -8   0  393.93    5.85
   2   8   0  400.56    5.89
  -2   8  -1  167.80    2.71
   2   8   1  159.29    2.49
   2   8   1  163.37    2.19
  -2   8  -1  163.43    2.46
   2  -8   1  172.18    2.46
  -2   8  -1  168.84    3.14
   2  -8   1  157.29    2.98
  -2  -8  -1  164.31    3.08
  -2  -8  -1  154.02    2.97
   2   8   1  156.78    3.00
  -2   8  -2  243.76    3.66
   2   8   2  244.33    3.57
   2  -8   2  255.85    3.68
  -2  -8  -2  256.65    4.16
   2  -8   2  246.93    4.09
  -2   8  -2  257.42    4.21
  -2  -8  -2  245.64    4.08
  -2  -8  -3   87.79    1.64
   2   8   3   88.96    1.65
  -2   8  -3   87.46    1.79
   2  -8   3   91.34    1.81
  -2   8  -3   90.55    2.05
   2  -8   3   88.52    2.02
  -2  -8  -3   90.41    2.00
  -2  -8  -3   89.10    2.02
  -2  -8  -4   31.74    0.72
  -2  -8  -4   31.73    0.91
   2   8   4   32.22    0.92
  -2   8  -4   33.35    1.08
  -2   8  -4   33.66    1.19
   2  -8   4   32.64    1.17
  -2  -8  -4   33.81    1.14
   2   8   4   33.61    1.20
  -2  -8  -5    9.05    0.42
  -2   8  -5    9.53    0.63
   2   8   5    9.47    0.53
  -2  -8  -5    9.64    0.53
   2  -8   5   10.20    0.69
  -2   8  -5   10.53    0.70
  -2  -8  -5    9.87    0.65
   2   8   5   11.44    0.74
   2   8   6    8.21    0.55
  -2   8  -6    7.48    0.63
  -2  -8  -6    7.95    0.54
   2  -8   6    7.60    0.64
  -2   8  -6    7.92    0.66
  -2  -8  -6    8.17    0.63
   2   8   6    7.65    0.67
  -2  -8  -7   19.28    0.87
   2   8   7   19.10    0.88
  -2   8  -7   21.51    1.08
   2  -8   7   19.55    1.02
  -2   8  -7   19.30    1.01
  -2  -8  -7   19.50    0.97
   2   8   7   19.41    1.04
  -2  -8  -8  137.49    2.87
   2   8   8  145.24    2.95
   2  -8   8  134.75    3.01
   2   8   8  142.66    3.14
  -2  -8  -9    7.29    0.68
   2  -8   9    6.78    0.74
   2   8   9    7.24    0.77
   2  -8  10    0.13    0.43
   2   8  10    0.75    0.45
   2  -8  11    0.98    0.52
   2   8  11   -0.40    0.47
   2  -8  12   13.84    1.09
   2   8  12   14.46    1.12
   2  -8  13    6.58    0.87
   2   8  13    6.03    0.87
   2  -8  14    7.54    0.94
   2   8  14    8.97    1.04
   2  -8  15   -0.34    0.62
  -2  -9  14    1.08    0.59
  -2   9  14    0.11    0.58
  -2  -9  13   18.55    1.30
  -2   9  13   19.08    1.35
  -2  -9  12    0.33    0.53
  -2   9  12    0.78    0.56
  -2  -9  11   -0.14    0.53
  -2   9  11    0.06    0.50
   2  -9 -10    9.92    0.73
  -2  -9  10    8.78    0.86
  -2   9  10    8.95    0.90
   2  -9  -9  153.02    3.01
  -2  -9   9  152.96    3.45
  -2   9   9  154.95    3.53
  -2  -9   8    6.65    0.70
   2  -9  -8    6.88    0.54
  -2  -9   8    6.52    0.69
  -2   9   8    6.42    0.73
   2   9  -7    5.56    0.60
   2  -9  -7    5.37    0.43
  -2  -9   7    4.62    0.57
  -2   9   7    6.02    0.64
   2  -9  -6   32.88    0.92
  -2  -9   6   31.75    1.27
   2   9  -6   31.84    1.30
   2  -9  -6   31.44    1.23
  -2   9   6   31.83    1.32
   2  -9  -5  220.34    3.22
  -2  -9   5  220.76    4.00
   2   9  -5  223.09    4.06
   2  -9  -5  220.82    3.97
  -2   9   5  224.55    4.06
   2  -9  -4   43.95    0.84
   2   9  -4   43.72    1.45
  -2  -9   4   44.63    1.45
   2  -9  -4   43.51    1.40
  -2   9   4   45.13    1.47
   2  -9  -4   43.84    1.46
   2  -9  -3   26.28    0.67
  -2  -9   3   26.19    1.08
   2   9  -3   26.03    1.07
   2  -9  -3   27.02    1.07
   2  -9  -3   28.06    1.11
   2  -9  -2   54.69    1.05
   2  -9  -2   52.32    1.58
   2   9  -2   52.38    1.59
  -2  -9   2   50.84    1.52
   2  -9  -2   54.07    1.54
  -2  -9   1   59.28    1.65
   2   9  -1   64.70    1.78
   2  -9  -1   65.78    1.78
   2  -9  -1   56.98    1.64
  -2   9   0    0.95    0.20
   2   9   0    1.00    0.22
  -2   9   0    0.96    0.13
  -2  -9   0    1.14    0.39
   2  -9   0    1.42    0.41
  -2   9   0    0.63    0.32
   2   9   0    0.76    0.31
   2   9   1  208.89    3.07
  -2   9  -1  217.33    3.32
  -2   9  -1  208.50    3.03
  -2  -9  -1  215.93    3.82
   2  -9   1  201.95    3.68
  -2   9  -1  217.87    3.85
   2   9   1  206.40    3.73
  -2  -9  -1  201.97    3.69
   2   9   2   54.58    1.12
  -2   9  -2   51.11    1.17
  -2  -9  -2   53.07    1.58
   2  -9   2   52.05    1.53
  -2   9  -2   54.73    1.63
  -2  -9  -2   52.83    1.52
  -2  -9  -3    5.98    0.36
   2   9   3    6.52    0.38
  -2   9  -3    5.63    0.42
  -2   9  -3    6.02    0.54
   2  -9   3    6.25    0.58
  -2  -9  -3    6.27    0.59
  -2  -9  -3    6.65    0.58
  -2   9  -4    0.53    0.24
   2   9   4    0.22    0.18
  -2  -9  -4    0.19    0.19
   2  -9   4    0.54    0.35
  -2   9  -4    0.50    0.30
  -2  -9  -4    0.80    0.37
  -2  -9  -4    0.70    0.31
  -2  -9  -5    0.11    0.14
  -2  -9  -5    0.02    0.19
   2   9   5    0.27    0.22
  -2   9  -5   -0.15    0.28
  -2   9  -5    0.19    0.28
   2  -9   5   -0.02    0.33
   2   9   5   -0.49    0.39
  -2  -9  -5   -0.01    0.29
  -2   9  -6   30.23    1.20
   2   9   6   30.43    1.02
  -2  -9  -6   29.73    1.01
  -2   9  -6   30.40    1.26
   2  -9   6   29.33    1.24
   2   9   6   30.92    1.27
  -2  -9  -6   29.80    1.21
  -2   9  -7   54.14    1.75
  -2  -9  -7   54.02    1.52
   2   9   7   56.41    1.54
   2  -9   7   53.98    1.74
   2   9   7   54.56    1.78
   2  -9   8    1.53    0.49
  -2  -9  -8    2.45    0.41
   2   9   8    2.07    0.43
   2  -9   8    1.36    0.50
   2   9   8    2.45    0.54
  -2  -9  -9  100.59    2.46
   2  -9   9  101.24    2.65
   2   9   9  104.98    2.78
   2  -9  10    3.82    0.62
   2   9  10    4.24    0.68
   2  -9  11    0.85    0.51
   2   9  11    1.34    0.56
   2  -9  12   10.85    1.02
   2   9  12   12.17    1.11
   2  -9  13   13.77    1.15
   2   9  13   13.28    1.14
   2  -9  14    3.15    0.76
   2   9  14    2.99    0.75
  -2 -10  14    1.13    0.64
  -2  10  14    1.83    0.71
  -2 -10  13    0.73    0.53
  -2  10  13    1.09    0.57
  -2 -10  12    7.44    0.89
  -2  10  12    6.87    0.91
  -2 -10  11   76.66    2.51
  -2  10  11   78.72    2.59
   2 -10 -10   18.42    0.95
  -2 -10  10   19.63    1.20
  -2  10  10   21.30    1.30
   2 -10  -9   21.81    0.96
  -2 -10   9   21.34    1.24
  -2  10   9   26.28    1.38
   2 -10  -8   12.12    0.65
  -2 -10   8   10.87    0.87
  -2  10   8    9.95    0.85
   2 -10  -7    6.32    0.44
   2  10  -7    5.84    0.64
  -2 -10   7    5.50    0.64
  -2  10   7    6.45    0.70
   2 -10  -6  131.95    2.24
  -2 -10   6  133.25    2.97
  -2  10   6  134.77    3.04
   2 -10  -5   63.93    1.19
   2  10  -5   67.14    1.93
  -2 -10   5   62.27    1.87
   2 -10  -5   64.71    1.85
   2 -10  -5   65.22    1.95
  -2  10   5   65.62    1.94
   2 -10  -4   63.40    0.98
  -2 -10   4   62.63    1.82
   2  10  -4   63.24    1.83
   2 -10  -4   64.59    1.86
   2 -10  -4   65.50    1.82
   2 -10  -3    0.58    0.16
  -2 -10   3    0.55    0.36
   2  10  -3    0.89    0.35
   2 -10  -3    0.91    0.34
   2 -10  -3    1.13    0.42
   2 -10  -2   18.00    0.97
  -2 -10   2   17.51    0.91
   2  10  -2   18.50    0.98
   2 -10  -2   17.67    0.89
   2  10  -1   22.40    1.05
  -2 -10   1   21.79    1.01
   2 -10  -1   22.45    1.07
   2 -10  -1   18.63    0.94
  -2  10   0   17.46    0.62
   2  10   0   18.31    0.61
  -2  10   0   18.25    0.42
   2 -10   0   19.95    0.97
  -2 -10   0   20.27    0.98
   2  10   0   18.92    0.94
  -2  10   0   18.58    0.94
  -2  10  -1    0.87    0.23
   2  10   1    0.34    0.16
  -2  10  -1    0.29    0.14
   2 -10   1    0.53    0.38
  -2 -10  -1    0.94    0.42
  -2  10  -1    0.93    0.37
  -2 -10  -1    0.59    0.35
   2  10   1    0.30    0.29
  -2  10  -2   39.52    1.15
  -2  10  -2   37.99    0.97
   2  10   2   38.58    0.89
  -2  10  -2   37.93    1.41
   2 -10   2   35.23    1.30
  -2 -10  -2   37.64    1.39
  -2 -10  -2   35.24    1.29
   2  10   3  103.71    1.79
  -2  10  -3   98.14    1.97
  -2  10  -3  103.53    2.44
   2 -10   3  101.49    2.38
  -2 -10  -3   99.71    2.41
  -2 -10  -3  100.65    2.35
  -2 -10  -4    0.68    0.22
   2  10   4    0.72    0.21
  -2  10  -4    0.35    0.24
   2 -10   4    0.86    0.40
  -2  10  -4    0.33    0.32
  -2 -10  -4    0.85    0.42
  -2 -10  -4    0.69    0.34
  -2 -10  -5    3.97    0.24
   2  10   5    4.65    0.39
  -2 -10  -5    3.89    0.37
  -2  10  -5    4.25    0.47
   2 -10   5    4.39    0.57
  -2  10  -5    4.32    0.54
  -2 -10  -5    4.70    0.52
  -2 -10  -5    4.55    0.58
  -2 -10  -6   25.07    0.73
   2  10   6   27.94    0.95
  -2  10  -6   26.88    1.14
  -2 -10  -6   25.68    0.92
   2 -10   6   25.90    1.21
   2  10   6   26.36    1.23
  -2 -10  -7    2.88    0.30
   2  10   7    3.54    0.42
  -2  10  -7    3.95    0.55
  -2 -10  -7    3.49    0.43
   2 -10   7    3.28    0.55
   2  10   7    2.13    0.50
   2  10   8   72.72    1.87
  -2 -10  -8   69.57    1.85
   2 -10   8   66.96    2.09
   2  10   8   69.86    2.18
  -2 -10  -9   64.33    1.89
   2 -10   9   69.66    2.16
   2  10   9   70.91    2.27
   2 -10  10   -0.17    0.52
   2  10  10   -0.01    0.52
   2 -10  11    1.88    0.57
   2  10  11    2.01    0.62
   2 -10  12   24.28    1.45
   2  10  12   25.57    1.54
   2 -10  13   18.13    1.32
   2  10  13   20.61    1.42
   2 -10  14    8.99    1.00
   2  10  14   10.13    1.13
  -2 -11  13    0.00    0.53
  -2  11  13   -0.62    0.62
  -2 -11  12    6.24    0.89
  -2  11  12    4.99    0.84
  -2 -11  11   37.14    1.76
  -2  11  11   42.23    1.91
   2 -11 -10   25.48    1.10
  -2 -11  10   26.17    1.44
  -2  11  10   29.04    1.78
  -2 -11   9   -0.39    0.50
   2 -11  -9    0.44    0.29
  -2 -11   9    0.81    0.49
  -2  11   9    0.13    0.48
   2 -11  -8    7.58    0.52
  -2 -11   8    7.91    0.82
  -2  11   8    7.86    0.82
   2  11  -7    0.59    0.32
   2 -11  -7    0.70    0.20
  -2 -11   7    2.11    0.55
  -2  11   7    1.30    0.51
   2 -11  -6    0.95    0.20
   2  11  -6    1.10    0.37
  -2 -11   6    1.26    0.49
  -2  11   6    2.41    0.55
   2 -11  -5  273.72    3.64
  -2 -11   5  266.76    4.88
   2 -11  -5  274.95    4.95
   2 -11  -4  126.50    1.95
  -2 -11   4  121.21    2.85
   2 -11  -4  125.38    2.86
   2  11  -4  123.14    2.88
   2 -11  -4  129.17    2.85
   2  11  -3   49.99    1.68
  -2 -11   3   47.17    1.60
   2 -11  -3   50.12    1.68
   2 -11  -3   49.88    1.61
   2 -11  -2    0.45    0.40
   2  11  -2    1.73    0.47
  -2 -11   2    0.67    0.37
   2 -11  -2    1.11    0.37
   2 -11  -1   23.95    1.15
   2  11  -1   24.30    1.13
  -2 -11   1   21.68    1.07
   2 -11  -1   24.26    1.11
   2  11   0    8.08    0.41
   2 -11   0    7.89    0.69
  -2 -11   0    7.71    0.67
  -2  11   0    8.92    0.69
   2  11   0    8.88    0.70
  -2  11  -1   30.59    0.93
   2  11   1   30.12    0.76
  -2  11  -1   29.10    0.72
  -2  11  -1   31.42    1.27
  -2 -11  -1   30.35    1.27
   2 -11   1   28.32    1.22
  -2 -11  -1   29.85    1.23
  -2  11  -2   56.35    1.43
   2  11   2   56.46    1.11
  -2  11  -2   53.46    1.20
   2 -11   2   47.19    1.62
  -2 -11  -2   50.78    1.72
  -2  11  -2   55.30    1.80
  -2 -11  -2   49.92    1.64
  -2  11  -3   70.15    1.58
   2  11   3   73.01    1.37
  -2  11  -3   72.37    2.10
   2 -11   3   67.91    1.98
  -2 -11  -3   71.25    2.05
  -2 -11  -3   69.75    1.97
  -2 -11  -4   -0.17    0.19
  -2  11  -4    0.11    0.23
   2  11   4    0.07    0.17
   2 -11   4   -0.33    0.41
  -2  11  -4   -0.31    0.37
  -2 -11  -4    0.57    0.40
  -2 -11  -4    0.39    0.36
  -2 -11  -5   57.80    1.35
  -2  11  -5   56.77    1.64
   2  11   5   59.83    1.36
   2 -11   5   57.27    1.84
  -2 -11  -5   57.52    1.85
  -2 -11  -6   55.07    1.40
  -2 -11  -6   53.03    1.06
   2  11   6   58.22    1.43
  -2  11  -6   57.13    1.71
   2 -11   6   56.91    1.85
  -2 -11  -6   60.65    1.95
  -2 -11  -7   31.32    0.87
   2  11   7   33.75    1.13
  -2 -11  -7   33.10    1.12
  -2  11  -7   31.62    1.36
   2 -11   7   31.14    1.41
   2  11   7   32.57    1.49
  -2 -11  -8   26.98    0.91
  -2 -11  -8   27.33    1.10
   2 -11   8   29.27    1.41
   2  11   8   30.37    1.45
  -2 -11  -9  157.48    3.25
   2 -11   9  165.25    3.69
   2  11   9  166.80    3.84
   2 -11  10   22.70    1.32
   2  11  10   24.06    1.42
   2 -11  11    1.00    0.54
   2  11  11    1.27    0.60
   2 -11  12    0.89    0.66
   2  11  12    0.81    0.60
   2 -11  13   21.73    1.46
   2  11  13   20.38    1.49
  -2 -12  13   -0.51    0.60
  -2  12  13   -0.85    0.69
  -2 -12  12   16.26    1.28
  -2  12  12   16.56    1.31
  -2 -12  11    8.54    0.93
  -2  12  11    8.72    1.00
  -2 -12  10   43.09    1.86
  -2  12  10   45.31    1.97
   2 -12  -9   21.97    0.92
  -2 -12   9   23.93    1.38
  -2  12   9   23.42    1.41
   2 -12  -8   46.93    1.26
  -2 -12   8   47.15    1.85
  -2  12   8   48.78    1.93
   2  12  -7    1.04    0.35
   2 -12  -7    1.03    0.22
  -2 -12   7    1.07    0.51
  -2  12   7    1.16    0.49
   2 -12  -6    5.32    0.30
   2  12  -6    4.60    0.52
  -2 -12   6    6.44    0.72
   2 -12  -6    7.09    0.77
  -2  12   6    4.76    0.66
   2 -12  -5    8.89    0.37
   2  12  -5    8.06    0.61
  -2 -12   5    8.37    0.77
   2 -12  -5    7.38    0.77
   2 -12  -4  126.68    2.99
  -2 -12   4  122.54    2.94
   2 -12  -3   21.91    1.17
  -2 -12   3   19.20    1.06
   2  12  -2   14.99    1.00
  -2 -12   2   13.26    0.90
   2 -12  -2   13.52    0.94
   2 -12  -2   13.11    0.86
  -2 -12   1    0.67    0.36
   2 -12  -1    1.73    0.49
   2 -12  -1    1.48    0.43
   2  12  -1    1.21    0.36
   2  12   0    1.18    0.21
  -2 -12   0    1.65    0.50
   2 -12   0    1.20    0.47
  -2  12   0    1.14    0.37
   2  12   0    0.88    0.37
  -2  12  -1   44.91    1.19
  -2  12  -1   45.26    0.93
   2  12   1   46.47    0.98
  -2 -12  -1   42.92    1.57
  -2  12  -1   46.69    1.64
   2 -12   1   43.73    1.59
  -2 -12  -1   48.35    1.65
  -2  12  -2   49.05    1.34
  -2  12  -2   46.17    1.11
   2  12   2   47.48    0.97
   2 -12   2   42.84    1.58
  -2 -12  -2   47.53    1.71
  -2  12  -2   47.10    1.71
  -2 -12  -2   43.06    1.56
   2  12   3   22.33    0.63
  -2  12  -3   21.24    0.79
  -2 -12  -3   20.18    1.13
   2 -12   3   20.31    1.10
  -2  12  -4    0.52    0.25
   2  12   4    1.17    0.21
   2 -12   4    0.79    0.42
  -2 -12  -4    1.32    0.50
  -2 -12  -5   20.31    0.73
   2  12   5   21.85    0.74
  -2  12  -5   23.01    0.99
  -2 -12  -5   22.99    1.22
   2 -12   5   24.11    1.22
  -2 -12  -6   25.66    0.92
   2  12   6   25.99    0.89
  -2  12  -6   23.53    1.10
   2 -12   6   26.94    1.33
  -2 -12  -6   26.10    1.33
  -2 -12  -7    5.33    0.32
  -2  12  -7    5.71    0.62
  -2 -12  -7    5.52    0.48
   2 -12   7    4.34    0.66
  -2 -12  -7    8.36    0.87
  -2 -12  -8   42.20    1.09
  -2 -12  -8   43.36    1.37
   2 -12   8   43.68    1.76
   2  12   8   42.39    1.81
  -2 -12  -9    2.71    0.46
   2 -12   9    3.12    0.66
   2  12   9    1.79    0.62
   2 -12  10   10.30    0.96
   2  12  10    9.59    1.00
   2 -12  11    1.60    0.57
   2  12  11    2.12    0.72
   2 -12  12    3.94    0.75
   2  12  12    5.95    0.94
   2 -12  13    8.56    1.03
   2  12  13    7.85    1.07
  -2 -13  12    1.16    0.64
  -2  13  12   -0.08    0.57
  -2 -13  11   12.06    1.12
  -2  13  11   13.63    1.20
  -2 -13  10   15.67    1.22
  -2  13  10   17.06    1.31
  -2 -13   9   32.61    1.64
  -2  13   9   33.93    1.70
   2 -13  -8    7.33    0.46
  -2 -13   8    6.97    0.83
   2 -13  -8    8.94    0.94
  -2  13   8    6.72    0.85
   2 -13  -7    6.91    0.38
  -2 -13   7    5.33    0.73
  -2  13   7    6.24    0.81
   2 -13  -7    6.87    0.85
   2 -13  -6   13.49    0.45
   2  13  -6   13.54    0.85
  -2 -13   6   14.61    1.04
   2 -13  -6   14.97    1.06
   2  13  -5    0.86    0.32
  -2 -13   5    1.48    0.50
   2 -13  -5    0.92    0.47
  -2 -13   4   11.62    0.91
   2 -13  -4   12.56    0.96
   2 -13  -3   12.11    0.95
  -2 -13   3   12.20    0.90
   2 -13  -2    9.87    0.87
  -2 -13   2   10.83    0.85
   2 -13  -1    2.98    0.56
  -2 -13   1    1.63    0.45
   2  13   0   16.23    0.57
  -2 -13   0   16.30    1.02
   2 -13   0   17.23    1.02
  -2  13  -1   39.28    1.10
  -2  13  -1   36.49    0.79
  -2 -13  -1   37.73    1.51
   2 -13   1   37.93    1.52
   2  13   1   40.14    0.87
  -2  13  -2    2.89    0.36
   2 -13   2    2.17    0.48
  -2 -13  -2    2.28    0.57
   2  13   2    2.71    0.21
  -2  13  -2    3.18    0.29
  -2  13  -3    6.53    0.54
  -2  13  -3    5.91    0.43
   2  13   3    6.74    0.32
  -2 -13  -3    5.20    0.64
   2 -13   3    4.55    0.60
   2  13   4    5.52    0.33
  -2  13  -4    4.54    0.43
   2 -13   4    5.17    0.65
  -2 -13  -4    5.22    0.69
   2 -13   5   82.40    2.42
  -2 -13  -5   83.33    2.45
   2  13   5   81.87    1.58
  -2  13  -5   77.45    1.97
  -2 -13  -6    9.37    0.53
  -2  13  -6    8.48    0.68
   2 -13   6    9.79    0.88
  -2 -13  -6   10.69    0.92
  -2 -13  -7    1.98    0.34
   2 -13   7    1.17    0.50
  -2 -13  -7    3.19    0.65
  -2 -13  -8    4.93    0.50
   2 -13   8    5.80    0.77
  -2 -13  -8    6.52    0.84
   2 -13   9   14.76    1.13
   2  13   9   13.66    1.17
   2 -13  10   13.68    1.13
   2  13  10   13.76    1.23
   2 -13  11    9.35    0.99
   2  13  11    7.81    0.99
   2 -13  12    1.01    0.57
   2  13  12    1.17    0.60
  -2  14  12    2.07    0.71
  -2 -14  11   14.45    1.25
  -2  14  11   16.30    1.37
  -2 -14  10   28.30    1.60
  -2 -14  10   29.02    1.63
  -2  14  10   26.71    1.67
  -2 -14   9    8.62    0.97
  -2  14   9    9.27    1.02
   2 -14  -9    8.55    1.01
  -2 -14   8   19.95    1.32
   2 -14  -8   20.86    1.38
   2 -14  -7    0.26    0.15
  -2 -14   7    0.81    0.53
   2 -14  -7   -0.18    0.49
   2  14  -6   49.94    1.64
   2 -14  -6   57.53    2.11
  -2 -14   6   54.55    2.03
   2  14  -5   26.09    1.09
   2 -14  -5   28.92    1.50
  -2 -14   5   25.37    1.36
   2  14  -4    1.77    0.35
  -2 -14   4    1.36    0.51
   2 -14  -4    1.33    0.57
  -2 -14   3   -0.45    0.51
   2 -14  -3    0.23    0.52
   2  14  -3    0.80    0.26
   2 -14  -2    5.21    0.72
  -2 -14   2    4.11    0.66
   2  14  -1    7.82    0.44
  -2 -14   1    5.76    0.67
   2 -14  -1    6.50    0.71
   2  14   0   46.41    1.01
   2 -14   0   45.43    1.74
  -2 -14   0   43.90    1.70
  -2  14  -1   22.79    0.54
  -2  14  -1   24.08    0.85
  -2 -14  -1   23.39    1.24
   2 -14   1   24.28    1.28
   2  14   1   25.76    0.63
  -2  14  -2   12.68    0.68
   2 -14   2   10.75    0.87
  -2 -14  -2   12.73    0.95
   2  14   2   13.65    0.40
  -2  14  -2   13.37    0.54
  -2  14  -3    0.94    0.30
  -2  14  -3    0.30    0.20
   2  14   3    0.69    0.13
   2 -14   3    0.18    0.43
  -2 -14  -3   -0.08    0.52
   2  14   4    0.72    0.16
  -2  14  -4    0.72    0.31
   2 -14   4    1.11    0.51
  -2 -14  -4    0.58    0.50
  -2  14  -5   32.16    1.20
  -2 -14  -5   35.21    1.65
   2 -14   5   32.74    1.54
  -2  14  -6    7.92    0.67
   2 -14   6   10.39    0.95
  -2 -14  -6   10.06    0.95
   2 -14   7    6.30    0.80
  -2 -14  -7    5.69    0.80
   2 -14   8   44.55    1.91
  -2 -14  -8   43.99    1.96
   2 -14   9   20.54    1.36
  -2 -14  -9   19.35    1.37
   2 -14  10    8.15    0.93
   2 -14  10    6.86    0.92
  -2 -14 -10    9.32    1.06
   2 -14  11   -0.60    0.60
   2  14  11   -0.49    0.66
   2 -14  12   -0.35    0.58
   2  14  12   -0.24    0.67
  -2 -15  11    9.76    1.10
   2 -15 -11   11.35    1.19
  -2  15  11   10.40    1.20
  -2 -15  10    7.10    0.91
  -2  15  10    6.84    0.97
   2 -15 -10    6.61    0.96
  -2 -15   9   28.52    1.63
   2 -15  -9   26.80    1.63
  -2 -15   8    1.98    0.64
   2 -15  -8    3.79    0.78
  -2 -15   7    3.04    0.67
   2 -15  -7    2.87    0.67
   2  15  -6    1.09    0.38
  -2 -15   6    0.74    0.54
   2 -15  -6    0.80    0.52
  -2 -15   5   26.71    1.47
   2 -15  -5   27.05    1.52
   2  15  -5   23.75    1.04
   2 -15  -4   30.00    1.58
  -2 -15   4   27.74    1.46
   2  15  -4   30.02    1.08
   2 -15  -3   45.74    1.92
  -2 -15   3   41.10    1.75
   2  15  -3   42.91    1.23
  -2 -15   2    3.84    0.67
   2 -15  -2    3.89    0.67
   2  15  -2    3.96    0.35
   2  15  -1   12.61    0.54
   2 -15  -1   11.73    0.98
  -2 -15   1   11.62    0.94
   2  15  -1   12.07    0.51
   2 -15   0    4.58    0.66
  -2 -15   0    3.73    0.61
   2  15   0    4.50    0.29
  -2  15  -1   94.96    1.93
   2 -15   1   96.13    2.71
  -2 -15  -1   95.65    2.70
   2  15   1   96.39    1.46
  -2  15  -2   29.01    1.03
   2 -15   2   27.77    1.42
  -2 -15  -2   27.53    1.42
  -2  15  -2   28.06    0.77
  -2  15  -3    7.34    0.58
  -2 -15  -3    6.38    0.81
   2 -15   3    6.36    0.78
  -2  15  -3    7.47    0.47
  -2  15  -4    1.19    0.35
  -2  15  -4    1.91    0.32
  -2 -15  -4    0.19    0.58
   2 -15   4    1.02    0.51
  -2  15  -5   13.01    0.75
   2 -15   5   12.70    1.04
  -2 -15  -5   11.88    1.07
  -2  15  -6   22.88    1.08
  -2 -15  -6   27.26    1.56
   2 -15   6   26.39    1.45
   2 -15   7   27.07    1.52
  -2 -15  -7   28.60    1.58
   2 -15   8    2.83    0.71
  -2 -15  -8    2.25    0.63
   2 -15   9    7.51    0.94
  -2 -15  -9    7.02    0.96
   2 -15  10    2.71    0.70
   2 -15  10    4.59    0.82
  -2 -15 -10    3.43    0.76
   2 -15  11    3.42    0.77
  -2 -15 -11    2.98    0.75
  -2 -16  10    3.48    0.79
   2 -16 -10    4.22    0.93
  -2 -16   9    3.93    0.80
   2 -16  -9    4.79    0.85
  -2 -16   8    1.99    0.67
   2 -16  -8    0.15    0.56
  -2 -16   7    1.55    0.60
   2 -16  -7    1.81    0.62
  -2 -16   6   26.12    1.50
   2 -16  -6   25.40    1.56
   2 -16  -5   29.68    1.68
  -2 -16   5   27.38    1.52
   2  16  -5   29.46    1.15
   2 -16  -4   12.53    1.11
  -2 -16   4   11.49    0.99
   2  16  -4   11.76    0.67
  -2 -16   3    9.28    0.95
   2 -16  -3   10.06    1.01
   2  16  -3    9.76    0.56
   2 -16  -2    2.31    0.58
  -2 -16   2    2.29    0.57
   2  16  -2    2.50    0.28
   2  16  -1    0.58    0.14
  -2 -16   1    1.74    0.57
   2 -16  -1    1.35    0.54
   2  16  -1    1.50    0.22
   2  16  -1    1.33    0.23
  -2 -16   0    3.78    0.68
   2 -16   0    3.57    0.68
   2  16   0    2.26    0.20
   2 -16   1    0.26    0.46
  -2 -16  -1    0.50    0.51
  -2  16  -2   25.77    0.96
  -2 -16  -2   24.93    1.39
   2 -16   2   24.89    1.38
  -2  16  -2   23.21    0.65
  -2  16  -3   52.07    1.55
   2 -16   3   52.64    2.04
  -2 -16  -3   56.77    2.16
  -2  16  -3   52.43    1.29
  -2  16  -4    1.79    0.39
   2 -16   4    1.44    0.48
  -2 -16  -4    2.62    0.66
  -2 -16  -5    0.65    0.56
   2 -16   5    2.10    0.55
   2 -16   6   12.70    1.08
  -2 -16  -6   11.14    1.10
   2 -16   7    1.55    0.65
  -2 -16  -7    0.62    0.60
  -2 -16  -8   19.70    1.42
   2 -16   8   18.04    1.30
  -2 -16  -9   34.80    1.90
   2 -16   9   33.47    1.82
   2 -16  10    3.70    0.79
  -2 -16 -10    3.12    0.81
  -2 -17   9    0.33    0.56
   2 -17  -9   -1.25    0.75
  -2 -17   8    0.82    0.62
   2 -17  -8    1.10    0.65
  -2 -17   7    0.05    0.57
   2 -17  -7   -0.54    0.64
   2 -17  -6   17.30    1.39
  -2 -17   6   12.82    1.16
  -2 -17   5   22.56    1.43
   2 -17  -5   25.68    1.65
  -2 -17   4   26.06    1.50
   2 -17  -4   26.87    1.61
  -2 -17   3   17.77    1.27
   2 -17  -3   20.34    1.35
   2  17  -2    8.87    0.49
   2 -17  -2   10.96    1.00
  -2 -17   2    9.66    0.96
   2  17  -1    1.95    0.23
   2 -17  -1    2.15    0.64
  -2 -17   1    1.25    0.55
  -2 -17   0   23.36    1.40
   2 -17   0   23.57    1.41
  -2 -17  -1   33.26    1.65
   2 -17   1   34.19    1.66
   2 -17   2   12.20    1.05
  -2 -17  -2   11.11    1.02
  -2 -17  -3   45.88    1.98
   2 -17   3   47.83    2.02
  -2 -17  -4   10.07    1.05
   2 -17   4    8.71    0.95
  -2 -17  -5    0.07    0.59
   2 -17   5   -0.31    0.55
   2 -17   6    9.13    1.04
  -2 -17  -6    7.57    1.01
   2 -17   7   10.39    1.08
  -2 -17  -7   12.80    1.22
  -2 -17  -8   24.02    1.64
   2 -17   8   25.01    1.61
  -2 -17  -9   21.45    1.57
   2 -17   9   21.09    1.50
  -2 -18   8    0.65    0.60
   2 -18  -8    1.55    0.77
  -2 -18   7    5.37    0.87
   2 -18  -7    7.27    1.04
   2 -18  -6   16.03    1.39
  -2 -18   6   14.93    1.26
   2 -18  -5   19.01    1.44
  -2 -18   5   14.52    1.22
   2 -18  -4   49.35    2.23
  -2 -18   4   47.79    2.10
  -2 -18   3   23.52    1.47
   2 -18  -3   21.88    1.45
  -2 -18   2    0.75    0.51
   2 -18  -2    1.45    0.57
   2 -18  -1   10.28    1.04
  -2 -18   1    9.68    0.98
  -2 -18   0    4.51    0.73
   2 -18   0    6.20    0.83
  -2 -18  -1   20.60    1.37
   2 -18   1   21.42    1.39
   2 -18   2   41.50    1.90
  -2 -18  -2   41.67    1.92
  -2 -18  -3    5.54    0.83
   2 -18   3    7.84    0.95
   2 -18   4    4.36    0.77
  -2 -18  -4    2.86    0.70
   2 -18   5   -0.15    0.57
  -2 -18  -5    0.56    0.59
   2 -18   6    3.76    0.76
  -2 -18  -6    2.56    0.78
  -2 -18  -7   18.46    1.51
   2 -18   7   19.16    1.43
  -2 -18  -8   19.48    1.56
   2 -18   8   18.15    1.43
  -2 -19   7    6.00    0.86
   2 -19  -7    8.41    1.12
   2 -19  -6   35.03    2.05
  -2 -19   6   32.49    1.83
  -2 -19   5    3.44    0.75
   2 -19  -5    5.19    0.99
  -2 -19   4    4.52    0.82
   2 -19  -4    3.52    0.79
  -2 -19   3   29.14    1.66
   2 -19  -3   26.83    1.64
  -2 -19   2   16.41    1.29
   2 -19  -2   16.12    1.30
   2 -19  -1    4.12    0.77
  -2 -19   1    5.45    0.80
  -2 -19   0   38.36    1.88
   2 -19   0   36.20    1.83
  -2 -19  -1   22.34    1.47
   2 -19   1   22.82    1.47
  -2 -19  -2    3.31    0.71
   2 -19   2    3.08    0.73
   2 -19   3    1.54    0.59
  -2 -19  -3    1.10    0.60
   2 -19   4    2.68    0.72
  -2 -19  -4    1.91    0.70
  -2 -19  -5   -1.36    0.70
   2 -19   5    1.33    0.62
   2 -19   6    6.61    0.93
  -2 -19  -6    7.66    1.05
   2 -19   7   21.45    1.55
  -2 -19  -7   21.96    1.67
   2 -20  -5   15.39    1.41
  -2 -20   5   14.89    1.31
  -2 -20   4    2.80    0.74
   2 -20  -4    1.92    0.70
   2 -20  -3   14.01    1.25
  -2 -20   3   14.83    1.28
  -2 -20   2   12.08    1.16
   2 -20  -2   13.12    1.20
   2 -20  -1    1.05    0.66
  -2 -20   1    1.21    0.63
  -2 -20   0   26.90    1.62
   2 -20   0   25.65    1.58
   2 -20   1    6.05    0.85
  -2 -20  -1    4.47    0.82
   2 -20   2    1.95    0.72
  -2 -20  -2    0.58    0.62
   2 -20   3    6.19    0.93
  -2 -20  -3    6.87    0.97
   2 -20   4    0.65    0.60
  -2 -20  -4    1.19    0.67
  -2 -20  -5    1.39    0.68
   2 -20   5    1.54    0.69
   2 -21  -2    5.55    0.90
  -2 -21   2    6.24    0.96
   2 -21  -1    0.62    0.58
  -2 -21   1    0.95    0.59
  -2 -21   0    1.12    0.66
   2 -21   0    1.32    0.62
   2 -21   1    8.17    0.98
  -2 -21  -1    7.62    1.03
   2 -21   2   17.47    1.38
  -2 -21  -2   18.54    1.43
  -3   0  15   -1.18    0.66
  -3   0  14   17.71    1.29
  -3   0  13   -0.99    0.87
  -3   0  12   91.00    2.67
  -3   0  11   -0.66    0.49
  -3   0  10   60.20    1.94
   3   0  -9   -0.52    0.38
  -3   0   9   -0.36    0.46
   3   0  -8  131.47    2.78
  -3   0   8  130.64    2.76
  -3   0   7   -0.43    0.35
   3   0  -7   -0.14    0.29
   3   0  -6  121.65    2.37
  -3   0   6  118.41    2.36
  -3   0   5   -0.32    0.34
   3   0  -5   -0.12    0.27
   3   0  -4  614.00    8.11
  -3   0   4  604.90    8.11
   3   0  -3    0.08    0.21
  -3   0   3    0.03    0.25
   3   0  -2   47.24    0.92
  -3   0   2   47.52    0.93
   3   0  -1    0.60    0.14
  -3   0   1    0.00    0.14
   3   0   0  825.02   10.57
  -3   0   0  827.67   10.58
   3   0   1    0.16    0.24
  -3   0  -1    0.45    0.24
  -3   0  -1    0.18    0.24
   3   0   1    0.45    0.27
  -3   0  -2 9804.05  117.62
   3   0   2 9999.00  117.63
  -3   0  -2 9599.45  117.11
  -3   0  -2 9773.49  117.61
   3   0   2 9667.34  117.11
   3   0   3    1.03    0.33
  -3   0  -3    0.71    0.31
   3   0   4   59.00    1.46
  -3   0  -4   62.24    1.47
  -3   0  -4   61.55    1.25
   3   0   4   61.48    1.24
   3   0   5    0.54    0.33
  -3   0  -5    0.18    0.26
   3   0   5   -0.28    0.28
  -3   0  -5   -0.11    0.25
   3   0   6    5.37    0.52
  -3   0  -6    4.99    0.52
  -3   0  -6    5.21    0.43
   3   0   6    5.35    0.46
  -3   0  -7    0.01    0.27
   3   0   7    0.09    0.35
  -3   0  -7   -0.17    0.28
   3   0   7   -0.25    0.34
   3   0   8  172.79    3.50
  -3   0  -8  177.78    3.57
  -3   0  -8  171.41    3.25
   3   0   8  173.03    3.26
   3   0   9    2.49    0.62
  -3   0  -9    1.13    0.43
   3   0   9    1.32    0.47
   3   0  10    0.88    0.47
   3   0  10    0.10    0.37
   3   0  11   -0.20    0.43
   3   0  12    0.89    0.47
   3   0  13    0.28    0.49
   3   0  14   22.99    1.42
   3   0  15    0.01    0.56
   3   0  16   22.89    1.56
  -3   1  15   19.51    1.41
  -3  -1  15   16.75    1.31
  -3  -1  14   -0.14    0.53
  -3   1  14   -0.42    0.56
  -3  -1  13   25.55    1.45
  -3   1  13   25.58    1.51
  -3  -1  12   26.81    1.41
  -3   1  12   26.28    1.40
  -3  -1  11   41.19    1.65
  -3   1  11   42.35    1.68
  -3  -1  10    6.02    0.68
  -3   1  10    6.71    0.70
   3  -1  -9  107.14    2.68
   3  -1  -9  109.59    2.59
   3   1  -9  109.71    2.58
  -3   1   9  104.88    2.57
  -3  -1   9  107.13    2.56
   3   1  -8    6.80    0.58
   3  -1  -8    7.23    0.62
  -3  -1   8    7.46    0.67
  -3   1   8    6.63    0.64
   3  -1  -7    0.33    0.31
  -3  -1   7    0.22    0.35
   3   1  -7    0.20    0.27
  -3   1   7    0.68    0.35
   3  -1  -6    6.40    0.51
  -3  -1   6    6.88    0.55
   3   1  -6    6.97    0.53
  -3   1   6    7.49    0.56
   3   1  -5  475.54    6.67
  -3  -1   5  475.78    6.68
   3  -1  -5  472.17    6.65
  -3   1   5  483.09    6.70
   3   1  -4    9.51    0.51
   3  -1  -4   10.38    0.50
  -3  -1   4   10.58    0.55
  -3   1   4    9.10    0.52
   3   1  -3  458.55    6.17
   3  -1  -3  457.43    6.15
  -3  -1   3  464.37    6.19
  -3   1   3  471.04    6.17
  -3  -1   2   29.00    0.70
   3   1  -2   28.20    0.66
  -3   1   2   27.73    0.67
   3  -1  -2   29.65    0.68
   3   1  -1   87.00    1.29
  -3   1   1   89.91    1.33
   3  -1  -1   89.90    1.32
   3  -1   0   19.82    0.65
  -3   1   0   19.02    0.62
   3   1   0   19.08    0.66
   3  -1   0   20.04    0.63
  -3   1  -1    1.50    0.28
   3   1   1    0.92    0.27
   3  -1   1    1.16    0.29
  -3  -1  -1    0.68    0.23
  -3  -1  -1    1.10    0.26
  -3   1  -1    1.13    0.25
   3   1   1    1.21    0.28
   3  -1   1    1.23    0.28
   3  -1   1    1.24    0.14
  -3   1  -1    0.91    0.12
  -3  -1  -1    1.09    0.12
  -3  -1  -2 1750.98   21.82
   3  -1   2 1747.64   21.40
  -3   1  -2 1747.88   21.91
   3  -1   2 1771.71   21.86
  -3   1  -2 1769.36   21.88
   3   1   2 1786.10   21.90
  -3  -1  -2 1767.35   21.87
  -3   1  -2 1751.64   21.47
   3   1   2 1753.01   21.41
  -3  -1  -2 1734.11   21.42
   3  -1   3  261.19    3.62
  -3  -1  -3  256.30    3.93
   3  -1   3  265.67    3.98
  -3  -1  -3  267.21    4.00
   3   1   3  264.38    3.99
  -3   1  -3  263.66    4.00
  -3   1  -3  268.39    3.70
  -3  -1  -3  262.92    3.63
   3   1   3  264.55    3.63
   3  -1   4    1.96    0.27
  -3   1  -4    2.09    0.26
  -3  -1  -4    1.83    0.25
   3  -1   4    1.84    0.32
  -3   1  -4    2.71    0.35
   3   1   4    1.71    0.35
  -3  -1  -4    2.18    0.34
  -3   1  -4    2.67    0.30
   3   1   4    2.83    0.31
   3  -1   5   85.06    1.91
  -3  -1  -5   86.07    1.92
  -3   1  -5   87.19    1.95
   3   1   5   81.92    1.87
  -3   1  -5   83.81    1.67
  -3  -1  -5   85.78    1.69
   3   1   5   87.14    1.70
   3  -1   5   84.03    1.69
   3  -1   6    4.76    0.50
   3   1   6    4.36    0.48
  -3   1  -6    4.41    0.49
  -3  -1  -6    4.45    0.48
  -3  -1  -6    4.00    0.40
   3  -1   6    4.05    0.41
  -3   1  -6    4.66    0.41
   3   1   6    4.46    0.43
   3   1   7   90.90    2.21
   3  -1   7   91.87    2.24
  -3  -1  -7   94.72    2.25
  -3   1  -7   94.89    2.32
  -3   1  -7   92.96    2.04
  -3  -1  -7   93.53    2.05
   3   1   7   92.47    2.03
   3  -1   7   90.54    2.01
  -3  -1  -8    8.89    0.72
   3   1   8    9.17    0.73
  -3   1  -8    9.25    0.78
   3  -1   8    8.58    0.75
   3  -1   8    6.29    0.57
  -3  -1  -8    7.72    0.59
  -3   1  -8    6.91    0.57
   3   1   8    6.63    0.59
  -3   1  -9  236.97    4.23
  -3  -1  -9  241.23    4.28
   3  -1   9  236.97    4.52
   3   1   9  236.03    4.49
  -3   1  -9  237.48    4.30
   3  -1   9  238.87    4.24
   3   1   9  233.21    4.21
   3  -1  10    0.64    0.45
   3   1  10    0.57    0.41
   3  -1  10    0.17    0.39
   3   1  10    0.38    0.39
   3   1  11    9.13    0.87
   3   1  11    8.55    0.79
   3  -1  11    8.93    0.82
   3   1  12    2.09    0.54
   3  -1  12    1.56    0.54
   3  -1  13   13.48    1.07
   3   1  13   13.98    1.08
   3  -1  14   -0.33    0.53
   3   1  14    0.66    0.55
   3  -1  15   30.26    1.68
   3   1  15   28.76    1.64
   3  -1  16    3.14    0.77
   3   1  16    3.37    0.79
  -3  -2  15   -0.25    0.59
  -3   2  15    0.46    0.63
  -3   2  14   15.17    1.20
  -3  -2  14   16.27    1.26
  -3  -2  13    9.54    0.95
  -3   2  13    8.13    0.92
  -3  -2  12    2.22    0.56
  -3   2  12    3.90    0.70
  -3  -2  11    3.19    0.57
  -3   2  11    2.76    0.59
  -3   2  10   61.53    1.96
  -3  -2  10   63.90    1.98
  -3  -2   9    6.50    0.66
   3  -2  -9    6.19    0.61
   3  -2  -9    8.06    0.74
   3   2  -9    5.90    0.60
  -3   2   9    6.46    0.66
   3  -2  -8    8.68    0.66
  -3  -2   8    9.89    0.71
   3   2  -8    9.91    0.69
  -3   2   8    9.49    0.71
   3  -2  -7   15.94    0.82
  -3  -2   7   15.98    0.83
   3   2  -7   17.53    0.83
  -3   2   7   14.94    0.80
   3  -2  -6    3.18    0.40
  -3  -2   6    3.60    0.45
   3   2  -6    3.67    0.41
  -3   2   6    3.69    0.46
  -3  -2   5  117.78    2.25
   3   2  -5  115.23    2.20
   3  -2  -5  116.85    2.21
  -3   2   5  114.52    2.20
  -3  -2   4  298.21    4.37
   3   2  -4  299.34    4.34
   3  -2  -4  297.02    4.33
  -3   2   4  294.96    4.34
  -3  -2   3   13.19    0.55
   3   2  -3   13.55    0.53
   3  -2  -3   12.09    0.51
  -3   2   3   13.02    0.54
  -3  -2   2  183.18    2.65
   3   2  -2  181.66    2.65
  -3   2   2  186.42    2.68
   3  -2  -2  182.25    2.66
   3  -2  -1  124.44    1.96
   3   2  -1  115.91    1.74
  -3  -2   1  118.44    1.74
  -3   2   1  120.09    1.75
   3  -2  -1  117.40    1.74
   3  -2   0  360.40    4.95
   3  -2   0  368.15    4.87
   3   2   0  354.47    4.97
  -3   2   0  362.65    4.89
   3  -2   0  345.16    4.62
   3   2   0  335.68    4.60
  -3  -2   0  372.41    4.60
  -3   2   0  360.72    4.60
   3  -2   0  364.55    4.56
  -3  -2  -1    7.99    0.45
   3  -2   1    7.97    0.46
  -3   2  -1    8.36    0.47
   3   2   1    7.48    0.41
  -3   2  -1    7.62    0.42
   3   2   1    6.63    0.43
   3  -2   1    8.45    0.43
  -3   2  -1    8.27    0.32
   3  -2   1    7.66    0.30
  -3  -2  -1    8.39    0.31
  -3  -2  -1    7.70    0.29
  -3   2  -2   72.39    1.53
  -3  -2  -2   71.42    1.41
   3  -2   2   72.27    1.47
  -3   2  -2   72.04    1.48
  -3  -2  -2   72.48    1.47
   3   2   2   73.70    1.51
  -3   2  -2   70.40    1.24
   3  -2   2   73.85    1.25
  -3  -2  -2   71.40    1.21
   3   2   2   72.17    1.22
   3  -2   3   45.65    0.96
  -3  -2  -3   42.97    1.09
   3  -2   3   46.47    1.18
  -3   2  -3   45.28    1.17
  -3  -2  -3   44.12    1.14
   3   2   3   44.79    1.17
  -3   2  -3   44.36    0.99
  -3  -2  -3   44.73    0.95
   3   2   3   44.66    0.96
   3  -2   4    7.99    0.44
  -3  -2  -4    7.10    0.49
  -3   2  -4    6.98    0.52
   3   2   4    7.84    0.53
   3  -2   4    6.97    0.50
  -3   2  -4    7.52    0.45
  -3  -2  -4    8.07    0.43
   3   2   4    7.78    0.44
   3  -2   5   80.72    1.66
   3  -2   5   83.67    1.90
  -3   2  -5   81.82    1.91
  -3  -2  -5   80.33    1.85
   3   2   5   77.99    1.82
  -3   2  -5   80.78    1.71
  -3  -2  -5   81.45    1.66
   3   2   5   80.50    1.66
   3  -2   6    0.80    0.30
  -3  -2  -6    1.24    0.30
  -3   2  -6    0.60    0.30
   3   2   6    1.05    0.34
   3  -2   6    0.78    0.33
  -3  -2  -6    0.70    0.29
  -3   2  -6    0.79    0.28
   3   2   6    0.87    0.31
  -3  -2  -7    0.33    0.29
   3  -2   7    0.24    0.32
  -3   2  -7    0.94    0.39
  -3  -2  -7    0.90    0.36
   3   2   7    0.94    0.40
   3  -2   7    1.06    0.40
  -3   2  -7    0.50    0.29
   3   2   7    0.89    0.34
  -3  -2  -8   77.77    1.96
  -3   2  -8   78.83    2.21
   3  -2   8   77.73    2.13
  -3  -2  -8   78.21    2.10
   3   2   8   75.84    2.08
  -3   2  -8   83.19    2.05
   3  -2   8   76.35    1.93
   3   2   8   77.49    1.93
   3  -2   9   -0.54    0.43
  -3  -2  -9   -0.22    0.41
   3   2   9    1.89    0.58
   3  -2   9    2.61    0.56
  -3   2  -9    1.23    0.43
   3   2   9    1.68    0.46
   3   2  10   12.66    0.93
   3  -2  10   12.07    0.92
   3  -2  10   12.77    0.88
   3   2  10   12.77    0.88
   3   2  11    0.16    0.44
   3  -2  11    0.52    0.45
   3   2  11    0.67    0.45
   3  -2  12   -0.15    0.47
   3   2  12   -0.08    0.45
   3  -2  13    2.93    0.69
   3   2  13    2.15    0.60
   3   2  14   19.53    1.32
   3  -2  14   22.11    1.37
   3   2  15    3.13    0.74
   3  -2  15    1.61    0.63
   3  -2  16   -0.98    0.66
   3   2  16   -0.08    0.61
  -3  -3  15   20.07    1.43
  -3   3  15   20.47    1.46
  -3  -3  14    5.54    0.84
  -3   3  14    5.79    0.85
  -3  -3  13    6.70    0.85
  -3   3  13    7.25    0.89
  -3   3  12   43.09    1.79
  -3  -3  12   38.31    1.68
  -3  -3  11    3.09    0.59
  -3   3  11    3.41    0.62
  -3  -3  10   -0.03    0.45
  -3   3  10   -0.26    0.47
   3  -3  -9   67.97    1.98
  -3  -3   9   64.09    1.93
  -3   3   9   66.00    1.94
   3  -3  -8   23.43    1.04
  -3  -3   8   22.73    1.08
   3   3  -8   22.00    1.04
  -3   3   8   22.01    1.04
   3  -3  -7    2.55    0.41
  -3  -3   7    2.57    0.47
   3   3  -7    2.87    0.42
  -3   3   7    2.40    0.43
  -3  -3   6    0.66    0.36
   3  -3  -6    0.98    0.32
   3   3  -6    1.02    0.33
  -3   3   6    1.17    0.36
  -3  -3   5   69.17    1.62
   3   3  -5   69.55    1.60
   3  -3  -5   70.48    1.59
  -3   3   5   69.03    1.60
  -3  -3   4   34.86    1.02
   3   3  -4   34.80    0.98
  -3   3   4   36.50    1.02
   3  -3  -4   35.04    1.00
  -3  -3   3  623.28    8.13
   3   3  -3  606.19    8.13
   3  -3  -3  615.23    8.13
  -3   3   3  632.45    8.17
   3   3  -2   10.06    0.44
  -3  -3   2    9.97    0.44
   3  -3  -2   10.89    0.44
  -3   3   2   10.55    0.46
   3  -3  -1   38.42    0.86
   3   3  -1   36.34    0.81
  -3  -3   1   35.88    0.80
   3  -3  -1   36.75    0.78
  -3   3   1   36.47    0.81
   3  -3  -1   37.44    0.81
  -3   3   0   28.90    0.76
   3  -3   0   30.42    0.82
   3   3   0   26.67    0.82
   3  -3   0   29.12    0.73
  -3  -3   0   29.12    0.69
   3  -3   0   25.91    0.67
   3   3   0   26.70    0.69
  -3   3   0   27.66    0.68
   3  -3   0   29.05    0.66
  -3   3  -1   86.76    1.68
   3   3   1   86.43    1.55
  -3  -3  -1   86.25    1.62
   3  -3   1   87.52    1.67
   3   3   1   84.98    1.64
  -3   3  -1   84.45    1.59
   3  -3   1   88.13    1.58
  -3  -3  -1   87.64    1.45
   3  -3   1   89.20    1.45
  -3   3  -1   86.19    1.48
  -3  -3  -1   86.63    1.45
  -3   3  -2    4.03    0.39
  -3  -3  -2    4.39    0.34
   3   3   2    4.61    0.39
   3  -3   2    4.24    0.38
  -3   3  -2    4.42    0.38
  -3  -3  -2    4.19    0.38
  -3   3  -2    4.27    0.31
   3  -3   2    4.34    0.31
  -3  -3  -2    4.28    0.28
   3   3   2    4.07    0.31
  -3  -3  -3   32.38    0.90
  -3  -3  -3   33.29    0.98
   3  -3   3   32.55    0.98
   3   3   3   35.32    1.01
  -3   3  -3   34.58    1.00
   3  -3   3   35.57    0.90
  -3   3  -3   34.04    0.88
  -3  -3  -3   34.51    0.85
   3   3   3   33.98    0.85
   3  -3   4   -0.15    0.24
  -3   3  -4    0.12    0.24
   3  -3   4    0.21    0.27
  -3  -3  -4   -0.41    0.28
   3   3   4   -0.10    0.27
  -3   3  -4    0.26    0.22
  -3  -3  -4    0.06    0.22
   3   3   4   -0.11    0.24
   3  -3   5  103.34    2.00
   3  -3   5  101.91    2.19
  -3   3  -5  105.42    2.24
  -3  -3  -5  100.46    2.13
   3   3   5   97.73    2.11
  -3   3  -5  105.79    2.05
  -3  -3  -5  104.06    1.99
   3   3   5  104.87    2.00
   3  -3   6    0.04    0.29
  -3  -3  -6    0.64    0.27
   3   3   6    0.40    0.30
  -3  -3  -6   -0.01    0.27
   3  -3   6   -0.21    0.33
  -3   3  -6    0.23    0.31
  -3   3  -6    0.09    0.25
   3   3   6    0.01    0.28
   3  -3   7  140.06    2.72
  -3  -3  -7  136.11    2.87
   3  -3   7  137.26    2.92
  -3   3  -7  138.06    3.00
   3   3   7  137.28    2.87
  -3   3  -7  141.11    2.80
   3   3   7  141.42    2.73
  -3  -3  -7  143.54    2.75
   3  -3   8   14.46    0.83
  -3  -3  -8   16.83    0.87
   3   3   8   16.08    0.94
  -3   3  -8   15.40    0.97
  -3  -3  -8   15.54    0.94
   3  -3   8   15.84    0.95
  -3   3  -8   15.00    0.87
   3   3   8   16.01    0.86
  -3  -3  -9   39.02    1.41
   3   3   9   37.98    1.50
   3  -3   9   39.95    1.56
  -3   3  -9   40.55    1.46
   3   3   9   39.77    1.42
   3  -3   9   39.06    1.41
   3   3  10    6.78    0.73
   3  -3  10    6.56    0.75
   3  -3  10    8.38    0.75
   3   3  10    7.17    0.70
   3   3  11    0.31    0.44
   3  -3  11   -0.42    0.46
   3   3  11    0.62    0.45
   3  -3  12   -0.09    0.45
   3   3  12   -0.49    0.52
   3  -3  13    9.84    0.94
   3   3  13    9.74    0.94
   3   3  14    2.53    0.71
   3  -3  14    1.93    0.67
   3   3  15    5.28    0.86
   3  -3  15    4.23    0.80
   3   3  16    8.25    1.05
   3  -3  16    8.75    1.07
  -3  -4  15    0.06    0.55
  -3   4  15    1.82    0.70
  -3   4  14   28.42    1.62
  -3  -4  14   28.65    1.60
  -3  -4  13    1.43    0.58
  -3   4  13    2.12    0.61
  -3  -4  12   31.41    1.55
  -3   4  12   35.10    1.61
  -3  -4  11    5.66    0.68
  -3   4  11    5.03    0.68
   3  -4 -10   97.74    2.56
  -3  -4  10   97.62    2.56
  -3   4  10   99.05    2.58
   3  -4  -9   42.18    1.50
  -3  -4   9   40.63    1.52
  -3   4   9   43.17    1.54
  -3  -4   8   74.84    2.03
   3  -4  -8   76.31    1.99
   3   4  -8   75.02    2.03
   3  -4  -8   80.13    2.06
  -3   4   8   74.48    2.00
  -3  -4   7   13.72    0.79
   3   4  -7   15.39    0.82
  -3   4   7   15.37    0.83
   3  -4  -7   16.28    0.82
   3  -4  -6    2.69    0.37
  -3  -4   6    1.91    0.40
   3   4  -6    2.20    0.37
  -3   4   6    2.46    0.44
  -3  -4   5   52.63    1.39
   3   4  -5   55.12    1.42
   3  -4  -5   53.30    1.38
  -3   4   5   53.34    1.42
  -3  -4   4  118.48    2.21
   3   4  -4  123.44    2.24
  -3   4   4  117.56    2.24
   3  -4  -4  118.74    2.20
   3   4  -3    2.03    0.30
  -3  -4   3    1.74    0.32
   3  -4  -3    2.06    0.30
  -3   4   3    1.73    0.33
   3   4  -2   97.25    1.74
  -3  -4   2   98.74    1.76
   3  -4  -2   96.77    1.73
  -3   4   2  100.77    1.79
   3  -4  -1  102.84    1.68
   3   4  -1   99.82    1.76
  -3  -4   1  102.27    1.75
   3  -4  -1  103.92    1.78
   3  -4  -1  101.24    1.71
   3  -4   0   69.43    1.38
   3   4   0   63.39    1.39
  -3   4   0   66.06    1.28
   3  -4   0   69.91    1.27
  -3  -4   0   66.62    1.32
  -3   4   0   64.02    1.30
   3   4   0   67.41    1.33
   3  -4   0   65.68    1.34
   3  -4   0   70.40    1.30
   3   4   1   30.91    0.88
   3   4   1   31.56    0.80
  -3  -4  -1   33.07    0.89
  -3   4  -1   32.45    0.93
   3  -4   1   32.55    0.83
  -3   4  -1   31.57    0.85
   3  -4   1   34.30    0.85
  -3  -4  -1   32.94    0.87
  -3   4  -1   31.95    0.87
  -3  -4  -1   33.02    0.84
  -3  -4  -2   12.93    0.50
  -3   4  -2   13.07    0.63
  -3  -4  -2   13.50    0.59
   3  -4   2   14.05    0.58
  -3   4  -2   12.99    0.58
   3   4   2   13.08    0.59
  -3   4  -2   13.00    0.54
   3  -4   2   13.69    0.54
  -3  -4  -2   12.71    0.51
  -3  -4  -3    5.02    0.36
  -3   4  -3    5.39    0.42
   3   4   3    5.11    0.42
  -3  -4  -3    4.79    0.40
   3  -4   3    5.70    0.44
   3  -4   3    5.73    0.41
  -3   4  -3    4.86    0.37
   3   4   3    5.33    0.38
  -3  -4  -3    5.65    0.37
  -3  -4  -4    9.73    0.50
   3   4   4    9.34    0.56
   3  -4   4   10.28    0.61
  -3  -4  -4   10.78    0.58
  -3   4  -4   10.04    0.59
  -3   4  -4    9.80    0.53
   3  -4   4   11.05    0.57
   3   4   4   10.67    0.55
  -3  -4  -4   10.72    0.53
   3  -4   5   -0.13    0.28
  -3  -4  -5    0.06    0.25
   3   4   5    0.26    0.28
  -3   4  -5    0.37    0.27
   3  -4   5    0.62    0.31
  -3   4  -5    0.12    0.24
  -3  -4  -5    0.32    0.24
   3   4   5    0.50    0.29
  -3  -4  -6    0.31    0.27
   3  -4   6   -0.09    0.28
   3  -4   6    0.21    0.32
  -3  -4  -6   -0.05    0.27
   3   4   6    0.28    0.31
  -3   4  -6   -0.02    0.27
  -3   4  -6    0.30    0.28
   3   4   6    0.34    0.29
  -3  -4  -7    0.68    0.31
   3  -4   7    0.08    0.31
   3   4   7    0.31    0.35
   3  -4   7    0.55    0.38
  -3  -4  -7    0.01    0.27
  -3   4  -7    0.70    0.38
  -3   4  -7    0.45    0.31
   3   4   7    0.14    0.31
   3  -4   8   94.72    2.25
  -3   4  -8   93.15    2.50
   3   4   8   88.61    2.31
   3  -4   8   94.39    2.41
  -3  -4  -8   94.42    2.35
  -3   4  -8   96.96    2.32
   3   4   8   97.50    2.27
  -3  -4  -8   98.44    2.28
   3  -4   9   64.98    2.05
   3   4   9   63.05    1.97
  -3  -4  -9   66.62    1.91
   3  -4   9   63.85    1.88
   3   4   9   66.73    1.91
   3   4  10    2.41    0.51
   3  -4  10    2.69    0.55
   3   4  10    2.91    0.54
   3   4  11    9.45    0.89
   3   4  11    9.15    0.82
   3  -4  11   10.40    0.87
   3  -4  12   10.05    0.92
   3   4  12   10.96    0.95
   3  -4  13    2.39    0.60
   3   4  13    1.63    0.59
   3   4  14   34.75    1.76
   3  -4  14   35.14    1.75
   3   4  15   -0.32    0.55
   3  -4  15   -0.53    0.60
  -3  -5  15   29.42    1.71
  -3   5  15   30.07    1.77
  -3  -5  14    4.84    0.81
  -3   5  14    5.41    0.85
  -3  -5  13   -0.02    0.54
  -3   5  13    0.08    0.54
  -3  -5  12   -0.75    0.56
  -3   5  12    0.33    0.57
  -3  -5  11   -0.07    0.52
  -3   5  11   -0.12    0.48
   3  -5 -10    9.84    0.78
  -3  -5  10    8.85    0.80
  -3   5  10    9.40    0.83
   3  -5  -9  156.81    3.22
  -3  -5   9  146.89    3.26
  -3   5   9  154.36    3.31
  -3  -5   8   38.02    1.42
   3  -5  -8   39.32    1.35
   3   5  -8   39.32    1.43
  -3   5   8   38.48    1.43
   3  -5  -8   41.88    1.43
  -3  -5   7   69.48    1.88
   3   5  -7   73.10    1.92
   3  -5  -7   73.61    1.89
  -3   5   7   73.75    1.92
  -3  -5   6    2.03    0.41
   3   5  -6    2.41    0.40
  -3   5   6    2.09    0.42
   3  -5  -6    2.61    0.38
  -3  -5   5  131.89    2.56
   3   5  -5  140.88    2.65
  -3   5   5  135.97    2.61
   3  -5  -5  136.45    2.56
   3   5  -4   70.03    1.61
  -3  -5   4   68.12    1.57
   3  -5  -4   68.60    1.56
  -3   5   4   72.38    1.64
   3   5  -3   44.96    1.15
  -3  -5   3   42.93    1.13
   3  -5  -3   45.41    1.13
  -3   5   3   44.47    1.16
   3   5  -2   27.05    0.84
  -3  -5   2   26.75    0.83
   3  -5  -2   26.81    0.80
  -3   5   2   26.82    0.85
   3  -5  -1   29.90    0.71
   3  -5  -1   29.38    0.82
   3  -5  -1   30.13    0.90
   3   5  -1   29.05    0.88
  -3  -5   1   30.34    0.88
   3  -5  -1   31.14    0.85
  -3   5   0    1.66    0.23
   3  -5   0    1.57    0.24
   3   5   0    1.52    0.29
   3  -5   0    1.04    0.17
   3  -5   0    1.37    0.31
  -3  -5   0    1.48    0.31
   3   5   0    1.48    0.27
  -3   5   0    1.86    0.30
   3   5   1    0.75    0.20
  -3   5  -1    0.95    0.26
   3   5   1    0.44    0.22
  -3   5  -1    0.65    0.20
   3  -5   1    0.74    0.21
   3  -5   1    1.05    0.29
  -3   5  -1    0.75    0.27
  -3  -5  -1    0.92    0.30
  -3  -5  -1    0.17    0.23
  -3   5  -2   17.96    0.74
  -3  -5  -2   18.47    0.68
   3   5   2   18.46    0.68
   3  -5   2   18.80    0.68
  -3   5  -2   19.09    0.69
  -3   5  -2   18.45    0.68
   3  -5   2   18.32    0.68
  -3  -5  -2   19.45    0.71
  -3  -5  -2   18.52    0.67
  -3  -5  -3  120.92    2.05
  -3  -5  -3  123.87    2.22
   3   5   3  119.29    2.22
  -3   5  -3  122.46    2.27
   3  -5   3  124.30    2.26
  -3   5  -3  127.79    2.25
   3  -5   3  125.45    2.22
  -3  -5  -3  125.91    2.19
   3   5   3  125.70    2.23
  -3  -5  -4   12.65    0.55
   3  -5   4   13.88    0.68
  -3   5  -4   13.44    0.69
  -3  -5  -4   12.90    0.63
   3   5   4   12.61    0.65
  -3   5  -4   13.03    0.63
   3  -5   4   13.43    0.64
   3   5   4   13.07    0.64
  -3  -5  -4   13.76    0.63
  -3   5  -5   22.51    0.97
   3  -5   5   23.77    0.95
   3   5   5   21.67    0.88
  -3  -5  -5   23.84    0.90
   3  -5   5   24.25    0.91
  -3   5  -5   24.17    0.92
  -3  -5  -5   24.44    0.88
   3   5   5   23.51    0.89
   3  -5   6    0.89    0.32
   3   5   6    0.71    0.29
  -3   5  -6    0.99    0.31
   3  -5   6    0.38    0.33
  -3  -5  -6    0.80    0.28
  -3   5  -6    1.01    0.33
   3   5   6    1.10    0.33
  -3  -5  -6    0.55    0.28
   3  -5   7   30.61    1.14
  -3  -5  -7   30.68    1.17
   3   5   7   29.54    1.17
  -3   5  -7   30.21    1.26
   3  -5   7   30.08    1.22
  -3   5  -7   29.95    1.17
  -3  -5  -7   30.64    1.13
   3   5   7   30.46    1.14
   3  -5   8   11.51    0.78
   3  -5   8   11.72    0.85
   3   5   8   11.82    0.82
  -3  -5  -8   10.54    0.75
  -3   5  -8   11.75    0.81
   3   5   8   10.57    0.75
  -3  -5  -8   11.48    0.76
   3   5   9   78.94    2.23
   3  -5   9   83.02    2.37
   3  -5   9   81.97    2.19
   3   5   9   81.09    2.18
   3   5  10    5.54    0.68
   3  -5  10    5.28    0.64
   3   5  10    5.48    0.67
   3   5  11   19.97    1.22
   3  -5  11   17.71    1.11
   3   5  11   21.05    1.20
   3  -5  12   -0.49    0.52
   3   5  12   -0.08    0.47
   3  -5  13    9.64    0.93
   3   5  13    9.44    0.96
   3  -5  14    1.97    0.67
   3   5  14    2.09    0.69
   3  -5  15    5.03    0.81
   3   5  15    4.38    0.86
  -3  -6  15    1.05    0.62
  -3   6  15   -0.68    0.62
  -3  -6  14   22.02    1.47
  -3   6  14   25.04    1.59
  -3  -6  13   -0.01    0.53
  -3   6  13    0.64    0.53
  -3  -6  12    4.17    1.14
  -3   6  12    4.97    0.71
  -3  -6  11   -0.63    0.51
  -3   6  11   -0.36    0.52
   3  -6 -10    0.43    0.31
  -3  -6  10    0.65    0.44
  -3   6  10    0.69    0.47
   3  -6  -9   18.69    0.98
  -3  -6   9   16.71    1.03
  -3   6   9   19.54    1.09
  -3  -6   8  151.77    3.24
   3  -6  -8  159.19    3.09
   3   6  -8  157.64    3.30
  -3   6   8  157.07    3.28
   3  -6  -8  156.33    3.22
  -3  -6   7   23.42    1.07
   3  -6  -7   25.60    0.98
   3   6  -7   26.11    1.11
  -3   6   7   25.14    1.09
   3  -6  -7   26.04    1.08
   3   6  -6   67.98    1.79
  -3  -6   6   62.82    1.71
   3  -6  -6   66.74    1.72
  -3   6   6   66.78    1.78
   3   6  -5   18.10    0.84
  -3  -6   5   17.37    0.82
  -3   6   5   19.28    0.88
   3  -6  -5   18.18    0.80
  -3  -6   4  128.65    2.45
   3   6  -4  127.58    2.47
  -3   6   4  131.30    2.50
   3  -6  -4  128.01    2.42
  -3  -6   3    4.91    0.45
   3   6  -3    4.88    0.43
  -3   6   3    5.41    0.48
   3  -6  -3    5.15    0.43
   3  -6  -2  151.12    2.25
   3   6  -2  150.09    2.63
  -3  -6   2  150.80    2.63
   3  -6  -2  150.20    2.58
  -3   6   2  152.09    2.64
   3  -6  -2  150.43    2.64
   3  -6  -1    3.98    0.34
   3  -6  -1    3.47    0.25
   3   6  -1    3.15    0.38
  -3  -6   1    4.01    0.43
   3  -6  -1    3.61    0.43
   3  -6  -1    4.22    0.39
  -3   6   0   22.44    0.64
   3  -6   0   25.61    0.77
   3   6   0   23.30    0.78
   3  -6   0   25.00    0.64
  -3  -6   0   22.68    0.82
  -3   6   0   24.06    0.84
   3  -6   0   24.89    0.86
   3   6   0   24.72    0.87
  -3   6  -1    1.98    0.31
   3   6   1    2.30    0.23
   3  -6   1    2.59    0.28
   3   6   1    1.84    0.29
  -3   6  -1    2.33    0.26
   3  -6   1    2.59    0.35
  -3   6  -1    1.76    0.32
  -3  -6  -1    2.02    0.36
  -3  -6  -1    1.78    0.30
  -3   6  -2   71.66    1.65
  -3  -6  -2   72.06    1.49
  -3   6  -2   71.14    1.50
   3   6   2   66.36    1.47
   3  -6   2   74.03    1.48
  -3   6  -2   72.77    1.61
   3  -6   2   75.67    1.60
  -3  -6  -2   73.37    1.58
  -3  -6  -2   76.04    1.59
  -3  -6  -3    0.69    0.19
   3   6   3    0.56    0.26
  -3   6  -3    0.69    0.27
   3  -6   3    0.69    0.26
  -3  -6  -3    0.63    0.24
   3  -6   3    0.55    0.27
  -3   6  -3    0.83    0.28
  -3  -6  -3    0.83    0.26
  -3  -6  -4   21.26    0.70
   3  -6   4   23.14    0.88
   3   6   4   21.01    0.81
  -3   6  -4   22.63    0.89
  -3  -6  -4   22.54    0.82
   3  -6   4   23.34    0.87
  -3   6  -4   23.70    0.89
  -3  -6  -4   23.22    0.85
   3   6   4   22.23    0.86
  -3  -6  -5    4.23    0.34
  -3   6  -5    3.90    0.46
   3   6   5    3.52    0.39
   3  -6   5    4.04    0.45
  -3  -6  -5    3.88    0.41
   3  -6   5    4.06    0.45
  -3   6  -5    4.55    0.46
   3   6   5    4.10    0.44
  -3  -6  -5    4.78    0.44
   3  -6   6   -0.02    0.33
  -3   6  -6    0.36    0.31
   3   6   6   -0.12    0.29
  -3  -6  -6    0.58    0.28
   3  -6   6    0.47    0.33
   3  -6   6    0.38    0.31
  -3   6  -6    0.35    0.29
   3   6   6    0.54    0.31
  -3  -6  -6   -0.34    0.29
   3  -6   7    0.10    0.33
   3  -6   7    0.90    0.40
  -3   6  -7    0.95    0.38
  -3  -6  -7    0.40    0.28
   3   6   7    0.41    0.31
  -3   6  -7    0.02    0.28
  -3  -6  -7    0.74    0.33
   3   6   7    0.36    0.36
   3  -6   8  141.93    2.98
   3   6   8  140.94    3.01
  -3  -6  -8  138.38    2.99
   3  -6   8  138.67    3.14
  -3   6  -8  145.86    3.11
  -3  -6  -8  143.67    2.98
   3   6   8  145.15    3.03
  -3  -6  -9   11.25    0.83
   3   6   9   12.88    0.89
   3  -6   9   11.71    0.85
   3   6   9   12.83    0.90
   3   6  10   15.41    1.00
   3  -6  10   14.45    0.97
   3   6  10   14.55    1.00
   3   6  11    1.66    0.56
   3  -6  11    0.36    0.42
   3   6  11    0.89    0.46
   3   6  12   24.52    1.38
   3  -6  12   25.15    1.40
   3  -6  13    2.75    0.70
   3   6  13    2.53    0.68
   3  -6  14    1.56    0.64
   3   6  14    1.28    0.61
   3  -6  15    2.15    0.67
   3   6  15    2.55    0.71
  -3  -7  14    0.01    0.56
  -3   7  14   -0.53    0.61
  -3  -7  13    0.07    0.53
  -3   7  13    1.73    0.63
  -3  -7  12    4.34    0.71
  -3   7  12    4.33    0.74
  -3  -7  11   24.10    1.35
  -3   7  11   25.33    1.35
   3  -7 -10   29.22    1.27
  -3  -7  10   28.28    1.37
  -3   7  10   29.83    1.42
   3  -7  -9   98.39    2.34
  -3  -7   9   93.94    2.52
  -3   7   9   98.13    2.58
   3  -7  -8    5.79    0.52
  -3  -7   8    4.85    0.59
  -3   7   8    4.69    0.58
  -3  -7   7   32.52    1.28
   3  -7  -7   34.65    1.13
   3   7  -7   33.65    1.34
   3  -7  -7   34.70    1.28
  -3   7   7   33.38    1.32
  -3  -7   6   16.48    0.87
   3   7  -6   16.54    0.87
   3  -7  -6   18.96    0.88
  -3   7   6   17.37    0.90
  -3  -7   5  294.64    4.80
   3   7  -5  308.07    4.90
   3  -7  -5  298.99    4.78
  -3   7   5  303.95    4.87
  -3  -7   4   23.17    0.94
   3   7  -4   24.80    0.96
   3  -7  -4   22.99    0.91
  -3   7   4   24.50    0.95
  -3  -7   3   46.96    1.33
   3   7  -3   47.10    1.32
   3  -7  -3   45.59    1.27
   3  -7  -3   47.42    1.35
  -3   7   3   46.33    1.30
   3  -7  -2   31.86    0.70
   3  -7  -2   32.95    0.87
   3   7  -2   30.38    1.02
   3  -7  -2   32.25    1.05
  -3  -7   2   29.75    1.03
   3  -7  -2   32.10    1.02
   3  -7  -1   94.66    1.73
   3  -7  -1   92.88    1.49
   3  -7  -1   90.34    2.02
  -3  -7   1   92.47    1.95
   3   7  -1   91.91    2.03
   3  -7  -1   93.75    1.94
  -3   7   0    9.15    0.40
   3   7   0    8.39    0.49
   3  -7   0    9.07    0.37
  -3  -7   0    8.70    0.58
   3  -7   0    9.73    0.61
   3   7   0    8.96    0.59
  -3   7   0    8.93    0.57
   3   7   1    5.88    0.42
  -3   7  -1    6.44    0.45
   3   7   1    6.12    0.32
   3  -7   1    8.08    0.41
  -3   7  -1    6.22    0.37
  -3   7  -1    6.06    0.52
  -3  -7  -1    6.37    0.53
   3  -7   1    6.34    0.51
  -3  -7  -1    6.31    0.48
  -3  -7  -2   19.10    0.69
  -3   7  -2   18.83    0.80
   3   7   2   18.59    0.70
  -3   7  -2   19.01    0.69
   3  -7   2   18.36    0.67
   3  -7   2   19.38    0.80
  -3   7  -2   19.10    0.83
  -3  -7  -2   19.30    0.82
  -3  -7  -2   19.54    0.79
  -3  -7  -3   63.26    1.43
   3   7   3   59.62    1.41
   3  -7   3   65.34    1.49
  -3   7  -3   64.47    1.50
  -3   7  -3   65.23    1.61
   3  -7   3   66.16    1.60
  -3  -7  -3   67.14    1.56
  -3  -7  -3   66.47    1.60
  -3  -7  -4   50.10    1.12
  -3  -7  -4   51.30    1.32
  -3   7  -4   52.40    1.43
   3   7   4   52.61    1.34
   3  -7   4   52.01    1.39
   3  -7   4   53.20    1.45
  -3   7  -4   52.22    1.45
  -3  -7  -4   53.99    1.42
   3   7   4   53.97    1.48
  -3  -7  -5    7.98    0.45
  -3   7  -5    8.21    0.62
   3   7   5    8.52    0.55
  -3  -7  -5    7.93    0.53
   3  -7   5    8.19    0.62
  -3   7  -5    8.68    0.62
   3  -7   5    7.50    0.58
  -3  -7  -5    8.37    0.56
   3   7   5    8.85    0.63
  -3  -7  -6    0.68    0.24
  -3   7  -6    0.84    0.35
   3   7   6    0.92    0.28
   3  -7   6    0.89    0.36
  -3  -7  -6    1.18    0.31
  -3   7  -6    0.95    0.33
   3  -7   6    0.62    0.32
   3   7   6    0.90    0.38
  -3  -7  -6    1.00    0.31
   3  -7   7   13.60    0.80
  -3   7  -7   17.03    0.95
  -3  -7  -7   15.66    0.84
   3   7   7   16.66    0.86
   3  -7   7   15.56    0.90
  -3   7  -7   15.08    0.89
  -3  -7  -7   15.23    0.84
   3   7   7   14.83    0.88
   3   7   8    7.88    0.69
  -3  -7  -8    7.35    0.66
   3  -7   8    6.71    0.66
  -3  -7  -8    6.46    0.62
   3   7   8    7.43    0.70
  -3  -7  -9   40.83    1.52
   3   7   9   41.57    1.53
   3  -7   9   40.70    1.53
   3   7   9   40.50    1.55
   3   7  10    5.07    0.65
   3  -7  10    3.22    0.57
   3   7  10    4.90    0.66
   3  -7  11    2.61    0.58
   3   7  11    2.72    0.62
   3  -7  12    1.12    0.55
   3   7  12    2.91    0.67
   3  -7  13   13.83    1.11
   3   7  13   15.07    1.26
   3   7  14   17.46    1.33
   3  -7  14   14.52    1.23
   3  -7  15   11.33    1.14
   3   7  15   12.10    1.20
  -3  -8  14    2.51    0.66
  -3   8  14    3.06    0.71
  -3  -8  13    0.03    0.53
  -3   8  13   -0.41    0.58
  -3  -8  12   11.61    1.03
  -3   8  12   10.81    1.06
  -3  -8  11   10.35    0.96
  -3   8  11   11.19    0.98
   3  -8 -10   86.64    2.26
  -3  -8  10   84.68    2.50
  -3   8  10   89.70    2.59
   3  -8  -9   11.71    0.76
  -3  -8   9   12.64    0.94
  -3   8   9   12.58    0.96
   3  -8  -8   11.26    0.67
  -3  -8   8    9.69    0.80
  -3   8   8   11.02    0.84
   3  -8  -7   35.29    1.11
   3   8  -7   35.27    1.39
  -3  -8   7   34.59    1.34
  -3   8   7   35.95    1.42
   3  -8  -6   36.01    1.04
   3   8  -6   39.49    1.39
  -3  -8   6   36.38    1.31
   3  -8  -6   37.30    1.29
  -3   8   6   36.88    1.38
  -3  -8   5    2.66    0.48
   3   8  -5    2.26    0.40
  -3   8   5    2.65    0.48
   3  -8  -5    2.55    0.41
   3   8  -4  217.39    3.83
  -3  -8   4  219.16    3.81
   3  -8  -4  220.14    3.77
  -3   8   4  223.80    3.87
   3  -8  -3  157.10    2.28
   3   8  -3  151.89    2.95
  -3  -8   3  158.71    2.95
  -3   8   3  154.90    2.97
   3  -8  -3  157.56    2.92
   3  -8  -3  152.68    2.94
   3  -8  -2   56.61    1.22
   3  -8  -2   55.34    0.97
   3  -8  -2   57.75    1.56
   3   8  -2   55.86    1.52
  -3  -8   2   54.27    1.50
   3  -8  -2   56.86    1.48
   3  -8  -1   19.59    0.67
   3  -8  -1   20.17    0.50
   3  -8  -1   19.39    0.91
  -3  -8   1   17.35    0.85
   3   8  -1   17.95    0.90
   3  -8  -1   18.74    0.84
   3   8   0  236.36    3.61
  -3   8   0  229.34    3.32
   3  -8   0  240.95    3.30
  -3  -8   0  234.50    3.92
   3  -8   0  239.04    3.95
   3   8   0  237.12    3.94
  -3   8   0  232.49    3.92
   3   8   1    6.82    0.42
   3   8   1    6.64    0.32
  -3   8  -1    6.68    0.46
   3  -8   1    7.04    0.38
  -3   8  -1    7.05    0.39
  -3  -8  -1    6.62    0.57
  -3   8  -1    7.63    0.59
   3  -8   1    6.49    0.55
  -3  -8  -1    6.63    0.51
  -3   8  -2  329.12    4.99
   3   8   2  315.71    4.67
   3  -8   2  327.55    4.67
  -3   8  -2  319.09    4.70
   3  -8   2  329.09    5.04
  -3   8  -2  334.33    5.20
  -3  -8  -2  327.50    5.11
  -3  -8  -2  322.58    5.02
  -3  -8  -3   36.32    1.02
  -3   8  -3   36.11    1.08
   3  -8   3   36.89    1.08
   3   8   3   35.49    1.03
  -3   8  -3   36.89    1.23
  -3  -8  -3   38.81    1.23
   3  -8   3   37.59    1.23
  -3  -8  -3   39.08    1.21
  -3  -8  -4  333.26    5.05
   3   8   4  335.80    5.07
   3  -8   4  345.61    5.22
  -3   8  -4  339.70    5.27
   3  -8   4  348.71    5.38
  -3   8  -4  353.17    5.44
  -3  -8  -4  352.24    5.34
  -3  -8  -4  355.89    5.45
  -3  -8  -5   36.64    0.97
   3  -8   5   37.46    1.27
  -3   8  -5   38.39    1.31
   3   8   5   36.65    1.15
  -3  -8  -5   37.44    1.15
  -3   8  -5   40.93    1.35
   3  -8   5   39.05    1.32
   3   8   5   38.93    1.32
  -3  -8  -5   41.47    1.32
  -3  -8  -6    3.03    0.33
  -3   8  -6    2.24    0.43
  -3  -8  -6    2.86    0.39
   3  -8   6    3.22    0.45
   3   8   6    2.38    0.39
  -3   8  -6    3.25    0.48
   3  -8   6    2.74    0.45
  -3  -8  -6    3.21    0.45
   3   8   6    3.02    0.50
  -3   8  -7   41.31    1.53
   3   8   7   41.11    1.36
  -3  -8  -7   38.03    1.32
   3  -8   7   41.01    1.50
  -3   8  -7   40.91    1.48
   3  -8   7   39.60    1.45
  -3  -8  -7   42.07    1.43
   3   8   7   39.82    1.47
   3   8   8   97.39    2.36
  -3  -8  -8   92.66    2.30
   3  -8   8   93.87    2.38
   3   8   8   98.67    2.51
   3   8   9    5.11    0.60
  -3  -8  -9    4.70    0.56
   3  -8   9    4.82    0.64
   3   8   9    5.94    0.70
   3   8  10   32.88    1.43
   3  -8  10   32.37    1.46
   3   8  10   33.24    1.49
   3  -8  11    0.77    0.51
   3   8  11    1.38    0.53
   3  -8  12   12.44    1.05
   3   8  12   14.82    1.16
   3  -8  13    1.22    0.59
   3   8  13    3.08    0.87
   3   8  14   22.61    1.48
   3  -8  14   20.03    1.40
   3  -8  15    3.48    0.77
  -3  -9  14    3.10    0.72
  -3   9  14    2.80    0.79
  -3  -9  13   -0.66    0.63
  -3   9  13    0.15    0.55
  -3  -9  12    1.44    0.56
  -3   9  12    2.57    0.69
  -3  -9  11   75.10    2.50
  -3   9  11   79.89    2.56
   3  -9 -10    0.26    0.31
  -3  -9  10    0.81    0.51
  -3   9  10    0.97    0.55
   3  -9  -9   53.18    1.57
  -3  -9   9   51.74    1.85
  -3   9   9   53.05    1.90
  -3  -9   8   -0.25    0.44
   3  -9  -8    0.60    0.29
  -3  -9   8    0.44    0.40
  -3   9   8    0.20    0.45
   3  -9  -7   11.35    0.60
  -3  -9   7   11.12    0.81
  -3   9   7   10.95    0.83
   3  -9  -6    3.54    0.33
  -3  -9   6    3.70    0.52
   3   9  -6    4.45    0.52
  -3   9   6    4.18    0.54
   3  -9  -6    4.74    0.53
   3  -9  -5  106.69    1.87
  -3  -9   5  104.41    2.44
   3   9  -5  108.01    2.51
   3  -9  -5  108.79    2.45
  -3   9   5  110.17    2.52
   3   9  -4   20.32    0.97
  -3  -9   4   20.53    0.97
   3  -9  -4   19.92    0.98
   3  -9  -4   19.87    0.93
  -3   9   4   20.21    1.00
   3  -9  -3  366.57    5.10
   3  -9  -3  365.23    4.72
  -3  -9   3  363.79    5.73
   3  -9  -3  365.00    5.73
   3   9  -3  360.48    5.73
   3  -9  -3  368.26    5.67
   3  -9  -2   59.22    1.26
   3  -9  -2   59.62    0.95
  -3  -9   2   57.64    1.62
   3  -9  -2   57.29    1.67
   3   9  -2   59.15    1.70
   3  -9  -2   60.85    1.63
   3  -9  -1    1.35    0.14
  -3  -9   1    1.21    0.36
   3  -9  -1    2.01    0.42
   3   9  -1    2.30    0.43
   3  -9  -1    1.23    0.35
  -3   9   0   23.39    0.62
   3   9   0   23.11    0.78
   3  -9   0   22.59    0.58
   3  -9   0   23.39    1.00
  -3  -9   0   22.16    0.97
   3   9   0   23.10    0.99
  -3   9   0   22.57    0.97
   3   9   1    3.42    0.23
  -3   9  -1    3.24    0.35
   3  -9   1    3.44    0.29
   3   9   1    2.89    0.30
  -3   9  -1    2.90    0.27
   3  -9   1    2.62    0.43
  -3  -9  -1    3.12    0.49
  -3  -9  -1    3.66    0.45
  -3   9  -1    3.71    0.49
  -3   9  -2   56.32    1.48
   3  -9   2   56.76    1.27
  -3   9  -2   54.76    1.29
   3   9   2   55.41    1.28
  -3   9  -2   56.73    1.68
   3  -9   2   56.23    1.58
  -3  -9  -2   51.59    1.60
  -3  -9  -2   53.36    1.54
  -3  -9  -3  188.65    3.11
   3  -9   3  197.03    3.22
   3   9   3  194.31    3.13
  -3   9  -3  192.67    3.24
   3  -9   3  197.86    3.55
  -3   9  -3  192.93    3.59
  -3  -9  -3  192.12    3.54
  -3  -9  -3  196.66    3.50
  -3  -9  -4   13.74    0.65
   3   9   4   15.27    0.68
  -3   9  -4   15.29    0.74
   3  -9   4   15.15    0.75
  -3   9  -4   14.80    0.84
   3  -9   4   16.18    0.87
  -3  -9  -4   15.33    0.82
  -3  -9  -4   14.43    0.85
  -3  -9  -5   20.07    0.66
  -3  -9  -5   20.93    0.84
  -3   9  -5   22.17    0.97
   3  -9   5   19.33    0.92
   3   9   5   20.90    0.84
  -3   9  -5   21.81    1.03
   3  -9   5   21.76    1.02
  -3  -9  -5   22.01    0.99
  -3  -9  -6    2.81    0.30
   3   9   6    3.05    0.40
  -3  -9  -6    2.98    0.37
  -3   9  -6    2.24    0.40
   3  -9   6    3.17    0.49
  -3   9  -6    2.45    0.43
  -3  -9  -6    3.64    0.48
   3   9   6    2.99    0.52
  -3  -9  -7   81.34    1.80
   3   9   7   85.84    2.06
  -3   9  -7   82.39    2.26
  -3  -9  -7   80.92    2.02
   3  -9   7   86.07    2.26
   3   9   7   87.37    2.31
   3   9   8   34.90    1.31
  -3  -9  -8   31.51    1.25
  -3  -9  -8   29.73    1.07
   3  -9   8   32.47    1.37
   3   9   8   29.70    1.39
   3   9   9   16.90    0.98
  -3  -9  -9   15.23    0.92
   3  -9   9   16.13    1.01
   3   9   9   15.88    1.06
   3   9  10   -0.08    0.35
   3  -9  10   -0.31    0.49
   3   9  10    0.42    0.51
   3  -9  11   17.58    1.17
   3   9  11   15.22    1.12
   3  -9  12    2.46    0.65
   3   9  12    2.95    0.74
   3  -9  13   18.56    1.32
   3   9  13   18.94    1.36
   3  -9  14    1.48    0.65
   3   9  14    2.57    0.77
  -3 -10  13    0.17    0.53
  -3  10  13    1.25    0.64
  -3 -10  12    6.42    0.83
  -3  10  12    8.08    0.98
  -3 -10  11    1.64    0.60
  -3  10  11    0.19    0.52
   3 -10 -10    9.76    0.72
  -3 -10  10   10.49    0.94
  -3  10  10   10.75    1.00
   3 -10  -9    8.65    0.64
  -3 -10   9    7.37    0.80
  -3  10   9   10.30    0.94
   3 -10  -8    0.17    0.26
  -3 -10   8    0.46    0.39
  -3  10   8    0.53    0.48
   3 -10  -7   41.11    1.14
  -3 -10   7   40.57    1.54
  -3  10   7   42.50    1.64
   3 -10  -6   34.68    0.93
  -3 -10   6   32.64    1.36
  -3  10   6   34.22    1.41
   3 -10  -5   39.54    0.90
  -3 -10   5   40.49    1.47
   3  10  -5   39.71    1.46
  -3  10   5   39.92    1.49
   3 -10  -5   40.87    1.43
   3 -10  -5   41.51    1.53
   3 -10  -4   80.18    1.31
   3 -10  -4   83.08    1.32
  -3 -10   4   82.92    2.14
   3  10  -4   82.89    2.15
   3 -10  -4   84.38    2.10
   3 -10  -4   80.47    2.12
   3 -10  -3   27.81    0.79
  -3 -10   3   26.22    1.14
   3  10  -3   27.49    1.16
   3 -10  -3   27.74    1.16
   3 -10  -3   28.20    1.13
   3 -10  -2  129.38    2.17
   3 -10  -2  124.22    2.81
  -3 -10   2  121.70    2.69
   3  10  -2  127.74    2.84
   3 -10  -2  129.73    2.74
   3 -10  -1   27.34    0.53
   3 -10  -1   28.95    1.21
  -3 -10   1   24.72    1.07
   3  10  -1   26.83    1.16
   3 -10  -1   25.07    1.06
  -3  10   0    2.04    0.20
   3  10   0    2.13    0.29
   3 -10   0    2.95    0.22
  -3 -10   0    2.20    0.46
   3 -10   0    1.89    0.45
  -3  10   0    2.44    0.44
   3  10   0    2.69    0.44
   3 -10   0    2.31    0.41
  -3  10  -1   15.95    0.71
   3  10   1   15.19    0.61
   3  10   1   15.48    0.43
  -3  10  -1   15.00    0.56
   3 -10   1   16.73    0.56
  -3 -10  -1   15.90    0.89
   3 -10   1   13.87    0.81
  -3  10  -1   15.69    0.89
  -3 -10  -1   16.50    0.87
  -3  10  -2   54.37    1.46
   3  10   2   51.78    1.23
   3 -10   2   54.40    1.24
  -3  10  -2   51.91    1.24
  -3  10  -2   51.52    1.67
   3 -10   2   50.46    1.58
  -3 -10  -2   51.49    1.65
  -3 -10  -2   48.23    1.54
  -3  10  -3    6.65    0.55
   3  10   3    6.61    0.44
  -3  10  -3    6.31    0.46
   3 -10   3    6.68    0.47
  -3  10  -3    6.55    0.62
   3 -10   3    7.14    0.63
  -3 -10  -3    6.54    0.64
  -3 -10  -3    6.35    0.58
  -3 -10  -4   81.96    1.75
   3  10   4   84.32    1.77
  -3  10  -4   81.82    1.91
   3 -10   4   84.50    1.91
  -3  10  -4   83.79    2.18
  -3 -10  -4   81.38    2.13
   3 -10   4   86.99    2.17
  -3 -10  -4   84.55    2.11
   3  10   5    0.71    0.24
  -3  10  -5    0.97    0.32
  -3 -10  -5    0.46    0.23
  -3  10  -5    0.66    0.32
   3 -10   5    1.10    0.43
  -3 -10  -5    0.27    0.29
  -3 -10  -5    1.58    0.45
  -3 -10  -6    5.09    0.36
  -3  10  -6    5.50    0.56
  -3 -10  -6    5.36    0.49
   3  10   6    5.51    0.48
   3 -10   6    5.29    0.61
   3  10   6    4.85    0.62
  -3 -10  -7    1.32    0.26
  -3 -10  -7    1.44    0.35
   3  10   7    1.01    0.34
  -3  10  -7    1.31    0.42
   3 -10   7    2.13    0.51
   3  10   7   -0.06    0.42
  -3 -10  -8   64.92    1.62
  -3 -10  -8   65.59    1.86
   3  10   8   68.42    1.88
   3 -10   8   66.30    2.08
   3  10   8   66.28    2.14
   3  10   9   22.45    1.10
  -3 -10  -9   20.71    1.07
  -3 -10  -9   19.83    0.92
   3 -10   9   20.51    1.19
   3  10   9   21.69    1.27
   3 -10  10   46.32    1.82
   3  10  10   47.83    1.91
   3 -10  11   22.57    1.35
   3  10  11   23.37    1.41
   3 -10  12    0.70    0.59
   3  10  12   -0.61    0.60
   3 -10  13    2.02    0.64
   3  10  13    2.61    0.73
   3 -10  14    1.55    0.63
   3  10  14    2.42    0.79
  -3 -11  13    1.04    0.58
  -3  11  13    1.28    0.66
  -3 -11  12   -0.15    0.59
  -3  11  12    0.51    0.60
  -3 -11  11    7.55    0.91
  -3  11  11    9.42    1.02
   3 -11 -10   10.84    0.72
  -3 -11  10   10.63    0.98
  -3  11  10   12.11    1.06
  -3 -11   9    5.11    0.70
   3 -11  -9    4.69    0.47
  -3 -11   9    3.89    0.62
  -3  11   9    5.19    0.74
   3 -11  -8   13.35    0.66
  -3 -11   8   13.39    0.97
  -3  11   8   11.93    0.97
   3 -11  -7   74.27    1.58
  -3 -11   7   71.28    2.18
  -3  11   7   75.51    2.32
   3 -11  -6   14.61    0.55
  -3 -11   6   14.92    0.98
  -3  11   6   14.21    0.98
   3 -11  -5  299.99    4.03
  -3 -11   5  291.34    5.20
   3 -11  -5  300.33    5.30
   3 -11  -4   12.44    0.53
   3  11  -4   11.87    0.84
   3 -11  -4   12.28    0.85
  -3 -11   4   12.99    0.88
   3 -11  -4   13.39    0.83
   3 -11  -3   47.88    1.09
  -3 -11   3   47.45    1.61
   3  11  -3   50.87    1.69
   3 -11  -3   46.14    1.63
   3 -11  -3   48.59    1.58
   3  11  -2    7.60    0.68
  -3 -11   2    6.93    0.62
   3 -11  -2    6.68    0.69
   3 -11  -2    6.95    0.63
   3 -11  -1  100.42    2.47
  -3 -11   1   91.28    2.35
   3  11  -1  104.64    2.51
   3 -11  -1   94.82    2.35
   3  11   0    8.07    0.47
   3 -11   0    8.31    0.72
  -3 -11   0    7.78    0.67
   3  11   0    7.91    0.66
  -3  11   0    8.68    0.68
   3 -11   0    8.56    0.68
  -3  11  -1   53.76    1.40
   3  11   1   53.73    0.89
  -3  11  -1   52.75    1.13
   3  11   1   53.53    1.25
   3 -11   1   51.13    1.65
  -3 -11  -1   50.21    1.65
  -3  11  -1   52.37    1.69
  -3 -11  -1   54.75    1.71
  -3  11  -2   79.71    1.86
  -3  11  -2   75.52    1.59
   3  11   2   80.05    1.60
  -3  11  -2   80.33    2.21
   3 -11   2   73.14    2.04
  -3 -11  -2   74.64    2.13
  -3 -11  -2   71.98    2.02
  -3  11  -3   47.42    1.46
   3  11   3   47.34    1.17
  -3  11  -3   47.21    1.28
   3 -11   3   44.95    1.56
  -3 -11  -3   44.64    1.61
  -3  11  -3   46.96    1.67
  -3 -11  -3   45.05    1.54
  -3  11  -4    0.38    0.25
   3  11   4    0.40    0.22
   3 -11   4    0.56    0.40
  -3  11  -4    0.62    0.34
  -3 -11  -4    0.57    0.40
  -3 -11  -4    0.46    0.31
  -3 -11  -5    0.52    0.24
   3  11   5    0.51    0.23
  -3  11  -5    0.55    0.29
   3 -11   5    1.25    0.46
  -3 -11  -5    0.89    0.43
  -3 -11  -6    6.81    0.53
   3  11   6    7.24    0.53
  -3  11  -6    7.22    0.64
   3 -11   6    7.39    0.73
  -3 -11  -6    7.33    0.73
  -3 -11  -7   27.32    0.86
  -3 -11  -7   29.02    1.11
   3  11   7   31.44    1.14
   3 -11   7   27.55    1.32
   3  11   7   29.77    1.39
  -3 -11  -8   58.31    1.47
   3  11   8   63.92    1.79
  -3 -11  -8   61.55    1.77
   3 -11   8   63.00    2.07
   3  11   8   61.52    2.15
  -3 -11  -9   45.40    1.60
   3  11   9   49.90    1.65
   3 -11   9   49.79    1.85
  -3 -11  -9   46.32    1.38
   3  11   9   52.45    1.99
   3 -11  10    1.22    0.58
   3  11  10    1.67    0.62
   3 -11  11    6.18    0.82
   3  11  11    6.84    0.89
   3 -11  12    4.77    0.79
   3  11  12    5.58    0.88
   3 -11  13    0.29    0.56
   3  11  13    0.08    0.57
  -3 -12  13    2.73    0.79
  -3  12  13    2.41    0.76
  -3 -12  12   -1.24    0.63
  -3  12  12   -1.49    0.69
  -3 -12  11    4.06    0.77
  -3  12  11    2.91    0.70
  -3 -12  10   23.32    1.41
  -3  12  10   21.08    1.40
   3 -12  -9   18.26    0.82
  -3 -12   9   18.16    1.19
  -3  12   9   21.43    1.33
   3 -12  -8   82.27    1.77
  -3 -12   8   84.48    2.54
  -3  12   8   89.63    2.66
   3 -12  -7    1.48    0.26
  -3 -12   7    1.25    0.49
   3 -12  -7    2.99    0.66
  -3  12   7    0.60    0.50
   3 -12  -6    8.60    0.38
  -3 -12   6    8.59    0.81
  -3  12   6    8.20    0.82
   3 -12  -6    8.86    0.84
   3 -12  -5    1.49    0.25
  -3 -12   5    1.84    0.53
   3 -12  -5    1.29    0.50
   3 -12  -4   30.87    0.83
   3 -12  -4   30.93    1.37
  -3 -12   4   31.07    1.37
   3 -12  -3  101.40    2.65
  -3 -12   3   97.66    2.53
   3 -12  -2   12.55    0.90
   3  12  -2   13.90    0.94
  -3 -12   2   12.06    0.84
   3 -12  -2   12.34    0.83
   3 -12  -1    4.26    0.59
  -3 -12   1    3.28    0.54
   3 -12  -1    4.58    0.57
   3  12  -1    3.58    0.52
   3  12   0    9.29    0.49
   3 -12   0    8.25    0.73
  -3 -12   0    9.31    0.77
   3 -12   0    9.94    0.77
   3  12   0    8.43    0.71
  -3  12   0    9.71    0.76
  -3  12  -1    4.75    0.41
  -3  12  -1    4.55    0.30
   3  12   1    5.19    0.37
   3 -12   1    4.67    0.59
  -3 -12  -1    5.07    0.63
  -3  12  -1    3.78    0.53
  -3 -12  -1    5.16    0.61
  -3  12  -2   91.97    2.07
  -3  12  -2   90.28    1.79
   3  12   2   95.70    1.78
  -3 -12  -2   93.69    2.48
   3 -12   2   81.92    2.30
  -3  12  -2   92.19    2.48
  -3 -12  -2   87.98    2.33
  -3  12  -3    7.07    0.58
   3  12   3    7.11    0.44
  -3  12  -3    7.08    0.49
   3 -12   3    7.29    0.71
  -3 -12  -3    7.42    0.76
   3  12   4    0.14    0.20
  -3  12  -4    0.27    0.24
   3 -12   4    0.24    0.38
  -3 -12  -4    0.21    0.45
  -3 -12  -5    5.14    0.43
   3  12   5    5.57    0.44
  -3  12  -5    5.83    0.54
   3 -12   5    5.07    0.65
  -3 -12  -5    6.02    0.72
  -3 -12  -6    8.04    0.62
  -3  12  -6    9.15    0.73
   3  12   6    8.38    0.56
   3 -12   6    8.77    0.82
  -3 -12  -6    8.10    0.82
  -3 -12  -7   31.04    1.16
   3  12   7   35.67    1.21
   3 -12   7   32.88    1.50
  -3 -12  -7   35.32    1.59
  -3 -12  -8   20.61    0.77
  -3 -12  -8   20.80    1.01
   3  12   8   22.76    1.02
   3 -12   8   22.55    1.29
  -3 -12  -8   22.84    1.36
   3 -12   9    4.51    0.70
  -3 -12  -9    4.50    0.59
   3 -12   9    6.26    0.79
   3  12   9    4.49    0.78
   3 -12  10    9.14    0.94
   3  12  10   10.99    1.05
   3 -12  11    0.59    0.82
   3  12  11    1.13    0.62
   3 -12  12   17.38    1.30
   3  12  12   16.49    1.34
   3 -12  13    3.06    0.71
   3  12  13    2.96    0.79
  -3 -13  12    1.31    0.72
  -3  13  12    0.25    0.58
  -3 -13  11    7.73    0.97
  -3  13  11    5.43    0.90
  -3 -13  10   36.29    1.78
  -3  13  10   38.77    1.90
  -3 -13   9   12.94    1.07
  -3  13   9   12.75    1.11
  -3 -13   8    2.54    0.59
   3 -13  -8    3.36    0.72
  -3  13   8    2.29    0.65
   3 -13  -7   63.20    1.25
  -3 -13   7   63.83    2.19
  -3  13   7   62.84    2.23
   3 -13  -7   64.85    2.26
   3 -13  -6    0.61    0.22
   3 -13  -6    0.54    0.10
   3 -13  -6    0.46    0.10
  -3 -13   6    1.08    0.57
   3 -13  -6    1.47    0.55
   3 -13  -5    1.52    0.22
  -3 -13   5    1.57    0.55
   3 -13  -5    1.71    0.57
  -3 -13   4    3.46    0.62
   3 -13  -4    2.92    0.59
  -3 -13   3   18.14    1.08
   3 -13  -3   20.18    1.20
   3 -13  -2   56.31    1.96
  -3 -13   2   49.45    1.76
   3  13  -1    5.00    0.41
   3 -13  -1    3.98    0.61
  -3 -13   1    4.09    0.60
  -3 -13   0    0.79    0.41
   3 -13   0    0.88    0.42
   3  13   0    0.38    0.21
  -3  13  -1    0.53    0.24
   3 -13   1    0.39    0.39
  -3 -13  -1    0.87    0.45
  -3  13  -1    0.42    0.16
   3  13   1    0.52    0.21
  -3  13  -2    0.33    0.23
  -3 -13  -2    0.34    0.42
   3 -13   2    0.33    0.40
  -3  13  -2    0.41    0.19
   3  13   2    0.37    0.18
  -3  13  -3   56.04    1.64
  -3 -13  -3   53.06    1.94
   3 -13   3   49.60    1.81
  -3  13  -3   54.98    1.41
   3  13   3   56.49    1.26
  -3  13  -4   22.47    1.07
  -3  13  -4   22.61    0.93
   3  13   4   23.81    0.79
  -3 -13  -4   20.96    1.24
   3 -13   4   21.37    1.20
   3  13   5    8.91    0.53
  -3  13  -5    8.74    0.65
   3 -13   5    9.42    0.85
  -3 -13  -5    8.76    0.85
  -3 -13  -6    6.11    0.49
  -3  13  -6    5.34    0.59
   3  13   6    5.48    0.47
   3 -13   6    6.08    0.77
  -3 -13  -6    4.31    0.65
  -3 -13  -7   13.75    0.76
   3  13   7   15.45    0.77
   3 -13   7   13.13    1.02
  -3 -13  -7   14.63    1.10
  -3 -13  -8   16.53    0.89
   3  13   8   17.97    0.88
   3 -13   8   20.32    1.27
  -3 -13  -8   19.70    1.28
   3 -13   9    0.92    0.54
  -3 -13  -9    0.50    0.54
   3 -13  10    2.51    0.69
   3  13  10    1.65    0.60
   3 -13  11    0.72    0.57
   3  13  11    0.50    0.56
   3 -13  12   -0.08    0.57
   3  13  12    0.88    0.62
  -3 -14  11   18.15    1.39
  -3  14  11   20.12    1.48
  -3 -14  10   77.58    2.69
  -3 -14  10   76.64    2.67
  -3  14  10   79.73    2.81
  -3 -14   9   14.81    1.17
   3 -14  -9   13.42    1.19
  -3  14   9   13.34    1.21
  -3 -14   8    1.14    0.55
   3 -14  -8    1.40    0.57
   3 -14  -7    0.39    0.22
  -3 -14   7    0.48    0.51
   3 -14  -7    1.81    0.64
   3 -14  -6    0.18    0.18
   3  14  -6    0.14    0.34
  -3 -14   6    0.59    0.54
   3 -14  -6    0.84    0.55
   3 -14  -5   23.06    1.34
  -3 -14   5   23.79    1.33
   3 -14  -4   47.99    1.93
  -3 -14   4   45.22    1.80
  -3 -14   3   20.93    1.20
   3 -14  -3   21.55    1.29
  -3 -14   2   41.94    1.68
   3 -14  -2   48.03    1.84
   3  14  -1    3.48    0.36
  -3 -14   1    2.94    0.58
   3 -14  -1    4.10    0.65
  -3 -14   0    0.22    0.42
   3 -14   0    0.91    0.49
   3  14   0    0.27    0.19
  -3  14  -1    0.30    0.24
  -3  14  -1    0.24    0.13
  -3 -14  -1    0.12    0.42
   3 -14   1    0.77    0.44
   3  14   1    0.14    0.18
  -3  14  -2    4.23    0.44
  -3 -14  -2    4.04    0.65
   3 -14   2    4.30    0.64
   3  14   2    4.70    0.36
  -3  14  -2    4.01    0.34
  -3  14  -3    8.97    0.67
   3 -14   3    7.49    0.79
  -3 -14  -3    7.64    0.81
   3  14   3    9.74    0.48
  -3  14  -3    9.45    0.55
  -3  14  -4   13.14    0.84
  -3  14  -4   13.08    0.73
   3  14   4   12.51    0.56
  -3 -14  -4   10.30    0.95
   3 -14   4   10.57    0.89
   3  14   5   31.63    0.95
  -3  14  -5   30.44    1.17
   3 -14   5   31.48    1.52
  -3 -14  -5   30.50    1.54
  -3  14  -6   31.73    1.29
   3  14   6   32.84    1.03
  -3 -14  -6   34.20    1.64
   3 -14   6   33.46    1.58
   3  14   7   11.39    0.64
   3 -14   7   11.25    1.00
  -3 -14  -7   10.25    1.00
   3 -14   8    4.34    0.75
  -3 -14  -8    3.17    0.68
   3 -14   9   12.84    1.11
  -3 -14  -9   10.87    1.06
   3 -14  10    8.41    0.93
  -3 -14 -10    9.95    1.07
   3 -14  11    0.81    0.57
  -3 -14 -11    1.06    0.64
   3 -14  12    3.05    0.71
   3  14  12    1.65    0.72
  -3 -15  11   12.23    1.20
   3 -15 -11   12.45    1.29
  -3  15  11   11.92    1.24
  -3 -15  10    3.24    0.79
  -3  15  10    2.06    0.72
   3 -15 -10    3.52    0.82
  -3 -15   9    7.69    0.95
   3 -15  -9    8.81    1.03
  -3 -15   8   17.56    1.27
   3 -15  -8   16.30    1.27
  -3 -15   7    6.27    0.86
   3 -15  -7    6.76    0.86
   3 -15  -6   17.34    1.26
  -3 -15   6   16.90    1.19
   3  15  -6   15.77    0.93
   3 -15  -5   57.48    2.21
  -3 -15   5   55.12    2.09
   3  15  -5   56.56    1.69
   3 -15  -4    8.06    0.91
  -3 -15   4    8.30    0.84
  -3 -15   3   15.96    1.09
   3 -15  -3   17.06    1.20
  -3 -15   2    9.20    0.85
   3 -15  -2   10.03    0.91
   3  15  -1   20.01    0.77
   3 -15  -1   19.54    1.23
  -3 -15   1   18.99    1.18
   3  15   0   10.82    0.52
   3 -15   0   11.30    0.95
  -3 -15   0   11.15    0.91
  -3 -15  -1    5.29    0.70
   3 -15   1    4.41    0.67
   3  15   1    5.20    0.35
  -3  15  -2   32.95    0.89
  -3  15  -2   33.34    1.18
   3 -15   2   31.70    1.51
  -3 -15  -2   32.76    1.53
   3  15   2   32.75    0.84
  -3  15  -3   55.98    1.66
   3 -15   3   47.51    1.91
  -3 -15  -3   55.99    2.09
  -3  15  -3   52.43    1.35
   3  15   3   54.30    1.14
  -3  15  -4    8.19    0.68
  -3  15  -4    7.41    0.55
   3  15   4    8.76    0.43
  -3 -15  -4    7.81    0.86
   3 -15   4    7.82    0.83
  -3  15  -5   44.68    1.45
   3  15   5   46.52    1.12
  -3 -15  -5   42.94    1.93
   3 -15   5   45.12    1.91
  -3  15  -6    2.77    0.47
   3  15   6    2.60    0.30
   3 -15   6    2.88    0.68
  -3 -15  -6    2.47    0.66
   3 -15   7   26.02    1.49
  -3 -15  -7   25.17    1.50
   3 -15   8   31.97    1.68
  -3 -15  -8   32.53    1.74
   3 -15   9   22.16    1.47
  -3 -15  -9   20.84    1.48
   3 -15  10    3.23    0.72
   3 -15  10    3.50    0.78
  -3 -15 -10    2.74    0.78
   3 -15  11    0.62    0.54
  -3 -15 -11    0.26    0.58
  -3 -16  10   17.68    1.39
   3 -16 -10   19.18    1.51
  -3 -16   9    3.56    0.71
   3 -16  -9    5.02    0.89
  -3 -16   8   14.70    1.21
   3 -16  -8   13.29    1.24
  -3 -16   7    4.30    0.78
   3 -16  -7    4.98    0.85
  -3 -16   6    8.95    0.96
   3 -16  -6   10.30    1.07
  -3 -16   5   20.03    1.32
   3 -16  -5   19.59    1.37
   3  16  -5   19.06    0.96
   3 -16  -4   40.54    1.92
  -3 -16   4   36.27    1.73
   3  16  -4   39.45    1.31
  -3 -16   3   32.04    1.60
   3 -16  -3   35.08    1.72
   3  16  -2   19.63    0.82
   3 -16  -2   18.15    1.22
  -3 -16   2   19.05    1.23
   3  16  -1   60.76    1.41
  -3 -16   1   62.56    2.20
   3 -16  -1   61.70    2.20
  -3 -16   0    2.16    0.59
   3 -16   0    1.96    0.58
   3  16   0    1.55    0.24
  -3 -16  -1    4.95    0.72
   3 -16   1    4.82    0.72
   3  16   1    4.65    0.31
  -3  16  -2   27.08    1.05
  -3 -16  -2   26.18    1.43
   3 -16   2   25.32    1.41
   3  16   2   27.26    0.69
  -3  16  -3    8.57    0.66
   3 -16   3    8.19    0.90
  -3 -16  -3    7.81    0.87
   3  16   3    8.17    0.35
  -3  16  -4    6.35    0.63
   3 -16   4    6.35    0.79
  -3 -16  -4    7.03    0.90
   3 -16   5   -0.17    0.56
  -3 -16  -5    0.11    0.61
   3 -16   6    1.00    0.56
  -3 -16  -6    0.47    0.59
   3 -16   7   15.93    1.24
  -3 -16  -7   17.13    1.34
   3 -16   8   11.40    1.09
  -3 -16  -8   11.93    1.17
   3 -16   9    7.39    0.95
  -3 -16  -9    5.75    0.89
   3 -16  10   10.14    1.08
   3 -16  10   10.55    1.10
  -3 -16 -10   10.16    1.15
  -3 -17   9    1.26    0.60
   3 -17  -9    1.24    0.62
  -3 -17   8    0.60    0.55
   3 -17  -8    1.18    0.68
  -3 -17   7    0.88    0.59
   3 -17  -7    0.41    0.62
  -3 -17   6    7.19    0.92
   3 -17  -6    7.25    1.00
  -3 -17   5   77.24    2.67
   3 -17  -5   82.94    2.91
  -3 -17   4    8.27    0.93
   3 -17  -4    9.00    1.04
   3 -17  -3    9.81    1.00
  -3 -17   3    9.37    0.95
   3  17  -2   32.50    1.05
  -3 -17   2   32.79    1.64
   3 -17  -2   34.60    1.70
   3  17  -1    6.58    0.43
   3 -17  -1    5.71    0.78
  -3 -17   1    6.26    0.78
   3  17   0    8.09    0.41
   3 -17   0   10.47    0.98
  -3 -17   0    8.94    0.92
  -3 -17  -1   26.70    1.47
   3 -17   1   27.10    1.50
   3 -17   2   21.06    1.35
  -3 -17  -2   20.73    1.32
   3 -17   3   31.19    1.63
  -3 -17  -3   30.11    1.61
   3 -17   4   26.67    1.54
  -3 -17  -4   28.04    1.62
   3 -17   5    0.66    0.51
  -3 -17  -5    0.46    0.60
   3 -17   6    0.37    0.52
  -3 -17  -6    0.10    0.61
   3 -17   7   12.17    1.14
  -3 -17  -7   10.44    1.14
   3 -17   8   13.21    1.17
  -3 -17  -8   13.36    1.29
  -3 -17  -9   39.95    2.12
   3 -17   9   42.89    2.09
  -3 -18   8    9.84    1.14
   3 -18  -8   12.16    1.26
  -3 -18   7    0.17    0.53
   3 -18  -7    0.15    0.65
  -3 -18   6    7.36    0.95
   3 -18  -6    9.50    1.15
  -3 -18   5    1.98    0.68
   3 -18  -5    2.71    0.75
   3 -18  -4   31.54    1.77
  -3 -18   4   31.19    1.70
  -3 -18   3   41.17    1.91
   3 -18  -3   40.72    1.95
  -3 -18   2   10.14    1.00
   3 -18  -2   10.52    1.05
   3 -18  -1    2.81    0.71
  -3 -18   1    1.54    0.53
  -3 -18   0    0.65    0.57
   3 -18   0    0.54    0.59
  -3 -18  -1    8.74    0.97
   3 -18   1    6.88    0.87
   3 -18   2   65.52    2.43
  -3 -18  -2   66.55    2.44
   3 -18   3   26.27    1.55
  -3 -18  -3   26.39    1.57
   3 -18   4    6.22    0.90
  -3 -18  -4    5.73    0.86
   3 -18   5    3.52    0.73
  -3 -18  -5    3.88    0.84
   3 -18   6    0.25    0.59
  -3 -18  -6    1.07    0.63
  -3 -18  -7   16.84    1.46
   3 -18   7   15.83    1.29
   3 -18   8    3.84    0.81
  -3 -18  -8    3.63    0.83
   3 -19  -7   -0.56    0.73
  -3 -19   7   -0.51    0.64
  -3 -19   6    0.26    0.57
   3 -19  -6    0.64    0.67
   3 -19  -5   13.11    1.29
  -3 -19   5   16.08    1.34
  -3 -19   4   19.43    1.40
   3 -19  -4   19.10    1.43
  -3 -19   3   18.88    1.37
   3 -19  -3   18.71    1.40
  -3 -19   2   34.40    1.78
   3 -19  -2   33.54    1.80
   3 -19  -1   -0.38    0.58
  -3 -19   1    0.63    0.55
  -3 -19   0   13.49    1.18
   3 -19   0   13.21    1.16
  -3 -19  -1    1.84    0.68
   3 -19   1    1.46    0.62
   3 -19   2    0.62    0.57
  -3 -19  -2    0.65    0.55
   3 -19   3   19.58    1.38
  -3 -19  -3   18.75    1.39
   3 -19   4   29.11    1.71
  -3 -19  -4   31.37    1.78
   3 -19   5   -0.19    0.55
  -3 -19  -5   -0.09    0.64
   3 -19   6    7.83    0.98
  -3 -19  -6    7.65    1.10
  -3 -19  -7    8.26    1.17
   3 -19   7    7.31    1.00
  -3 -20   5    4.52    0.90
   3 -20  -5    3.26    0.78
   3 -20  -4    8.05    1.02
  -3 -20   4   10.84    1.14
  -3 -20   3   14.86    1.27
   3 -20  -3   14.74    1.29
  -3 -20   2   10.12    1.08
   3 -20  -2   10.39    1.08
   3 -20  -1    0.49    0.59
  -3 -20   1    1.80    0.66
   3 -20   0    4.13    0.80
  -3 -20   0    5.92    0.88
   3 -20   1    7.81    0.97
  -3 -20  -1    7.36    0.93
  -3 -20  -2    0.71    0.58
   3 -20   2    0.79    0.64
   3 -20   3   16.86    1.33
  -3 -20  -3   15.22    1.28
  -3 -20  -4   26.54    1.66
   3 -20   4   24.23    1.61
   3 -20   5    2.77    0.77
  -3 -20  -5    3.91    0.83
  -3 -21   2    8.09    1.05
   3 -21  -2    7.86    1.03
   3 -21  -1    2.32    0.75
  -3 -21   1    1.74    0.68
  -3 -21   0    0.61    0.61
   3 -21   0    1.79    0.59
  -3 -21  -1    1.94    0.69
   3 -21   1    2.35    0.70
  -3 -21  -2   12.04    1.21
   3 -21   2   13.53    1.26
  -4   0  15    0.64    0.66
  -4   0  14   23.79    1.46
  -4   0  13   -0.56    0.51
  -4   0  12    3.81    0.70
  -4   0  11    0.16    0.47
  -4   0  10   57.75    1.90
  -4   0   9   -0.15    0.44
   4   0  -8  226.46    4.04
  -4   0   8  220.04    4.00
   4   0  -7   -0.12    0.30
  -4   0   7   -0.41    0.37
   4   0  -6   89.28    1.96
  -4   0   6   89.75    1.97
  -4   0   5   -0.03    0.30
   4   0  -5   -0.27    0.27
   4   0  -4  578.02    7.67
  -4   0   4  564.41    7.67
  -4   0   3    0.32    0.26
   4   0  -3   -0.02    0.20
   4   0  -2  359.81    4.77
  -4   0   2  358.14    4.77
  -4   0   1    0.53    0.15
   4   0   0  851.90   11.10
  -4   0   0  853.16   11.10
  -4   0  -1    0.04    0.27
   4   0   1   -0.29    0.32
   4   0   1    0.09    0.30
   4   0   2  193.43    3.12
  -4   0  -2  190.85    3.09
   4   0   2  188.68    3.10
  -4   0  -2  195.51    3.10
  -4   0  -2  181.49    2.47
   4   0   2  185.37    2.46
   4   0   3    0.76    0.36
  -4   0  -3    1.81    0.36
  -4   0  -3    1.29    0.36
  -4   0  -3   -0.40    0.19
   4   0   3   -0.31    0.20
   4   0   4  729.45    9.82
  -4   0  -4  741.21    9.87
  -4   0  -4  714.15    9.26
  -4   0  -4  714.39    9.81
   4   0   4  712.52    9.24
   4   0   5    0.11    0.36
  -4   0  -5    0.40    0.30
  -4   0  -5   -0.32    0.24
   4   0   5    0.19    0.25
  -4   0  -6  139.31    2.86
   4   0   6  136.47    2.81
  -4   0  -6  134.96    2.46
   4   0   6  138.05    2.48
   4   0   7    0.06    0.36
  -4   0  -7   -0.36    0.37
  -4   0  -7    0.21    0.25
   4   0   7   -0.11    0.28
   4   0   8  128.54    2.94
  -4   0  -8  125.95    2.62
   4   0   8  128.59    2.62
   4   0   9    0.10    0.38
  -4   0  -9   -0.39    0.33
   4   0   9   -0.28    0.36
   4   0  10    4.48    0.65
   4   0  10    5.05    0.61
   4   0  11    0.13    0.46
   4   0  11    0.44    0.43
   4   0  12    6.15    0.84
   4   0  12    6.65    0.76
   4   0  13   -1.43    0.57
   4   0  14    7.89    0.93
   4   0  15    0.08    0.57
   4   0  16    4.73    0.87
  -4  -1  15   22.14    1.49
  -4   1  15   22.09    1.53
  -4  -1  14    0.39    0.53
  -4   1  14   -0.58    0.57
  -4  -1  13    0.38    0.51
  -4   1  13   -0.15    0.50
  -4  -1  12    1.14    0.60
  -4   1  12    1.54    0.57
  -4  -1  11    2.79    0.58
  -4   1  11    2.95    0.62
  -4  -1  10   -0.28    0.44
  -4   1  10    0.00    0.46
  -4   1   9  192.70    3.78
  -4  -1   9  188.27    3.72
   4  -1  -8   43.67    1.45
   4   1  -8   41.13    1.41
  -4  -1   8   42.14    1.43
  -4   1   8   42.57    1.46
   4  -1  -7   31.26    1.15
   4   1  -7   31.87    1.15
  -4  -1   7   30.40    1.15
  -4   1   7   30.77    1.14
   4  -1  -6   47.66    1.34
   4   1  -6   45.41    1.32
  -4  -1   6   46.98    1.36
  -4   1   6   46.46    1.35
   4  -1  -5  241.23    3.81
  -4  -1   5  239.94    3.81
   4   1  -5  237.86    3.81
  -4   1   5  242.13    3.81
   4  -1  -4    2.73    0.31
   4   1  -4    2.62    0.30
  -4  -1   4    2.64    0.37
  -4   1   4    3.34    0.36
  -4  -1   3  168.10    2.59
   4  -1  -3  164.23    2.55
   4   1  -3  161.53    2.52
  -4   1   3  166.45    2.57
  -4  -1   2   22.47    0.61
   4  -1  -2   22.21    0.59
   4   1  -2   21.10    0.56
  -4   1   2   21.61    0.60
   4  -1  -1  333.39    4.74
  -4  -1   1  335.35    4.27
   4   1  -1  319.44    4.18
   4  -1  -1  327.51    4.23
  -4   1   1  329.21    4.24
  -4   1   0    1.53    0.29
   4  -1   0    1.06    0.32
   4   1   0    1.11    0.33
   4  -1   0    1.45    0.31
  -4   1  -1  189.75    3.07
   4  -1   1  189.60    3.09
  -4   1  -1  188.14    3.05
  -4  -1  -1  189.42    3.08
   4   1   1  186.37    3.04
   4  -1   1  188.68    3.04
   4   1   1  189.68    3.08
  -4   1  -1  190.96    2.48
  -4  -1  -2   87.46    1.81
  -4   1  -2   92.53    1.85
   4   1   2   86.45    1.79
  -4  -1  -2   91.74    1.79
  -4   1  -2   90.66    1.81
   4   1   2   87.45    1.83
   4  -1   2   89.03    1.82
  -4   1  -2   87.22    1.37
  -4  -1  -2   85.01    1.31
   4  -1   2   86.60    1.29
   4   1   2   88.74    1.31
  -4   1  -3  686.53    9.33
  -4  -1  -3  682.88    9.23
   4  -1   3  687.33    9.27
   4   1   3  689.46    9.28
  -4   1  -3  684.75    9.29
  -4  -1  -3  689.72    9.30
  -4   1  -3  689.18    8.77
   4  -1   3  680.69    8.67
  -4  -1  -3  681.13    8.70
   4   1   3  690.21    8.70
  -4  -1  -4   40.39    1.21
  -4  -1  -4   38.79    0.92
  -4   1  -4   39.87    1.25
   4   1   4   42.16    1.27
   4  -1   4   41.56    1.26
  -4  -1  -4   40.54    1.22
  -4   1  -4   42.05    1.28
  -4   1  -4   39.77    0.99
   4  -1   4   35.82    0.90
   4   1   4   37.82    0.92
  -4  -1  -5  169.71    2.78
   4   1   5  170.43    3.17
   4  -1   5  172.31    3.19
  -4  -1  -5  172.31    3.19
  -4   1  -5  175.88    3.22
  -4   1  -5  173.77    2.85
   4  -1   5  170.63    2.76
   4   1   5  168.56    2.77
  -4   1  -6   61.85    1.47
  -4  -1  -6   66.45    1.52
  -4  -1  -6   67.15    1.80
   4  -1   6   65.46    1.79
   4   1   6   64.07    1.76
  -4   1  -6   67.36    1.82
  -4   1  -6   64.48    1.55
   4   1   6   64.95    1.51
   4  -1   6   62.68    1.49
  -4   1  -7    3.08    0.39
   4  -1   7    3.44    0.42
  -4  -1  -7    3.48    0.41
   4  -1   7    3.32    0.50
  -4  -1  -7    2.79    0.45
  -4   1  -7    3.68    0.50
   4   1   7    2.79    0.46
  -4   1  -7    2.94    0.41
   4   1   7    3.67    0.43
   4  -1   8    2.75    0.44
  -4  -1  -8    2.05    0.37
  -4  -1  -8    2.78    0.50
   4   1   8    2.95    0.55
   4  -1   8    4.52    0.60
  -4   1  -8    2.99    0.44
   4   1   8    3.15    0.45
  -4  -1  -9   10.44    0.72
   4   1   9   10.28    0.83
   4  -1   9    9.84    0.82
  -4   1  -9   10.77    0.77
   4   1   9    9.55    0.71
   4  -1   9   10.57    0.74
   4  -1  10   13.90    1.05
   4   1  10   13.46    1.00
   4  -1  10   14.03    0.91
   4   1  10   12.28    0.85
   4  -1  11    4.25    0.70
   4   1  11    5.24    0.74
   4  -1  11    4.74    0.63
   4   1  11    4.08    0.61
   4  -1  12    4.76    0.77
   4   1  12    3.94    0.69
   4   1  12    6.11    0.75
   4  -1  12    4.64    0.66
   4   1  13    0.59    0.51
   4  -1  13   -0.39    0.53
   4  -1  14   -0.10    0.54
   4   1  14   -0.55    0.56
   4  -1  15   21.87    1.46
   4   1  15   21.39    1.46
   4   1  16   -1.07    0.66
   4  -1  16    0.25    0.65
  -4  -2  15    3.15    0.78
  -4   2  15    0.52    0.62
  -4   2  14   39.89    1.91
  -4  -2  14   40.39    1.91
  -4  -2  13    0.21    0.50
  -4   2  13    0.62    0.58
  -4  -2  12    0.86    0.56
  -4   2  12    0.78    0.54
  -4  -2  11    9.77    0.87
  -4   2  11   10.88    0.91
  -4   2  10   34.73    1.44
  -4  -2  10   35.66    1.47
  -4  -2   9    4.06    0.57
   4   2  -9    3.10    0.45
  -4   2   9    3.29    0.50
   4  -2  -8    1.51    0.35
  -4  -2   8    1.99    0.43
   4   2  -8    1.93    0.37
  -4   2   8    2.09    0.41
   4  -2  -7    8.44    0.62
  -4  -2   7    7.50    0.62
   4   2  -7    7.89    0.59
  -4   2   7    7.17    0.59
  -4  -2   6  113.37    2.33
   4  -2  -6  114.10    2.31
   4   2  -6  111.00    2.28
  -4   2   6  113.73    2.30
   4  -2  -5    0.90    0.29
  -4  -2   5    0.91    0.33
   4   2  -5    0.55    0.25
  -4   2   5    0.64    0.30
  -4  -2   4  310.87    4.56
   4   2  -4  308.30    4.51
  -4   2   4  313.17    4.55
   4  -2  -4  312.84    4.53
  -4  -2   3   30.33    0.84
   4   2  -3   28.52    0.79
   4  -2  -3   28.99    0.80
  -4   2   3   28.50    0.82
  -4  -2   2   48.91    1.01
   4   2  -2   46.82    0.96
  -4   2   2   48.85    1.00
   4  -2  -2   49.46    0.99
   4  -2  -1   29.76    0.87
  -4  -2   1   29.52    0.62
   4   2  -1   28.00    0.61
   4  -2  -1   28.23    0.63
  -4   2   1   29.18    0.63
   4   2   0  153.67    2.64
  -4   2   0  158.03    2.57
   4  -2   0  155.61    2.55
   4  -2   0  155.26    2.61
  -4  -2   0  151.64    2.10
   4   2   0  147.52    2.11
   4  -2   0  155.45    2.14
   4  -2   0  154.02    2.07
   4   2   1   23.13    0.83
  -4   2  -1   23.85    0.83
   4   2   1   24.07    0.80
  -4  -2  -1   23.89    0.83
   4  -2   1   23.36    0.84
  -4   2  -1   24.46    0.81
   4  -2   1   23.48    0.79
  -4  -2  -1   24.01    0.53
  -4   2  -1   24.63    0.56
   4  -2   1   23.80    0.53
  -4  -2  -1   23.83    0.52
  -4   2  -2  242.80    3.84
  -4  -2  -2  243.28    3.71
  -4  -2  -2  244.85    3.80
   4   2   2  238.34    3.73
   4  -2   2  243.00    3.24
  -4   2  -2  238.00    3.78
   4   2   2  240.83    3.80
   4  -2   2  250.55    3.79
  -4   2  -2  240.16    3.32
   4  -2   2  244.78    3.32
   4   2   2  243.23    3.30
  -4  -2  -2  239.53    3.28
  -4  -2  -3    0.57    0.26
   4  -2   3    0.19    0.19
  -4   2  -3    0.96    0.34
   4   2   3    1.43    0.50
   4  -2   3    1.33    0.35
  -4   2  -3    0.59    0.28
  -4  -2  -3    0.72    0.32
  -4   2  -3    0.06    0.17
  -4  -2  -3    0.43    0.18
   4   2   3    0.57    0.20
  -4  -2  -4  721.61    9.86
   4  -2   4  737.32    9.45
   4  -2   4  736.37    9.96
  -4  -2  -4  733.38    9.95
  -4   2  -4  731.26   10.01
   4   2   4  726.81    9.97
  -4   2  -4  729.86    9.53
   4   2   4  737.96    9.46
  -4  -2  -4  723.33    9.46
   4  -2   5   65.37    1.42
   4   2   5   64.29    1.69
   4  -2   5   63.25    1.68
  -4  -2  -5   64.41    1.70
  -4   2  -5   66.49    1.75
  -4   2  -5   65.53    1.48
  -4  -2  -5   66.53    1.43
   4   2   5   64.81    1.43
   4  -2   6    4.79    0.44
  -4  -2  -6    5.10    0.44
  -4   2  -6    5.87    0.56
   4   2   6    5.68    0.56
  -4  -2  -6    6.84    0.58
   4  -2   6    5.71    0.57
  -4   2  -6    5.30    0.45
   4   2   6    5.23    0.44
  -4  -2  -7    1.42    0.31
   4  -2   7    2.03    0.37
  -4  -2  -7    1.10    0.36
   4  -2   7    2.21    0.46
  -4   2  -7    1.69    0.40
   4   2   7    2.00    0.42
  -4   2  -7    1.51    0.33
   4   2   7    1.18    0.34
  -4  -2  -8   48.76    1.48
   4   2   8   48.85    1.67
   4  -2   8   50.27    1.69
  -4  -2  -8   47.19    1.66
  -4   2  -8   48.28    1.52
   4  -2   8   48.77    1.46
   4   2   8   49.31    1.47
   4  -2   9    0.67    0.39
  -4  -2  -9    1.00    0.36
   4   2   9    1.56    0.49
   4  -2   9    1.88    0.52
  -4   2  -9    0.91    0.40
   4   2   9    0.74    0.37
   4  -2  10   93.13    2.66
   4   2  10   93.96    2.65
   4  -2  10  101.40    2.49
   4   2  10   97.00    2.45
   4   2  11    2.36    0.58
   4  -2  11    3.49    0.68
   4  -2  11    3.00    0.58
   4   2  11    2.89    0.57
   4   2  12    1.01    0.56
   4  -2  12    0.57    0.45
   4   2  12    1.63    0.53
   4   2  13   10.79    1.00
   4  -2  13   10.31    0.97
   4   2  14    0.73    0.53
   4  -2  14    0.92    0.55
   4  -2  15    0.58    0.59
   4   2  15   -0.47    0.63
   4   2  16    3.47    0.86
   4  -2  16    3.57    0.79
  -4  -3  15    4.06    0.78
  -4   3  15    3.91    0.79
  -4  -3  14   -0.52    0.60
  -4   3  14    0.73    0.65
  -4  -3  13   19.43    1.28
  -4   3  13   20.13    1.35
  -4  -3  12    1.39    0.57
  -4   3  12    1.99    0.59
  -4  -3  11    2.00    0.55
  -4   3  11    3.89    0.65
  -4   3  10   35.08    1.47
  -4  -3  10   35.50    1.49
  -4  -3   9   13.47    0.89
  -4   3   9   12.91    0.87
   4  -3  -8    3.24    0.45
  -4  -3   8    2.19    0.47
   4   3  -8    3.14    0.45
  -4   3   8    2.80    0.48
  -4  -3   7   64.46    1.77
   4  -3  -7   65.01    1.74
   4   3  -7   66.61    1.75
  -4   3   7   64.07    1.75
  -4  -3   6   33.71    1.15
   4   3  -6   34.19    1.13
   4  -3  -6   33.59    1.14
  -4   3   6   32.05    1.11
  -4  -3   5  249.37    4.03
   4   3  -5  255.31    4.01
  -4   3   5  249.62    4.01
   4  -3  -5  255.69    3.99
  -4  -3   4    1.64    0.34
   4  -3  -4    1.79    0.29
   4   3  -4    2.00    0.31
  -4   3   4    1.44    0.32
  -4  -3   3  334.02    4.66
   4   3  -3  329.86    4.68
  -4   3   3  330.50    4.71
   4  -3  -3  332.50    4.68
   4   3  -2   45.57    0.99
  -4  -3   2   46.98    1.01
   4  -3  -2   47.67    1.02
  -4   3   2   48.03    1.03
   4  -3  -1  178.47    2.80
   4   3  -1  173.68    2.58
  -4  -3   1  178.08    2.55
   4  -3  -1  176.45    2.54
   4  -3  -1  174.43    2.59
  -4   3   1  177.41    2.57
  -4   3   0   10.10    0.51
   4  -3   0    9.84    0.53
   4   3   0    9.30    0.55
   4  -3   0    9.40    0.49
   4  -3   0    8.65    0.37
  -4  -3   0    9.65    0.38
   4   3   0    8.75    0.37
   4  -3   0    9.63    0.35
  -4   3  -1   19.09    0.71
   4   3   1   17.60    0.68
   4   3   1   17.20    0.72
   4  -3   1   18.92    0.76
  -4   3  -1   19.01    0.75
  -4  -3  -1   18.60    0.73
   4  -3   1   18.72    0.70
  -4  -3  -1   18.24    0.55
  -4   3  -1   18.70    0.58
   4  -3   1   18.22    0.52
  -4  -3  -1   19.40    0.53
  -4   3  -2    1.74    0.33
   4   3   2    1.02    0.30
   4   3   2    1.55    0.34
   4  -3   2    1.47    0.31
  -4  -3  -2    1.47    0.32
  -4   3  -2    1.40    0.30
  -4   3  -2    1.26    0.22
   4  -3   2    1.93    0.24
  -4  -3  -2    1.09    0.19
  -4  -3  -3  655.22    8.85
  -4   3  -3  649.84    9.12
   4  -3   3  658.86    8.97
   4   3   3  657.52    9.00
  -4   3  -3  658.78    9.01
  -4  -3  -3  655.67    8.97
  -4   3  -3  664.38    8.60
   4  -3   3  673.70    8.61
   4   3   3  661.94    8.56
  -4  -3  -3  663.15    8.55
  -4  -3  -4   29.23    0.99
   4  -3   4   31.63    0.87
   4   3   4   30.28    1.08
  -4  -3  -4   32.55    1.08
  -4   3  -4   31.50    1.10
   4  -3   4   31.60    1.08
  -4   3  -4   31.43    0.92
  -4  -3  -4   31.36    0.87
   4   3   4   31.92    0.88
  -4  -3  -5   31.94    1.08
   4  -3   5   32.33    0.97
   4   3   5   32.60    1.15
   4  -3   5   32.86    1.16
  -4  -3  -5   32.44    1.13
  -4   3  -5   33.06    1.18
  -4   3  -5   32.67    1.00
  -4  -3  -5   33.40    0.97
   4   3   5   30.17    0.95
   4  -3   6    2.48    0.36
  -4  -3  -6    2.75    0.36
   4   3   6    3.04    0.46
  -4   3  -6    2.14    0.41
   4  -3   6    2.11    0.40
  -4  -3  -6    2.95    0.43
  -4   3  -6    2.55    0.35
   4   3   6    2.03    0.33
   4  -3   7   18.95    0.85
  -4  -3  -7   19.00    0.86
  -4   3  -7   19.34    1.02
   4  -3   7   17.67    0.96
  -4  -3  -7   18.27    0.95
   4   3   7   17.96    0.95
  -4   3  -7   17.62    0.86
   4   3   7   18.87    0.86
  -4  -3  -8   10.20    0.69
   4   3   8   11.09    0.82
   4  -3   8   12.17    0.86
  -4  -3  -8   10.91    0.82
  -4   3  -8   11.28    0.75
   4   3   8   11.40    0.73
   4  -3   8   10.96    0.71
  -4  -3  -9   34.46    1.30
   4  -3   9   32.68    1.45
   4   3   9   31.57    1.40
  -4   3  -9   35.44    1.38
   4  -3   9   34.49    1.32
   4   3   9   35.19    1.33
   4  -3  10    1.11    0.50
   4   3  10    0.88    0.49
   4  -3  10   -0.09    0.41
   4   3  10    0.10    0.40
   4   3  11   20.36    1.27
   4  -3  11   19.44    1.25
   4   3  11   19.83    1.14
   4  -3  11   21.63    1.17
   4   3  12    1.12    0.49
   4  -3  12   -0.26    0.45
   4   3  12   -0.34    0.46
   4   3  13   17.33    1.21
   4  -3  13   18.53    1.23
   4   3  14    4.29    0.77
   4  -3  14    4.21    0.73
   4  -3  15   12.10    1.13
   4   3  15   11.52    1.12
   4  -3  16    1.02    0.67
  -4  -4  15    5.22    0.81
  -4   4  15    5.30    0.91
  -4  -4  14   25.61    1.53
  -4   4  14   26.26    1.58
  -4  -4  13    0.01    0.55
  -4   4  13   -0.73    0.60
  -4  -4  12    3.64    0.66
  -4   4  12    4.37    0.66
  -4  -4  11   -0.63    0.54
  -4   4  11    0.56    0.48
  -4  -4  10    1.19    0.46
  -4   4  10    1.87    0.49
  -4  -4   9   42.02    1.55
  -4   4   9   44.20    1.59
  -4  -4   8   31.29    1.27
   4   4  -8   32.08    1.26
   4  -4  -8   32.26    1.26
  -4   4   8   31.14    1.27
  -4  -4   7    5.20    0.55
   4  -4  -7    5.26    0.53
   4   4  -7    5.02    0.52
  -4   4   7    4.35    0.53
  -4  -4   6    6.50    0.58
   4   4  -6    7.32    0.57
  -4   4   6    6.85    0.61
   4  -4  -6    7.03    0.56
  -4  -4   5   23.92    0.93
   4   4  -5   24.66    0.92
   4  -4  -5   24.85    0.92
  -4   4   5   24.58    0.95
   4   4  -4   84.65    1.76
  -4  -4   4   84.84    1.74
   4  -4  -4   84.38    1.75
  -4   4   4   83.80    1.78
   4   4  -3    9.62    0.50
  -4  -4   3    9.28    0.50
   4  -4  -3    9.71    0.49
  -4   4   3    9.08    0.52
   4   4  -2  101.82    1.81
  -4  -4   2   99.58    1.79
   4  -4  -2  101.77    1.79
  -4   4   2  104.25    1.83
   4  -4  -1   13.96    0.59
   4  -4  -1   11.71    0.50
  -4  -4   1   12.36    0.50
   4   4  -1   11.99    0.50
   4  -4  -1   12.27    0.51
   4  -4  -1   13.22    0.47
   4   4   0    4.82    0.44
   4  -4   0    4.30    0.38
  -4   4   0    4.59    0.38
   4  -4   0    4.52    0.35
   4  -4   0    2.99    0.26
  -4  -4   0    4.83    0.35
  -4   4   0    4.33    0.32
   4   4   0    3.83    0.31
   4  -4   0    5.02    0.31
   4  -4   1   18.92    0.75
   4   4   1   19.00    0.69
  -4   4  -1   19.39    0.77
   4   4   1   18.37    0.75
  -4  -4  -1   19.43    0.76
  -4   4  -1   18.93    0.70
   4  -4   1   20.71    0.72
   4  -4   1   21.16    0.64
  -4  -4  -1   18.30    0.64
  -4   4  -1   18.37    0.66
  -4  -4  -1   20.50    0.63
  -4  -4  -2   10.58    0.56
   4   4   2    8.88    0.51
  -4   4  -2   12.13    0.63
   4   4   2    9.26    0.56
   4  -4   2    9.65    0.54
  -4   4  -2   11.08    0.57
  -4   4  -2    9.77    0.47
   4  -4   2   10.22    0.47
  -4  -4  -2    9.37    0.43
  -4  -4  -2    9.83    0.46
  -4  -4  -3   77.76    1.73
  -4   4  -3   75.26    1.82
  -4  -4  -3   75.35    1.60
   4   4   3   77.34    1.75
   4  -4   3   76.77    1.71
  -4   4  -3   78.43    1.75
  -4   4  -3   77.29    1.54
   4  -4   3   77.39    1.53
  -4  -4  -3   78.47    1.50
   4   4   3   74.60    1.50
  -4  -4  -4  171.70    2.98
   4  -4   4  180.95    2.85
   4   4   4  169.14    3.12
   4  -4   4  174.70    3.14
  -4  -4  -4  176.60    3.12
  -4   4  -4  179.90    3.21
  -4   4  -4  178.10    2.92
   4  -4   4  179.81    2.92
  -4  -4  -4  177.64    2.86
   4   4   4  180.57    2.90
   4  -4   5    5.50    0.45
  -4  -4  -5    5.77    0.47
  -4   4  -5    5.92    0.54
   4  -4   5    6.50    0.57
   4   4   5    5.43    0.52
  -4  -4  -5    4.95    0.47
  -4   4  -5    5.66    0.45
   4   4   5    5.21    0.43
  -4  -4  -5    5.79    0.43
   4  -4   6    2.19    0.37
  -4  -4  -6    1.29    0.30
   4  -4   6    1.67    0.40
   4   4   6    1.80    0.42
  -4   4  -6    1.28    0.37
  -4  -4  -6    1.19    0.34
  -4   4  -6    1.29    0.34
   4   4   6    1.18    0.33
  -4  -4  -7    0.20    0.26
   4  -4   7    1.35    0.39
  -4   4  -7    0.15    0.32
  -4  -4  -7    0.18    0.28
   4   4   7   -0.31    0.39
   4  -4   7    0.24    0.34
  -4   4  -7    0.16    0.29
   4   4   7   -0.11    0.30
   4  -4   8   35.43    1.27
   4  -4   8   36.20    1.46
   4   4   8   33.09    1.35
  -4  -4  -8   37.41    1.43
  -4   4  -8   34.18    1.31
   4   4   8   35.56    1.29
  -4  -4  -8   36.89    1.30
   4  -4   9    5.50    0.67
   4   4   9    3.60    0.57
   4  -4   9    4.57    0.56
  -4  -4  -9    4.46    0.53
   4   4   9    4.89    0.58
   4   4  10   26.32    1.34
   4  -4  10   25.86    1.37
   4   4  10   25.87    1.23
   4  -4  10   26.40    1.23
   4  -4  11    0.35    0.47
   4   4  11    0.85    0.48
   4  -4  11   -0.58    0.46
   4   4  11    0.43    0.45
   4   4  12    8.13    0.89
   4  -4  12    7.74    0.82
   4   4  12    7.33    0.82
   4  -4  13    1.35    0.52
   4   4  13    2.08    0.60
   4  -4  14   13.91    1.15
   4   4  14   12.61    1.10
   4  -4  15    0.12    0.56
   4   4  15   -0.99    0.68
  -4   5  15   20.96    1.50
  -4  -5  15   19.73    1.41
  -4  -5  14    2.63    0.69
  -4   5  14    3.04    0.77
  -4   5  13   19.48    1.34
  -4  -5  13   20.80    1.35
  -4  -5  12    0.08    0.49
  -4   5  12    0.73    0.50
  -4  -5  11   -0.33    0.48
  -4   5  11    0.21    0.45
  -4  -5  10    0.25    0.43
  -4   5  10    1.26    0.51
  -4  -5   9  121.61    2.89
  -4   5   9  125.07    2.92
  -4  -5   8   26.55    1.19
   4   5  -8   27.69    1.19
   4  -5  -8   26.48    1.14
  -4   5   8   25.90    1.18
  -4  -5   7   89.98    2.21
   4   5  -7   92.73    2.25
  -4   5   7   90.51    2.23
   4  -5  -7   94.76    2.21
  -4  -5   6    1.48    0.39
   4  -5  -6    1.11    0.32
   4   5  -6    1.13    0.34
  -4   5   6    1.47    0.39
   4   5  -5    2.39    0.37
  -4  -5   5    3.15    0.41
   4  -5  -5    3.27    0.40
  -4   5   5    3.03    0.44
   4   5  -4    2.51    0.36
  -4  -5   4    3.27    0.40
   4  -5  -4    3.15    0.37
  -4   5   4    2.66    0.41
   4   5  -3    0.53    0.24
  -4  -5   3    0.76    0.26
  -4   5   3    0.75    0.30
   4  -5  -3    0.77    0.25
   4  -5  -2   85.85    1.62
  -4  -5   2   87.28    1.69
   4   5  -2   86.04    1.70
   4  -5  -2   86.74    1.72
   4  -5  -2   84.66    1.64
  -4   5   2   84.22    1.70
   4  -5  -1   84.03    1.72
   4  -5  -1   86.10    1.59
  -4  -5   1   85.57    1.63
   4   5  -1   84.95    1.69
   4  -5  -1   85.22    1.70
   4  -5  -1   82.81    1.59
   4   5   0   66.47    1.52
   4  -5   0   68.83    1.50
  -4   5   0   63.63    1.37
   4  -5   0   66.42    1.37
   4  -5   0   63.55    1.40
   4   5   0   62.66    1.37
  -4  -5   0   67.44    1.40
   4  -5   0   67.17    1.36
  -4   5   0   65.05    1.38
  -4   5  -1    7.16    0.45
   4   5   1    6.85    0.42
  -4   5  -1    7.03    0.50
   4   5   1    7.10    0.49
   4  -5   1    6.96    0.42
  -4   5  -1    7.46    0.47
   4  -5   1    8.23    0.47
  -4  -5  -1    7.43    0.47
  -4  -5  -1    7.02    0.43
  -4  -5  -2   12.34    0.62
  -4   5  -2   13.70    0.71
   4   5   2   11.77    0.56
   4  -5   2   12.73    0.61
  -4   5  -2   12.29    0.62
   4   5   2   11.93    0.61
  -4   5  -2   12.84    0.59
  -4  -5  -2   13.34    0.59
   4  -5   2   12.63    0.55
  -4  -5  -2   12.73    0.55
  -4  -5  -3   63.70    1.53
  -4   5  -3   62.44    1.64
  -4  -5  -3   61.45    1.37
  -4   5  -3   63.49    1.55
   4  -5   3   61.71    1.50
   4   5   3   59.81    1.51
   4  -5   3   63.32    1.40
  -4   5  -3   62.73    1.42
  -4  -5  -3   63.82    1.37
  -4  -5  -4   82.70    1.74
   4  -5   4   82.34    1.90
   4   5   4   80.33    1.89
  -4  -5  -4   80.06    1.86
  -4   5  -4   85.78    1.96
   4  -5   4   86.99    1.79
  -4   5  -4   84.62    1.78
  -4  -5  -4   86.37    1.74
   4   5   4   86.50    1.78
  -4  -5  -5   62.50    1.54
   4  -5   5   65.95    1.53
   4   5   5   61.67    1.66
  -4  -5  -5   63.94    1.66
   4  -5   5   65.43    1.72
  -4   5  -5   64.18    1.74
  -4   5  -5   66.89    1.61
   4  -5   5   64.49    1.58
  -4  -5  -5   65.81    1.54
   4   5   5   66.36    1.58
  -4  -5  -6   -0.34    0.28
   4  -5   6   -0.23    0.29
   4   5   6    0.27    0.31
  -4  -5  -6   -0.42    0.32
  -4   5  -6    0.07    0.28
   4  -5   6   -0.53    0.35
  -4   5  -6    0.00    0.24
  -4  -5  -6    0.06    0.24
   4   5   6   -0.33    0.30
   4  -5   7   24.55    1.02
  -4   5  -7   24.17    1.16
   4  -5   7   24.43    1.13
  -4  -5  -7   24.90    1.10
   4   5   7   23.63    1.09
  -4   5  -7   25.03    1.07
   4   5   7   24.57    1.02
  -4  -5  -7   25.66    1.02
  -4  -5  -8    0.72    0.31
   4  -5   8    0.26    0.35
  -4  -5  -8    0.81    0.35
   4   5   8    0.38    0.35
   4  -5   8    0.43    0.40
  -4   5  -8    0.94    0.36
   4   5   8    0.47    0.34
   4   5   9    3.79    0.61
   4  -5   9    4.36    0.62
  -4  -5  -9    4.25    0.54
   4  -5   9    4.41    0.57
   4   5   9    4.25    0.54
   4  -5  10    2.09    0.55
   4   5  10    2.28    0.54
   4  -5  10    1.15    0.45
   4   5  10    1.54    0.49
   4   5  11    3.02    0.58
   4  -5  11    3.57    0.61
   4   5  11    2.97    0.59
   4   5  12    9.33    0.98
   4  -5  12   10.24    0.93
   4   5  12    9.28    0.91
   4  -5  13    0.63    0.53
   4   5  13    0.02    0.54
   4  -5  14    0.03    0.55
   4   5  14    0.36    0.56
   4  -5  15    7.27    0.95
   4   5  15    4.82    0.83
  -4  -6  15    1.32    0.66
  -4   6  15    1.28    0.65
  -4  -6  14   12.99    1.16
  -4   6  14   13.94    1.21
  -4  -6  13    0.25    0.54
  -4   6  13   -0.12    0.54
  -4  -6  12    0.27    0.49
  -4   6  12   -0.44    0.56
  -4  -6  11   -0.34    0.52
  -4   6  11   -0.39    0.51
   4  -6 -10    7.55    0.70
  -4  -6  10    7.62    0.78
  -4   6  10    7.81    0.81
   4  -6  -9    0.28    0.33
  -4  -6   9    0.68    0.40
  -4   6   9    0.56    0.41
  -4  -6   8  128.38    2.90
   4   6  -8  130.02    2.94
  -4   6   8  134.75    2.97
  -4  -6   7    4.99    0.60
   4  -6  -7    5.54    0.56
   4   6  -7    5.14    0.56
  -4   6   7    5.34    0.59
  -4  -6   6    1.49    0.38
   4   6  -6    1.63    0.36
   4  -6  -6    2.03    0.38
  -4   6   6    1.99    0.41
   4   6  -5    3.75    0.44
  -4  -6   5    3.63    0.43
   4  -6  -5    4.19    0.43
  -4   6   5    3.61    0.46
   4   6  -4  208.29    3.50
  -4  -6   4  206.66    3.46
   4  -6  -4  202.29    3.43
  -4   6   4  209.43    3.51
  -4  -6   3   57.03    1.40
   4   6  -3   56.40    1.41
   4  -6  -3   57.30    1.37
  -4   6   3   55.52    1.41
   4  -6  -2  239.30    3.46
   4   6  -2  232.69    3.70
  -4  -6   2  236.68    3.69
   4  -6  -2  233.14    3.64
  -4   6   2  237.45    3.71
   4  -6  -2  232.40    3.70
   4  -6  -1   73.69    1.58
   4  -6  -1   71.53    1.40
   4   6  -1   72.41    1.64
   4  -6  -1   71.42    1.66
  -4  -6   1   72.72    1.57
   4  -6  -1   74.29    1.56
  -4   6   0   10.33    0.49
   4   6   0    9.26    0.55
   4  -6   0   10.60    0.54
   4  -6   0    9.70    0.45
   4   6   0    9.91    0.54
  -4  -6   0   10.21    0.55
   4  -6   0   10.35    0.56
  -4   6   0    9.87    0.54
   4  -6   0   10.10    0.53
  -4   6  -1   10.19    0.53
   4   6   1   10.52    0.50
  -4   6  -1   11.48    0.62
   4   6   1   10.61    0.59
   4  -6   1   10.87    0.52
   4  -6   1   11.77    0.58
  -4   6  -1   11.14    0.62
  -4  -6  -1   11.98    0.62
  -4  -6  -1   10.92    0.57
   4   6   2   34.91    0.95
  -4   6  -2   35.94    1.17
  -4  -6  -2   36.13    1.07
   4  -6   2   36.26    1.04
   4   6   2   32.30    1.04
  -4   6  -2   35.83    1.05
   4  -6   2   37.62    1.05
  -4  -6  -2   37.65    1.06
  -4   6  -2   37.10    1.09
  -4  -6  -2   36.69    1.04
  -4   6  -3   16.91    0.85
  -4  -6  -3   17.43    0.76
  -4   6  -3   18.50    0.81
   4  -6   3   18.13    0.77
   4   6   3   16.33    0.76
  -4   6  -3   17.65    0.75
   4  -6   3   17.31    0.73
  -4  -6  -3   16.83    0.70
  -4  -6  -3   17.95    0.75
  -4  -6  -4  175.72    3.15
  -4  -6  -4  172.78    2.92
   4   6   4  165.62    3.11
   4  -6   4  177.65    3.20
  -4   6  -4  178.03    3.24
  -4   6  -4  178.90    3.11
   4  -6   4  186.88    3.12
   4   6   4  184.41    3.11
  -4  -6  -4  184.80    3.06
  -4  -6  -5   10.52    0.58
  -4  -6  -5   10.28    0.65
   4  -6   5    9.79    0.67
   4   6   5   11.15    0.70
  -4   6  -5   10.85    0.71
  -4   6  -5   11.27    0.67
   4  -6   5   10.69    0.65
   4   6   5   12.08    0.68
  -4  -6  -5   11.32    0.63
   4  -6   6    4.19    0.46
  -4  -6  -6    3.29    0.37
  -4  -6  -6    4.64    0.48
   4   6   6    3.78    0.46
  -4   6  -6    4.65    0.52
   4  -6   6    5.57    0.57
  -4   6  -6    4.10    0.46
   4   6   6    5.30    0.51
  -4  -6  -6    4.20    0.44
   4  -6   7    0.66    0.33
  -4  -6  -7    0.78    0.28
   4  -6   7    1.86    0.45
  -4   6  -7    1.57    0.43
   4   6   7    0.61    0.32
  -4  -6  -7    1.55    0.38
  -4   6  -7    1.19    0.36
   4   6   7    1.74    0.42
  -4  -6  -7    1.87    0.37
   4  -6   8    3.92    0.53
  -4  -6  -8    3.63    0.48
  -4  -6  -8    3.61    0.50
   4   6   8    3.48    0.51
   4  -6   8    4.39    0.60
  -4   6  -8    3.71    0.52
   4   6   8    3.44    0.53
   4   6   9    0.19    0.37
   4  -6   9    0.64    0.44
   4  -6   9    0.37    0.40
   4   6   9    0.75    0.41
   4   6  10    6.18    0.72
   4  -6  10    5.36    0.72
   4  -6  10    5.50    0.65
   4   6  10    5.19    0.65
   4   6  11    2.78    0.60
   4  -6  11    2.14    0.54
   4   6  11    3.13    0.60
   4   6  12    2.76    0.67
   4  -6  12    3.19    0.60
   4   6  12    3.62    0.69
   4  -6  13    0.93    0.55
   4   6  13   -0.49    0.56
   4  -6  14   14.78    1.20
   4   6  14   11.55    1.12
   4  -6  15    3.17    0.74
   4   6  15    2.18    0.68
  -4  -7  14    2.04    0.70
  -4   7  14    2.80    0.75
  -4  -7  13    4.32    0.76
  -4   7  13    5.14    0.82
  -4  -7  12   -0.36    0.53
  -4   7  12   -0.01    0.52
  -4  -7  11    9.47    0.89
  -4   7  11    8.62    0.87
   4  -7 -10    2.32    0.46
  -4  -7  10    2.05    0.55
  -4   7  10    3.26    0.62
   4  -7  -9   21.64    1.05
  -4  -7   9   21.46    1.17
  -4   7   9   22.75    1.21
  -4  -7   8    0.06    0.43
  -4   7   8    0.62    0.41
  -4  -7   7   56.04    1.71
   4   7  -7   58.30    1.76
   4  -7  -7   55.34    1.69
  -4   7   7   57.18    1.74
  -4  -7   6    3.04    0.46
   4   7  -6    2.36    0.41
   4  -7  -6    3.39    0.42
  -4   7   6    3.39    0.49
   4   7  -5   71.63    1.81
  -4  -7   5   65.97    1.73
  -4   7   5   66.79    1.81
   4  -7  -5   70.22    1.74
   4   7  -4   28.86    1.05
  -4  -7   4   26.24    1.01
   4  -7  -4   27.04    0.98
  -4   7   4   26.21    1.03
  -4  -7   3  191.85    3.28
   4   7  -3  189.69    3.31
   4  -7  -3  187.66    3.23
   4  -7  -3  192.33    3.32
  -4   7   3  188.40    3.32
   4  -7  -2    4.36    0.31
   4  -7  -2    4.48    0.39
   4   7  -2    4.32    0.42
  -4  -7   2    4.80    0.45
   4  -7  -2    4.33    0.41
   4  -7  -2    4.55    0.45
   4  -7  -1  171.43    2.84
   4  -7  -1  168.06    2.60
   4  -7  -1  164.36    3.05
  -4  -7   1  173.58    2.96
   4   7  -1  160.84    3.03
   4  -7  -1  170.07    2.91
   4  -7   0   13.10    0.61
  -4   7   0   13.43    0.55
   4   7   0   13.06    0.66
   4  -7   0   13.38    0.51
   4  -7   0   14.18    0.70
   4   7   0   13.91    0.68
  -4  -7   0   12.14    0.64
   4  -7   0   13.51    0.65
  -4   7   0   12.38    0.64
  -4   7  -1   74.26    1.72
   4   7   1   69.66    1.44
  -4   7  -1   68.93    1.53
   4   7   1   71.86    1.64
   4  -7   1   79.82    1.55
  -4   7  -1   77.81    1.80
   4  -7   1   77.16    1.72
  -4  -7  -1   80.65    1.79
  -4  -7  -1   72.15    1.69
  -4   7  -2    7.08    0.54
   4   7   2    6.02    0.38
  -4  -7  -2    5.56    0.45
   4   7   2    5.07    0.44
  -4   7  -2    6.56    0.46
   4  -7   2    6.74    0.47
  -4   7  -2    5.21    0.48
   4  -7   2    5.59    0.47
  -4  -7  -2    6.16    0.47
  -4  -7  -2    5.57    0.49
  -4   7  -3  282.41    4.61
  -4  -7  -3  273.00    4.30
   4  -7   3  277.15    4.30
  -4   7  -3  274.50    4.36
   4   7   3  260.35    4.28
   4  -7   3  282.26    4.35
  -4   7  -3  274.66    4.39
  -4  -7  -3  279.11    4.31
  -4  -7  -3  277.04    4.35
  -4  -7  -4  101.28    2.13
  -4  -7  -4   97.27    1.89
   4   7   4  100.25    2.15
  -4   7  -4   99.21    2.20
   4  -7   4  103.87    2.19
  -4   7  -4  102.34    2.19
   4  -7   4  102.44    2.15
  -4  -7  -4  101.66    2.11
  -4  -7  -5   95.27    1.93
   4  -7   5   96.98    2.22
  -4  -7  -5   94.46    2.13
   4   7   5   92.71    2.13
  -4   7  -5   96.38    2.25
  -4   7  -5   97.89    2.19
   4  -7   5   97.72    2.15
  -4  -7  -5  100.30    2.13
   4   7   5   96.68    2.16
  -4  -7  -6    9.54    0.57
  -4   7  -6   11.24    0.78
   4  -7   6   10.06    0.73
  -4  -7  -6   10.16    0.68
   4   7   6    9.23    0.66
  -4   7  -6   10.17    0.69
   4  -7   6    8.63    0.65
  -4  -7  -6   10.19    0.66
   4   7   6   10.95    0.72
  -4  -7  -7   37.10    1.23
   4  -7   7   38.53    1.34
  -4   7  -7   39.49    1.51
   4  -7   7   38.57    1.45
  -4  -7  -7   37.67    1.36
   4   7   7   39.27    1.40
  -4   7  -7   38.71    1.42
   4   7   7   39.76    1.40
  -4  -7  -7   38.62    1.34
   4  -7   8    8.64    0.76
   4   7   8    9.78    0.76
  -4  -7  -8    9.68    0.74
   4  -7   8    9.61    0.75
  -4  -7  -8    9.16    0.66
  -4  -7  -8   10.61    0.76
   4   7   8   10.25    0.78
   4   7   9   26.16    1.26
   4  -7   9   25.66    1.33
   4  -7   9   26.44    1.22
   4   7   9   26.90    1.26
   4   7  10   12.79    0.97
   4  -7  10    9.78    0.85
   4   7  10   11.43    0.92
   4   7  11   17.31    1.16
   4  -7  11   18.01    1.12
   4   7  11   18.10    1.15
   4   7  12    1.11    0.52
   4  -7  12    1.99    0.57
   4   7  12    1.36    0.53
   4  -7  13    2.96    0.71
   4   7  13    3.23    0.69
   4  -7  14    0.09    0.53
   4   7  14   -0.51    0.56
   4  -7  15   10.99    1.14
   4   7  15    8.78    1.04
  -4  -8  14   18.17    1.35
  -4   8  14   18.85    1.44
  -4  -8  13    4.20    0.78
  -4   8  13    5.39    0.85
  -4  -8  12    3.55    0.69
  -4   8  12    4.25    0.71
  -4  -8  11    0.81    0.51
  -4   8  11    0.30    0.52
   4  -8 -10   15.56    0.93
  -4  -8  10   17.41    1.13
  -4   8  10   18.19    1.18
   4  -8  -9    6.29    0.57
  -4  -8   9    5.29    0.69
  -4   8   9    6.26    0.74
   4  -8  -8   72.32    1.85
  -4  -8   8   73.43    2.11
  -4   8   8   70.74    2.12
   4   8  -7    0.63    0.34
  -4  -8   7    1.26    0.44
  -4   8   7    1.55    0.46
   4   8  -6    0.74    0.31
  -4  -8   6    1.35    0.39
   4  -8  -6    1.17    0.34
  -4   8   6    1.30    0.43
   4   8  -5   23.84    1.04
  -4  -8   5   23.57    1.03
  -4   8   5   23.00    1.04
   4  -8  -5   23.60    0.99
  -4  -8   4  335.78    5.31
   4   8  -4  335.96    5.36
   4  -8  -4  338.86    5.28
  -4   8   4  343.29    5.38
   4  -8  -3   16.45    0.57
   4   8  -3   16.16    0.80
  -4  -8   3   17.04    0.82
   4  -8  -3   15.99    0.76
   4  -8  -3   17.05    0.84
  -4   8   3   16.93    0.85
   4  -8  -2    9.44    0.52
   4  -8  -2    9.48    0.41
   4  -8  -2    9.78    0.65
  -4  -8   2    9.50    0.62
   4   8  -2    8.14    0.59
   4  -8  -2    9.56    0.60
   4  -8  -1   18.51    0.74
   4  -8  -1   18.22    0.58
  -4  -8   1   17.97    0.83
   4   8  -1   17.52    0.86
   4  -8  -1   17.04    0.86
   4  -8  -1   18.18    0.80
  -4   8   0    2.46    0.26
   4   8   0    2.13    0.33
   4  -8   0    1.58    0.19
   4  -8   0    2.15    0.41
  -4  -8   0    1.65    0.35
   4   8   0    1.81    0.35
  -4   8   0    1.95    0.34
   4  -8   0    1.67    0.33
  -4   8  -1   41.84    1.09
  -4   8  -1   42.43    1.25
   4   8   1   41.52    1.18
   4   8   1   40.76    0.99
   4  -8   1   45.39    1.09
   4  -8   1   40.97    1.28
  -4  -8  -1   44.05    1.33
  -4   8  -1   44.64    1.37
  -4  -8  -1   39.55    1.25
  -4   8  -2  224.56    3.84
   4   8   2  225.09    3.32
  -4   8  -2  219.00    3.58
   4  -8   2  228.98    3.54
   4   8   2  214.41    3.60
  -4  -8  -2  221.67    3.86
   4  -8   2  228.77    3.79
  -4   8  -2  224.24    3.93
  -4  -8  -2  224.42    3.76
  -4   8  -3  225.87    3.94
  -4  -8  -3  217.93    3.60
   4   8   3  213.35    3.62
  -4   8  -3  221.36    3.69
   4  -8   3  218.21    3.60
  -4   8  -3  218.55    3.82
  -4  -8  -3  215.87    3.74
   4  -8   3  222.64    3.76
  -4  -8  -3  220.94    3.71
  -4  -8  -4  293.71    4.67
  -4   8  -4  302.02    5.07
   4   8   4  288.22    4.68
   4  -8   4  299.74    4.76
  -4   8  -4  298.73    4.82
   4  -8   4  305.32    4.83
  -4   8  -4  304.43    4.90
  -4  -8  -4  309.73    4.79
  -4  -8  -4  301.97    4.85
  -4  -8  -5    6.57    0.56
  -4  -8  -5    6.02    0.43
   4  -8   5    6.16    0.57
   4   8   5    6.35    0.55
  -4   8  -5    7.26    0.61
   4  -8   5    7.08    0.62
  -4   8  -5    6.94    0.59
   4   8   5    7.65    0.65
  -4  -8  -5    6.52    0.55
  -4  -8  -6    2.23    0.32
  -4   8  -6    2.38    0.45
   4  -8   6    2.08    0.44
  -4  -8  -6    1.70    0.35
   4   8   6    2.29    0.40
   4  -8   6    2.30    0.44
  -4   8  -6    2.71    0.46
  -4  -8  -6    2.54    0.42
   4   8   6    1.99    0.42
   4  -8   7    1.17    0.43
  -4  -8  -7    0.68    0.26
   4  -8   7    0.40    0.37
  -4  -8  -7    1.01    0.34
   4   8   7    0.22    0.32
   4  -8   7    1.72    0.47
  -4   8  -7    1.39    0.41
   4   8   7    1.38    0.43
  -4  -8  -7    0.64    0.34
   4  -8   8    2.86    0.54
   4   8   8    3.44    0.52
  -4  -8  -8    3.77    0.52
   4  -8   8    2.92    0.50
  -4  -8  -8    3.20    0.43
   4   8   8    3.36    0.55
   4   8   9    1.71    0.46
   4  -8   9    2.39    0.53
  -4  -8  -9    2.29    0.43
   4   8   9    2.22    0.55
   4   8  10   43.15    1.71
   4  -8  10   44.70    1.72
   4   8  10   44.82    1.77
   4   8  11    1.71    0.55
   4  -8  11    1.42    0.55
   4   8  11    0.63    0.48
   4  -8  12    0.26    0.49
   4   8  12    0.48    0.57
   4  -8  13    2.73    0.68
   4   8  13    3.15    0.69
   4  -8  14    2.23    0.66
   4   8  14    1.65    0.63
   4  -8  15   -0.19    0.59
  -4  -9  14   -0.16    0.56
  -4   9  14    0.48    0.61
  -4  -9  13   25.89    1.56
  -4   9  13   26.02    1.59
  -4  -9  12    3.95    0.73
  -4   9  12    4.02    0.75
  -4  -9  11   19.04    1.25
  -4   9  11   19.76    1.30
   4  -9 -10   13.54    0.86
  -4  -9  10   13.69    1.03
  -4   9  10   14.21    1.08
   4  -9  -9    7.03    0.61
  -4  -9   9    5.90    0.74
  -4   9   9    7.07    0.76
   4  -9  -8    5.35    0.51
  -4  -9   8    6.11    0.73
  -4   9   8    5.70    0.68
   4  -9  -7   21.00    0.86
  -4  -9   7   20.28    1.08
  -4   9   7   21.00    1.13
   4   9  -6    0.64    0.36
  -4  -9   6   -0.08    0.35
  -4   9   6    0.12    0.40
   4  -9  -6    0.14    0.29
  -4  -9   5   95.36    2.31
   4   9  -5   99.77    2.40
  -4   9   5  102.12    2.43
   4  -9  -5   98.39    2.31
  -4  -9   4    1.66    0.38
   4   9  -4    2.03    0.41
   4  -9  -4    2.46    0.40
   4  -9  -4    2.04    0.46
  -4   9   4    2.02    0.46
   4  -9  -3  153.67    2.36
   4  -9  -3  157.29    2.68
   4   9  -3  149.86    3.03
   4  -9  -3  151.53    3.04
  -4  -9   3  158.14    3.05
   4  -9  -3  158.11    3.01
   4  -9  -2   69.14    1.54
   4  -9  -2   70.65    1.28
   4  -9  -2   72.19    1.91
  -4  -9   2   70.37    1.81
   4   9  -2   71.25    1.91
   4  -9  -2   70.84    1.79
   4  -9  -1   92.76    1.88
   4  -9  -1   94.08    1.60
  -4  -9   1   87.68    2.09
   4   9  -1   92.18    2.20
   4  -9  -1   93.46    2.24
   4  -9  -1   89.97    2.09
   4   9   0    3.23    0.37
  -4   9   0    4.17    0.32
   4  -9   0    3.02    0.25
  -4  -9   0    3.25    0.45
   4  -9   0    3.73    0.48
   4   9   0    3.50    0.44
  -4   9   0    3.53    0.45
   4  -9   0    3.84    0.46
   4   9   1   30.53    0.99
  -4   9  -1   30.69    0.92
  -4   9  -1   32.85    1.10
   4   9   1   31.18    0.82
   4  -9   1   34.50    0.92
  -4   9  -1   32.62    1.20
  -4  -9  -1   32.56    1.19
   4  -9   1   30.60    1.16
  -4  -9  -1   29.13    1.12
  -4   9  -2    1.76    0.34
   4   9   2    0.73    0.27
  -4   9  -2    0.41    0.23
   4  -9   2    0.53    0.23
  -4   9  -2    0.43    0.32
  -4  -9  -2   -0.01    0.45
   4  -9   2   -0.26    0.39
  -4  -9  -2    0.60    0.29
  -4  -9  -3  497.69    7.11
  -4   9  -3  516.48    7.53
  -4   9  -3  499.30    7.19
   4  -9   3  509.28    7.14
   4   9   3  499.91    7.13
  -4  -9  -3  503.22    7.47
  -4   9  -3  501.76    7.54
   4  -9   3  511.39    7.42
  -4  -9  -3  501.56    7.36
  -4   9  -4   25.48    1.13
  -4  -9  -4   25.06    0.95
   4   9   4   25.98    0.97
   4  -9   4   25.69    1.00
  -4   9  -4   25.60    1.03
  -4   9  -4   26.03    1.12
   4  -9   4   25.54    1.08
  -4  -9  -4   27.19    1.08
  -4  -9  -4   24.91    1.07
  -4  -9  -5   99.76    2.21
   4   9   5  101.56    2.22
   4  -9   5  101.82    2.33
  -4   9  -5   98.99    2.34
  -4   9  -5  101.83    2.43
   4  -9   5  104.10    2.38
  -4  -9  -5  101.23    2.41
  -4  -9  -5  104.46    2.35
  -4  -9  -6   11.49    0.72
  -4  -9  -6   11.00    0.58
   4  -9   6   12.19    0.81
  -4   9  -6   12.44    0.82
   4   9   6   11.78    0.72
   4  -9   6   11.50    0.81
  -4   9  -6   12.79    0.84
  -4  -9  -6   12.17    0.77
   4   9   6   11.30    0.81
  -4  -9  -7    3.50    0.39
   4  -9   7    3.06    0.52
  -4  -9  -7    3.82    0.49
   4   9   7    3.51    0.47
   4  -9   7    2.92    0.50
   4   9   7    3.88    0.57
   4   9   8    7.75    0.69
  -4  -9  -8    7.66    0.66
   4  -9   8    7.39    0.73
   4  -9   8    7.47    0.72
  -4  -9  -8    7.51    0.59
   4   9   8    7.16    0.74
   4   9   9   38.62    1.52
  -4  -9  -9   35.35    1.31
   4  -9   9   41.39    1.59
   4   9   9   39.83    1.63
   4   9  10    5.53    0.69
  -4  -9 -10    3.46    0.51
   4  -9  10    3.46    0.65
   4   9  10    4.13    0.71
   4   9  11    3.34    0.63
   4  -9  11    2.51    0.59
   4   9  11    4.80    0.74
   4  -9  12    0.19    0.50
   4   9  12    0.65    0.56
   4  -9  13   14.78    1.19
   4   9  13   15.55    1.28
   4  -9  14    0.26    0.60
   4   9  14    1.65    0.66
  -4 -10  13   -0.05    0.53
  -4  10  13    1.04    0.63
  -4 -10  12   -0.01    0.51
  -4  10  12   -0.02    0.55
  -4 -10  11    8.56    0.92
  -4  10  11    9.37    0.96
   4 -10 -10   19.88    1.00
  -4 -10  10   17.51    1.17
  -4  10  10   19.72    1.27
   4 -10  -9   57.37    1.64
  -4 -10   9   55.64    2.00
  -4  10   9   57.86    2.09
   4 -10  -8   68.80    1.71
  -4 -10   8   66.94    2.11
  -4  10   8   71.37    2.27
   4 -10  -7    1.09    0.28
  -4 -10   7    0.65    0.41
  -4  10   7    0.62    0.44
   4 -10  -6    8.86    0.50
  -4 -10   6    7.93    0.71
  -4  10   6    7.89    0.73
   4  10  -5    5.12    0.57
  -4 -10   5    5.29    0.61
   4 -10  -5    5.96    0.58
  -4  10   5    5.07    0.61
   4 -10  -5    4.86    0.59
   4 -10  -4  121.70    1.96
  -4 -10   4  122.18    2.72
   4  10  -4  121.24    2.76
   4 -10  -4  122.44    2.67
   4 -10  -4  119.54    2.72
   4 -10  -3   22.32    0.81
   4 -10  -3   22.27    0.58
  -4 -10   3   22.86    1.05
   4 -10  -3   22.56    1.07
   4  10  -3   23.69    1.09
   4 -10  -3   22.99    1.03
   4 -10  -2   58.61    1.39
   4 -10  -2   60.18    1.08
   4 -10  -2   56.61    1.77
  -4 -10   2   57.64    1.69
   4  10  -2   57.53    1.78
   4 -10  -2   58.73    1.68
   4 -10  -1   30.12    0.72
  -4 -10   1   27.09    1.13
   4  10  -1   30.20    1.21
   4 -10  -1   28.85    1.21
   4 -10  -1   27.99    1.14
   4  10   0   74.79    1.71
  -4  10   0   74.54    1.44
   4 -10   0   75.58    1.41
  -4 -10   0   73.07    1.94
   4 -10   0   74.84    1.98
  -4  10   0   76.12    1.98
   4 -10   0   74.24    1.95
   4  10   0   75.16    1.96
   4  10   1   59.22    1.46
   4  10   1   60.65    1.21
  -4  10  -1   59.98    1.36
  -4  10  -1   60.70    1.59
   4 -10   1   64.05    1.34
   4 -10   1   56.30    1.69
  -4 -10  -1   59.89    1.73
  -4  10  -1   63.56    1.81
  -4 -10  -1   60.53    1.74
  -4  10  -2   58.71    1.63
   4 -10   2   59.83    1.38
   4  10   2   58.22    1.45
  -4  10  -2   58.95    1.42
  -4 -10  -2   56.59    1.75
   4 -10   2   54.86    1.65
  -4  10  -2   58.50    1.79
  -4 -10  -2   54.98    1.64
  -4  10  -3    4.86    0.53
   4 -10   3    4.54    0.43
   4  10   3    4.84    0.44
  -4  10  -3    4.93    0.45
   4 -10   3    5.09    0.56
  -4  10  -3    4.17    0.56
  -4 -10  -3    5.37    0.55
  -4 -10  -3    3.52    0.54
  -4  10  -4  114.43    2.65
  -4 -10  -4  109.26    2.27
   4  10   4  111.67    2.28
   4 -10   4  111.42    2.36
  -4  10  -4  110.42    2.39
   4 -10   4  109.62    2.55
  -4  10  -4  111.41    2.61
  -4 -10  -4  109.86    2.56
  -4 -10  -4  112.30    2.53
  -4 -10  -5   23.19    0.95
   4  10   5   22.80    0.95
   4 -10   5   23.37    1.05
  -4  10  -5   22.70    1.03
   4 -10   5   23.83    1.12
  -4  10  -5   23.29    1.13
  -4 -10  -5   24.39    1.08
  -4 -10  -5   22.61    1.14
  -4 -10  -6    7.73    0.60
  -4  10  -6    7.64    0.66
   4 -10   6    6.32    0.62
   4  10   6    6.58    0.56
   4 -10   6    7.57    0.71
  -4 -10  -6    6.92    0.72
  -4 -10  -7   22.80    1.05
  -4 -10  -7   21.49    0.85
   4 -10   7   24.17    1.18
   4  10   7   22.60    1.05
   4 -10   7   24.99    1.21
   4  10   7   21.65    1.20
   4 -10   8    8.66    0.79
  -4 -10  -8    7.21    0.55
   4  10   8    8.55    0.70
  -4 -10  -8    7.12    0.65
   4 -10   8    8.48    0.79
   4  10   8    8.68    0.83
   4  10   9    0.24    0.38
   4 -10   9    0.33    0.44
  -4 -10  -9    0.37    0.32
   4  10   9    0.94    0.54
   4  10  10   48.68    1.80
   4 -10  10   44.32    1.79
   4  10  10   48.36    1.94
   4  10  11    2.98    0.59
   4 -10  11    2.51    0.63
   4  10  11    3.26    0.70
   4 -10  12    0.16    0.72
   4  10  12    0.62    0.54
   4 -10  13    3.77    0.75
   4  10  13    3.80    0.81
   4 -10  14    1.43    0.68
   4  10  14    1.58    0.70
  -4 -11  13    6.08    0.89
  -4  11  13    5.40    0.87
  -4 -11  12   -0.15    0.57
  -4  11  12   -0.62    0.61
  -4 -11  11    0.18    0.54
  -4  11  11    0.64    0.58
   4 -11 -10    1.52    0.39
  -4 -11  10    0.15    0.51
  -4  11  10    0.98    0.56
   4 -11  -9   64.63    1.71
  -4 -11   9   64.36    2.19
  -4  11   9   65.25    2.27
   4 -11  -8    5.84    0.48
  -4 -11   8    6.62    0.77
  -4  11   8    5.96    0.78
   4 -11  -7    1.39    0.28
  -4 -11   7    1.40    0.47
  -4  11   7    1.29    0.51
   4 -11  -6   18.07    0.66
  -4 -11   6   19.47    1.11
   4 -11  -6   19.26    1.14
  -4  11   6   17.94    1.10
   4 -11  -5  113.64    1.88
   4 -11  -5  112.05    1.88
  -4 -11   5  111.58    2.72
   4 -11  -5  108.89    2.73
   4 -11  -4   20.26    0.77
   4 -11  -4   20.00    0.53
   4  11  -4   19.71    1.05
   4 -11  -4   19.52    1.07
  -4 -11   4   20.13    1.08
   4 -11  -4   20.96    1.04
   4 -11  -3   87.18    1.77
   4 -11  -3   85.55    1.32
  -4 -11   3   81.86    2.21
   4  11  -3   84.26    2.31
   4 -11  -3   82.58    2.28
   4 -11  -3   84.86    2.20
   4 -11  -2  101.16    1.50
   4  11  -2   95.69    2.49
  -4 -11   2   89.15    2.33
   4 -11  -2   94.29    2.50
   4 -11  -2   97.08    2.37
   4  11  -1   96.78    2.08
   4 -11  -1   97.49    1.55
   4  11  -1  101.34    2.45
   4 -11  -1   99.23    2.45
  -4 -11   1   89.75    2.31
   4 -11  -1   89.81    2.30
   4 -11   0    3.56    0.27
   4  11   0    3.66    0.39
  -4 -11   0    2.89    0.50
   4 -11   0    3.24    0.51
   4  11   0    3.68    0.50
  -4  11   0    3.83    0.49
   4 -11   0    3.34    0.48
  -4  11  -1   48.41    1.40
   4  11   1   48.00    1.29
  -4  11  -1   47.48    1.16
   4  11   1   48.66    1.01
   4 -11   1   50.42    1.15
  -4 -11  -1   47.21    1.57
  -4  11  -1   49.11    1.63
   4 -11   1   45.83    1.57
  -4 -11  -1   48.30    1.61
  -4  11  -2    7.93    0.60
  -4  11  -2    7.91    0.50
   4  11   2    7.33    0.50
   4 -11   2    7.52    0.47
  -4 -11  -2    7.58    0.71
  -4  11  -2    7.86    0.70
   4 -11   2    7.53    0.67
  -4 -11  -2    6.79    0.62
  -4  11  -3   71.47    1.92
   4  11   3   68.64    1.62
  -4  11  -3   69.04    1.69
   4 -11   3   72.27    1.68
   4 -11   3   66.99    1.96
  -4 -11  -3   64.06    2.00
  -4  11  -3   64.41    2.03
  -4 -11  -3   68.35    1.93
  -4  11  -4   12.25    0.82
   4 -11   4   13.23    0.74
   4  11   4   13.29    0.69
  -4  11  -4   13.40    0.76
  -4 -11  -4   11.82    0.86
  -4  11  -4   12.83    0.89
   4 -11   4   11.55    0.83
  -4 -11  -4   11.43    0.80
  -4  11  -5   43.26    1.59
  -4 -11  -5   37.68    1.24
   4  11   5   42.88    1.31
   4 -11   5   38.88    1.36
  -4  11  -5   39.40    1.39
   4 -11   5   41.27    1.54
  -4 -11  -5   39.22    1.51
  -4  11  -6    0.40    0.35
  -4 -11  -6    0.10    0.28
   4  11   6    0.67    0.28
   4 -11   6    0.03    0.39
  -4 -11  -6    0.53    0.42
  -4 -11  -7   46.62    1.54
   4  11   7   48.42    1.54
   4 -11   7   48.91    1.76
  -4 -11  -7   51.16    1.87
  -4 -11  -8   24.50    1.15
  -4 -11  -8   24.47    0.94
   4  11   8   25.34    1.17
   4 -11   8   27.69    1.36
   4  11   8   26.70    1.37
   4  11   9   25.03    1.21
   4 -11   9   23.42    1.27
   4  11   9   26.21    1.42
   4  11  10    0.46    0.39
   4 -11  10    0.13    0.49
   4  11  10    0.63    0.53
   4 -11  11    9.32    0.94
   4  11  11    9.23    1.01
   4 -11  12    1.39    0.60
   4  11  12   -0.12    0.57
   4 -11  13    1.55    0.65
   4  11  13    0.66    0.63
  -4 -12  12    0.91    0.61
  -4  12  12    0.68    0.62
  -4 -12  11   -0.24    0.53
  -4  12  11   -0.06    0.53
  -4 -12  10    4.37    0.73
  -4  12  10    4.81    0.78
  -4 -12   9    2.29    0.59
  -4 -12   9    2.11    0.57
  -4  12   9    1.34    0.59
   4 -12  -8   16.65    0.72
  -4 -12   8   14.39    1.06
  -4  12   8   16.56    1.16
   4 -12  -7   35.67    0.99
  -4 -12   7   36.21    1.58
   4 -12  -7   37.57    1.67
  -4  12   7   35.61    1.64
   4 -12  -6    1.43    0.21
  -4 -12   6    2.62    0.56
   4 -12  -6    1.61    0.54
  -4  12   6    2.26    0.61
   4 -12  -5    0.08    0.23
   4 -12  -5    0.52    0.15
   4 -12  -5    0.19    0.14
  -4 -12   5    0.06    0.40
   4 -12  -5    0.16    0.41
   4 -12  -4   47.34    1.21
   4 -12  -4   46.63    1.72
  -4 -12   4   44.48    1.67
   4 -12  -3    8.75    0.50
  -4 -12   3    6.91    0.68
   4 -12  -3    7.87    0.75
  -4 -12   2   61.26    1.92
   4  12  -2   71.37    2.14
   4 -12  -2   66.09    2.08
   4 -12  -2   66.38    1.96
   4  12  -1    8.57    0.57
   4 -12  -1    9.08    0.31
   4 -12  -1    8.60    0.77
   4  12  -1    7.86    0.69
  -4 -12   1    8.02    0.72
   4 -12  -1    7.16    0.66
   4  12   0    8.74    0.55
   4 -12   0   10.58    0.42
  -4 -12   0    8.15    0.73
   4 -12   0    8.98    0.75
   4  12   0    9.10    0.75
   4 -12   0    8.96    0.73
  -4  12   0    8.61    0.71
   4  12   1    2.58    0.22
  -4  12  -1    2.33    0.36
  -4  12  -1    2.32    0.27
   4 -12   1    2.75    0.28
   4  12   1    2.68    0.33
   4 -12   1    2.73    0.51
  -4 -12  -1    2.70    0.50
  -4  12  -1    3.05    0.51
  -4 -12  -1    2.39    0.47
  -4  12  -2   35.15    1.25
  -4  12  -2   32.65    1.01
   4 -12   2   35.64    1.02
   4  12   2   35.80    1.08
  -4 -12  -2   32.90    1.41
   4 -12   2   31.31    1.33
  -4  12  -2   33.82    1.45
  -4 -12  -2   31.15    1.33
  -4  12  -3   68.33    1.91
   4 -12   3   65.07    2.01
  -4 -12  -3   63.63    2.08
   4 -12   3   71.10    1.67
  -4  12  -3   68.64    1.68
   4  12   3   67.32    1.60
  -4  12  -4   18.87    1.01
  -4  12  -4   15.48    0.83
   4  12   4   17.55    0.78
  -4 -12  -4   14.88    1.01
   4 -12   4   16.15    1.01
  -4 -12  -5    1.23    0.32
  -4  12  -5    1.76    0.40
   4  12   5    0.99    0.29
   4 -12   5    2.55    0.55
  -4 -12  -5    0.87    0.45
  -4 -12  -6   -0.10    0.30
   4  12   6   -0.14    0.29
  -4  12  -6   -0.01    0.31
   4 -12   6    0.85    0.49
  -4 -12  -6    1.02    0.54
   4  12   7    8.26    0.65
  -4 -12  -7    7.14    0.63
   4 -12   7    7.74    0.80
  -4 -12  -7    8.92    0.90
  -4 -12  -8   32.37    1.34
   4  12   8   36.49    1.37
   4 -12   8   37.87    1.64
  -4 -12  -8   37.08    1.70
   4  12   9    0.99    0.39
   4 -12   9    0.83    0.51
   4  12   9    0.79    0.53
   4  12  10    0.29    0.36
   4 -12  10    1.36    0.56
   4  12  10   -0.14    0.57
   4 -12  11    0.13    0.51
   4  12  11    0.05    0.56
   4 -12  12    1.11    0.60
   4  12  12   -0.62    0.65
   4 -12  13    3.72    0.75
   4  12  13    0.86    0.66
  -4 -13  12    1.78    0.66
  -4  13  12    1.19    0.69
  -4 -13  11    1.54    0.62
  -4  13  11    1.98    0.67
  -4 -13  10    7.41    0.90
  -4  13  10    6.19    0.90
  -4 -13   9   18.49    1.25
  -4  13   9   19.53    1.33
  -4 -13   8    9.71    0.95
   4 -13  -8   10.69    1.03
  -4  13   8    9.55    0.97
   4 -13  -7   53.45    1.17
  -4 -13   7   52.97    1.99
   4 -13  -7   56.35    2.10
  -4  13   7   55.86    2.09
   4 -13  -6   89.40    1.84
   4 -13  -6   83.03    1.39
   4 -13  -6   87.28    1.41
  -4 -13   6   84.02    2.50
   4 -13  -6   88.55    2.61
   4 -13  -5    1.84    0.30
  -4 -13   5    1.92    0.56
   4 -13  -5    1.26    0.51
   4 -13  -4   29.04    0.91
   4 -13  -4   27.09    1.38
  -4 -13   4   27.04    1.35
   4 -13  -3    1.39    0.50
  -4 -13   3    1.43    0.45
   4 -13  -2    7.48    0.79
  -4 -13   2    6.26    0.67
   4  13  -1   27.80    1.01
   4 -13  -1   28.23    1.33
  -4 -13   1   28.22    1.32
   4  13   0    8.00    0.53
  -4 -13   0    7.08    0.70
   4 -13   0    7.20    0.72
  -4  13  -1    8.17    0.43
   4 -13   1    8.18    0.76
  -4 -13  -1    8.15    0.78
   4  13   1    8.02    0.51
  -4  13  -2   15.42    0.83
  -4  13  -2   15.32    0.67
  -4 -13  -2   14.91    0.98
   4 -13   2   14.08    0.97
   4  13   2   16.05    0.71
  -4  13  -3   86.40    2.20
   4 -13   3   79.53    2.34
  -4 -13  -3   81.71    2.45
   4  13   3   88.26    1.86
  -4  13  -3   84.01    1.90
  -4  13  -4   25.15    1.18
   4  13   4   26.32    0.95
  -4  13  -4   25.45    1.04
  -4 -13  -4   23.70    1.33
   4 -13   4   26.08    1.31
  -4  13  -5    5.56    0.56
   4  13   5    5.26    0.47
   4 -13   5    4.47    0.65
  -4 -13  -5    3.83    0.64
  -4 -13  -6    2.95    0.41
   4  13   6    4.09    0.46
  -4  13  -6    3.66    0.51
   4 -13   6    3.61    0.62
  -4 -13  -6    3.28    0.63
  -4 -13  -7   -0.12    0.29
   4  13   7    0.06    0.27
   4 -13   7   -0.11    0.45
  -4 -13  -7    0.15    0.47
   4  13   8    8.00    0.65
   4 -13   8    8.34    0.88
  -4 -13  -8    8.24    0.91
   4 -13   9    4.47    0.72
   4  13   9    3.95    0.54
   4 -13   9    4.58    0.73
  -4 -13  -9    4.82    0.78
   4 -13  10   17.36    1.23
  -4 -13 -10   19.39    1.38
   4 -13  11    2.14    0.63
   4  13  11    0.89    0.62
   4 -13  12    0.43    0.60
   4  13  12    0.67    0.62
  -4 -14  11    0.27    0.60
  -4  14  11    0.73    0.62
  -4 -14  10    7.86    0.98
  -4  14  10    9.43    1.08
  -4 -14   9    6.64    0.88
   4 -14  -9    5.41    0.88
  -4  14   9    6.15    0.94
  -4 -14   8    9.09    0.95
   4 -14  -8    9.98    1.03
   4 -14  -7    5.24    0.43
  -4 -14   7    5.10    0.74
   4 -14  -7    5.09    0.78
   4 -14  -6   50.01    1.25
   4 -14  -6   45.54    1.91
  -4 -14   6   47.42    1.92
   4 -14  -5   -0.02    0.20
  -4 -14   5    0.23    0.46
   4 -14  -5   -0.45    0.54
   4 -14  -4  102.77    2.96
  -4 -14   4  101.96    2.81
  -4 -14   3   26.27    1.34
   4 -14  -3   28.04    1.44
  -4 -14   2    7.69    0.76
   4 -14  -2    8.54    0.86
   4  14  -1   94.86    2.06
   4 -14  -1   95.54    2.63
  -4 -14   1   92.36    2.59
   4  14   0   12.34    0.63
   4  14   0   12.14    0.44
  -4 -14   0   11.84    0.91
   4 -14   0   12.01    0.91
  -4  14  -1   -0.02    0.15
   4 -14   1   -0.33    0.46
  -4 -14  -1   -0.36    0.48
   4  14   1    0.06    0.21
  -4  14  -2   44.99    1.19
  -4  14  -2   46.78    1.49
  -4 -14  -2   45.09    1.75
   4 -14   2   39.33    1.64
   4  14   2   49.20    1.26
  -4  14  -3   58.88    1.78
  -4 -14  -3   54.64    2.03
   4 -14   3   51.89    1.92
  -4  14  -3   56.61    1.49
   4  14   3   60.01    1.44
  -4  14  -4   34.58    1.40
  -4  14  -4   32.79    1.19
   4  14   4   34.76    1.08
   4 -14   4   31.07    1.49
  -4 -14  -4   28.14    1.47
  -4  14  -5   40.01    1.43
   4  14   5   41.05    1.24
  -4 -14  -5   38.36    1.74
   4 -14   5   39.74    1.70
  -4  14  -6    2.35    0.44
   4  14   6    1.62    0.34
   4 -14   6    2.28    0.55
  -4 -14  -6    1.62    0.56
   4  14   7   10.05    0.67
   4 -14   7    9.80    0.93
  -4 -14  -7   10.04    0.98
   4  14   8    0.75    0.31
   4 -14   8    0.13    0.48
  -4 -14  -8    1.65    0.62
   4  14   9    5.76    0.60
   4 -14   9    5.27    0.80
  -4 -14  -9    5.47    0.84
   4 -14  10   18.86    1.31
  -4 -14 -10   21.47    1.46
   4 -14  11    1.27    0.60
  -4 -14 -11    2.21    0.72
   4 -14  12    5.85    0.90
   4 -15 -11    2.19    0.83
  -4  15  11    1.50    0.75
  -4 -15  10    0.71    0.59
  -4 -15  10    1.91    0.71
  -4  15  10    1.18    0.71
   4 -15 -10    1.65    0.68
  -4 -15   9   14.02    1.21
   4 -15  -9   14.72    1.26
  -4 -15   8   19.05    1.33
   4 -15  -8   18.15    1.34
   4 -15  -7   28.24    1.60
  -4 -15   7   28.60    1.56
   4 -15  -6    0.65    0.23
  -4 -15   6    1.01    0.56
   4 -15  -6    0.88    0.53
  -4 -15   5   11.47    1.00
   4 -15  -5   11.10    1.02
  -4 -15   4    0.93    0.48
   4 -15  -4    0.84    0.54
  -4 -15   3   27.05    1.42
   4 -15  -3   32.42    1.60
   4  15  -2   73.11    1.83
  -4 -15   2   69.56    2.29
   4 -15  -2   71.74    2.37
   4  15  -1   53.78    1.46
  -4 -15   1   52.78    1.95
   4 -15  -1   55.02    2.02
   4  15   0    0.39    0.12
  -4 -15   0    0.60    0.44
   4 -15   0    1.08    0.51
   4  15   0    0.66    0.24
  -4 -15  -1    7.27    0.77
   4 -15   1    7.09    0.78
   4  15   1    7.53    0.48
  -4  15  -2   15.17    0.84
  -4  15  -2   14.77    0.62
  -4 -15  -2   13.95    1.04
   4 -15   2   13.10    1.02
   4  15   2   14.99    0.66
  -4  15  -3  142.80    3.05
  -4  15  -3  136.81    2.60
   4  15   3  142.25    2.50
   4 -15   3  130.75    3.37
  -4 -15  -3  135.47    3.43
   4  15   4    4.58    0.41
  -4  15  -4    3.95    0.46
  -4 -15  -4    3.50    0.70
   4 -15   4    3.60    0.69
  -4  15  -5    4.45    0.53
   4  15   5    5.02    0.43
   4 -15   5    3.72    0.67
  -4 -15  -5    3.44    0.74
   4  15   6   -0.01    0.25
   4 -15   6   -0.61    0.50
  -4 -15  -6   -0.50    0.61
   4 -15   7    0.52    0.51
  -4 -15  -7    1.26    0.59
   4 -15   8    3.19    0.71
  -4 -15  -8    3.58    0.78
   4 -15   9   12.07    1.13
  -4 -15  -9   12.79    1.16
   4 -15  10   -0.10    0.54
  -4 -15 -10    0.28    0.61
   4 -15  11    4.16    0.85
  -4 -15 -11    4.59    0.83
  -4 -16  10    3.02    0.79
   4 -16 -10    3.65    0.86
  -4 -16   9   16.17    1.29
   4 -16  -9   15.27    1.31
  -4 -16   8   10.19    1.06
   4 -16  -8    8.44    1.04
  -4 -16   7    0.66    0.55
   4 -16  -7    0.01    0.57
  -4 -16   6    2.70    0.69
   4 -16  -6    2.42    0.66
  -4 -16   5    8.49    0.94
   4 -16  -5    8.58    0.99
   4 -16  -4   25.08    1.52
  -4 -16   4   20.96    1.33
   4 -16  -3   13.72    1.11
  -4 -16   3   12.60    1.05
   4  16  -2   49.32    1.45
   4 -16  -2   49.99    2.00
  -4 -16   2   47.52    1.92
   4  16  -1   17.38    0.78
  -4 -16   1   17.19    1.15
   4 -16  -1   17.77    1.20
  -4 -16   0    6.51    0.77
   4 -16   0    6.57    0.79
   4  16   0    7.66    0.50
   4 -16   1   29.47    1.53
  -4 -16  -1   28.33    1.48
   4  16   1   33.24    0.99
  -4  16  -2   23.66    1.05
   4 -16   2   22.77    1.34
  -4 -16  -2   23.61    1.36
   4  16   2   23.98    0.81
  -4  16  -3    1.96    0.43
   4  16   3    1.72    0.26
  -4 -16  -3    2.42    0.62
   4 -16   3    1.46    0.54
   4  16   4    5.65    0.40
   4 -16   4    4.47    0.69
  -4 -16  -4    5.18    0.84
   4 -16   5   28.09    1.54
  -4 -16  -5   26.79    1.62
   4 -16   6    3.32    0.68
  -4 -16  -6    2.70    0.74
   4 -16   7    7.39    0.94
  -4 -16  -7    7.11    0.96
   4 -16   8   12.69    1.14
  -4 -16  -8   10.55    1.12
   4 -16   9    2.25    0.71
  -4 -16  -9    1.09    0.69
   4 -16  10    6.99    0.93
   4 -16  10   11.00    1.14
  -4 -16 -10    9.81    1.13
   4 -17  -9   16.40    1.40
  -4 -17   9   18.83    1.44
  -4 -17   8   12.18    1.16
   4 -17  -8   13.71    1.30
  -4 -17   7    0.63    0.55
   4 -17  -7   -0.11    0.62
  -4 -17   6   -0.06    0.55
   4 -17  -6   -0.68    0.68
   4 -17  -5   14.03    1.27
  -4 -17   5   13.75    1.15
   4 -17  -4   29.85    1.72
  -4 -17   4   28.11    1.58
   4 -17  -3   21.45    1.40
  -4 -17   3   22.29    1.38
   4  17  -2   24.26    0.98
   4 -17  -2   23.30    1.43
  -4 -17   2   23.20    1.39
   4  17  -1    7.87    0.53
   4 -17  -1    8.42    0.92
  -4 -17   1    6.19    0.80
   4  17   0    0.72    0.25
  -4 -17   0    0.30    0.47
   4 -17   0    0.67    0.50
   4 -17   1   14.81    1.15
  -4 -17  -1   16.04    1.16
   4 -17   2   22.13    1.37
  -4 -17  -2   21.93    1.35
   4 -17   3   31.59    1.64
  -4 -17  -3   33.84    1.69
  -4 -17  -4   38.65    1.88
   4 -17   4   36.82    1.79
   4 -17   5    7.75    0.96
  -4 -17  -5    5.76    0.89
  -4 -17  -6   -0.14    0.66
   4 -17   6   -1.21    0.58
   4 -17   7    0.54    0.62
  -4 -17  -7   -0.23    0.62
   4 -17   8    9.36    1.04
  -4 -17  -8    9.32    1.13
   4 -17   9    7.88    1.03
  -4 -17  -9    7.84    1.08
  -4 -18   8   20.34    1.49
   4 -18  -8   19.72    1.59
  -4 -18   7    3.74    0.78
   4 -18  -7    3.51    0.86
   4 -18  -6    5.64    0.88
  -4 -18   6    5.94    0.85
   4 -18  -5   14.33    1.31
  -4 -18   5   14.35    1.21
   4 -18  -4   25.17    1.62
  -4 -18   4   22.59    1.47
  -4 -18   3   21.23    1.41
   4 -18  -3   21.53    1.45
  -4 -18   2   23.22    1.45
   4 -18  -2   22.41    1.47
  -4 -18   1   12.25    1.08
   4 -18  -1   13.31    1.14
   4 -18   0    1.17    0.57
  -4 -18   0    1.00    0.55
  -4 -18  -1    1.50    0.59
   4 -18   1    1.46    0.60
  -4 -18  -2   18.83    1.33
   4 -18   2   19.16    1.33
  -4 -18  -3   30.53    1.66
   4 -18   3   28.16    1.62
  -4 -18  -4   17.95    1.34
   4 -18   4   20.11    1.40
   4 -18   5   12.20    1.15
  -4 -18  -5   13.39    1.23
  -4 -18  -6    2.37    0.77
   4 -18   6    2.49    0.71
  -4 -18  -7    3.72    0.87
   4 -18   7    2.73    0.70
   4 -18   8   16.11    1.36
  -4 -18  -8   16.19    1.46
  -4 -19   7    1.88    0.70
   4 -19  -6    9.17    1.14
  -4 -19   6    6.11    0.92
   4 -19  -5   29.25    1.83
  -4 -19   5   26.63    1.65
   4 -19  -4   35.41    1.91
  -4 -19   4   34.74    1.86
  -4 -19   3   19.82    1.41
   4 -19  -3   22.67    1.50
  -4 -19   2   11.20    1.11
   4 -19  -2   11.44    1.10
   4 -19  -1    9.24    1.02
  -4 -19   1   10.77    1.04
   4 -19   0    7.33    0.94
  -4 -19   0    7.65    0.95
  -4 -19  -1   -0.09    0.57
   4 -19   1    0.57    0.56
   4 -19   2   20.74    1.43
  -4 -19  -2   19.90    1.38
   4 -19   3   35.57    1.84
  -4 -19  -3   36.89    1.88
  -4 -19  -4   33.80    1.82
   4 -19   4   30.25    1.76
   4 -19   5    0.90    0.56
  -4 -19  -5    0.27    0.57
   4 -19   6    1.86    0.61
  -4 -19  -6    2.03    0.77
  -4 -20   5    0.33    0.55
   4 -20  -5    0.55    0.63
   4 -20  -4   25.11    1.67
  -4 -20   4   24.75    1.60
   4 -20  -3    8.43    1.05
  -4 -20   3    8.34    1.03
  -4 -20   2    0.44    0.56
   4 -20  -2   -0.24    0.59
   4 -20  -1   11.51    1.14
  -4 -20   1   15.52    1.27
   4 -20   0    6.13    0.93
  -4 -20   0    6.85    0.93
  -4 -20  -1    3.08    0.72
   4 -20   1    2.56    0.65
  -4 -20  -2    5.37    0.84
   4 -20   2    5.50    0.86
   4 -20   3   11.82    1.19
  -4 -20  -3   10.39    1.10
  -4 -20  -4   18.38    1.43
   4 -20   4   19.14    1.45
   4 -20   5    2.86    0.78
  -4 -20  -5    4.33    0.86
  -4 -21   2   14.75    1.30
   4 -21  -1   -0.08    0.62
  -4 -21   1    0.52    0.60
  -4 -21   0    0.77    0.61
   4 -21   0    1.71    0.69
  -4 -21  -1    0.13    0.56
   4 -21   1    1.12    0.70
  -4 -21  -2   13.28    1.25
  -5   0  15    0.71    0.61
  -5   0  14   -1.13    0.72
  -5   0  13   -0.71    0.62
  -5   0  12    9.75    0.94
  -5   0  11   -0.35    0.47
  -5   0  10   49.38    1.79
  -5   0   9    0.07    0.40
   5   0  -8   77.26    2.02
  -5   0   8   75.65    2.00
   5   0  -7   -0.15    0.33
  -5   0   7    0.26    0.36
   5   0  -6   52.70    1.44
  -5   0   6   49.70    1.41
   5   0  -5    0.06    0.24
  -5   0   5   -0.22    0.30
   5   0  -4   26.61    0.83
  -5   0   4   26.69    0.83
  -5   0   3   -0.18    0.25
   5   0  -3    0.12    0.20
   5   0  -2  430.73    5.69
  -5   0   2  436.05    5.68
   5   0  -1    0.12    0.32
   5   0  -1    0.29    0.10
  -5   0   1    0.13    0.13
   5   0   0  227.94    3.70
   5   0   0  230.58    3.70
   5   0   1   -0.18    0.29
  -5   0  -1   -0.03    0.29
   5   0   1   -0.29    0.33
  -5   0  -2    2.59    0.36
   5   0   2    2.57    0.43
  -5   0  -2    2.82    0.38
   5   0   2    2.72    0.44
  -5   0  -2    2.27    0.17
  -5   0  -3    1.75    0.39
   5   0   3    1.97    0.43
  -5   0  -3    1.81    0.40
   5   0   4  743.84   10.10
  -5   0  -4  744.41   10.11
  -5   0  -4  734.17   10.09
  -5   0  -4  714.81    9.31
   5   0   4  724.70    9.31
  -5   0  -5   -0.05    0.31
   5   0   5   -0.02    0.37
  -5   0  -5    0.59    0.24
  -5   0  -5   -0.42    0.39
   5   0   5    0.44    0.25
   5   0   6   37.03    1.36
  -5   0  -6   40.86    1.44
  -5   0  -6   40.73    1.11
  -5   0  -6   39.02    1.40
   5   0   6   39.88    1.10
  -5   0  -7   -0.11    0.34
   5   0   7   -0.50    0.44
  -5   0  -7    0.05    0.23
   5   0   7   -0.45    0.31
   5   0   8    1.98    0.47
  -5   0  -8    2.40    0.44
   5   0   8    2.47    0.40
   5   0   9    0.11    0.43
  -5   0  -9    0.14    0.31
   5   0   9   -0.75    0.40
   5   0  10   52.51    1.98
  -5   0 -10   52.72    1.69
   5   0  10   53.06    1.71
   5   0  11    1.27    0.59
   5   0  11    0.01    0.42
   5   0  12   20.00    1.38
   5   0  12   22.21    1.24
   5   0  13   -0.53    0.58
   5   0  13   -0.64    0.54
   5   0  14    6.39    0.88
   5   0  15   -0.05    0.56
   5   0  16    4.75    0.81
  -5   1  15    1.29    0.61
  -5  -1  15    0.81    0.60
  -5   1  14   11.54    1.12
  -5  -1  14   14.47    1.21
  -5   1  13   42.80    1.88
  -5  -1  13   43.59    1.90
  -5  -1  12    0.41    0.51
  -5   1  12    0.37    0.52
  -5  -1  11   -0.18    0.45
  -5   1  11   -0.36    0.43
  -5  -1  10   14.34    0.99
  -5   1  10   15.57    1.01
  -5  -1   9   55.82    1.80
  -5   1   9   58.80    1.82
   5   1  -8   25.25    1.10
   5  -1  -8   26.01    1.11
  -5   1   8   24.35    1.10
  -5  -1   8   25.43    1.10
   5  -1  -7   32.58    1.17
   5   1  -7   30.96    1.16
  -5  -1   7   31.08    1.17
  -5   1   7   32.68    1.19
   5  -1  -6    0.66    0.29
   5   1  -6    0.38    0.29
  -5  -1   6    0.39    0.31
  -5   1   6    0.66    0.32
   5  -1  -5   29.12    0.96
   5   1  -5   29.38    0.97
  -5  -1   5   30.47    1.01
  -5   1   5   30.01    0.99
   5  -1  -4   49.30    1.19
  -5  -1   4   47.69    1.19
   5   1  -4   47.32    1.14
  -5   1   4   47.57    1.17
   5  -1  -3  283.28    4.01
  -5  -1   3  281.62    4.03
   5   1  -3  276.46    3.95
  -5   1   3  280.05    4.00
   5  -1  -2    8.63    0.37
  -5  -1   2    9.84    0.41
   5   1  -2    8.70    0.35
  -5   1   2    8.38    0.37
  -5  -1   1   66.34    1.08
   5   1  -1   64.65    1.58
   5  -1  -1   65.28    1.05
   5  -1  -1   63.83    1.52
   5   1  -1   61.41    0.98
  -5   1   1   64.59    1.04
   5  -1   0   53.76    1.37
   5  -1   0   52.04    1.37
   5   1   0   50.32    1.37
  -5   1   0   53.36    1.37
  -5  -1   0   54.04    0.81
   5   1   1   -0.11    0.30
   5  -1   1    0.23    0.28
   5  -1   1   -0.01    0.29
  -5   1  -1    0.16    0.27
   5   1   1   -0.14    0.29
  -5  -1  -1    0.23    0.28
  -5  -1  -2  134.28    2.47
  -5   1  -2  136.03    2.54
   5  -1   2  133.22    2.53
   5   1   2  128.64    2.48
  -5  -1  -2  135.20    2.52
  -5   1  -2  135.34    2.52
   5   1   2  129.45    2.49
   5  -1   2  138.24    2.53
  -5   1  -2  129.90    1.85
   5  -1   2  122.41    1.72
  -5  -1  -2  126.91    1.78
  -5   1  -3  577.15    8.07
  -5  -1  -3  554.33    7.24
  -5  -1  -3  568.84    7.96
  -5   1  -3  581.09    8.06
   5   1   3  577.61    8.05
  -5  -1  -3  583.21    8.05
   5  -1   3  578.28    8.02
  -5   1  -3  578.28    7.34
   5   1   3  567.34    7.23
   5  -1   3  555.18    7.20
  -5   1  -4    2.87    0.44
  -5  -1  -4    3.14    0.44
   5  -1   4    1.33    0.24
   5  -1   4    2.71    0.48
  -5  -1  -4    3.15    0.45
   5   1   4    3.37    0.52
  -5   1  -4    2.96    0.47
  -5   1  -4    1.91    0.25
   5   1   4    1.47    0.23
  -5  -1  -5   32.54    0.90
  -5  -1  -5   31.39    1.18
  -5   1  -5   32.06    1.22
  -5  -1  -5   32.14    1.21
   5   1   5   32.46    1.21
   5  -1   5   30.44    1.17
  -5   1  -5   30.71    1.19
  -5   1  -5   32.33    0.94
   5   1   5   32.50    0.90
   5  -1   5   32.41    0.89
  -5  -1  -6    0.33    0.22
  -5  -1  -6    0.69    0.30
  -5  -1  -6    1.30    0.38
  -5   1  -6    0.35    0.32
   5  -1   6    0.66    0.39
   5   1   6    1.06    0.38
  -5   1  -6    0.69    0.25
   5  -1   6    0.34    0.26
   5   1   6    0.59    0.26
  -5  -1  -7    9.32    0.59
   5   1   7    7.72    0.68
   5  -1   7    8.15    0.71
  -5  -1  -7    8.93    0.72
  -5   1  -7    8.65    0.73
  -5   1  -7    9.89    0.62
   5   1   7    9.98    0.60
   5  -1   7    9.54    0.59
  -5  -1  -8    0.02    0.26
   5   1   8    0.61    0.38
   5  -1   8    0.24    0.41
  -5   1  -8    0.17    0.27
   5  -1   8    0.07    0.30
   5   1   8    0.61    0.32
  -5  -1  -9   15.08    0.84
   5   1   9   16.21    1.05
   5  -1   9   15.68    1.03
  -5   1  -9   14.85    0.88
   5   1   9   13.61    0.82
   5  -1   9   15.87    0.88
   5  -1  10    2.93    0.67
   5   1  10    2.83    0.61
   5  -1  10    2.55    0.50
   5   1  10    2.63    0.49
   5  -1  11   49.92    2.00
   5   1  11   46.35    1.94
   5  -1  11   51.30    1.77
   5   1  11   49.79    1.76
   5   1  12    2.06    0.62
   5  -1  12    2.36    0.70
   5   1  12    1.36    0.50
   5  -1  12    1.61    0.49
   5   1  13   -0.17    0.55
   5  -1  13   -0.80    0.62
   5  -1  13    0.26    0.50
   5   1  13   -0.28    0.48
   5  -1  14    2.91    0.70
   5   1  14    2.37    0.63
   5   1  15    2.32    0.69
   5  -1  15    2.96    0.69
   5   1  16    0.81    0.67
   5  -1  16    0.75    0.64
  -5  -2  15    3.20    0.72
  -5   2  15    3.65    0.79
  -5   2  14   57.66    2.30
  -5  -2  14   53.80    2.23
  -5  -2  13    1.67    0.61
  -5   2  13    3.35    0.73
  -5  -2  12    9.91    0.92
  -5   2  12    8.71    0.93
  -5   2  11   17.20    1.12
  -5  -2  11   16.40    1.10
  -5  -2  10    2.61    0.50
  -5   2  10    2.91    0.57
  -5  -2   9   -0.15    0.42
  -5   2   9    0.61    0.40
   5  -2  -8  126.49    2.78
   5   2  -8  127.96    2.74
  -5  -2   8  126.70    2.79
  -5   2   8  123.27    2.75
  -5  -2   7   56.91    1.64
   5  -2  -7   58.12    1.63
   5   2  -7   57.74    1.61
  -5   2   7   57.93    1.63
  -5  -2   6   33.59    1.14
   5  -2  -6   34.29    1.13
   5   2  -6   33.76    1.11
  -5   2   6   34.97    1.15
  -5  -2   5  108.64    2.17
   5  -2  -5  109.52    2.15
   5   2  -5  107.55    2.11
  -5   2   5  108.74    2.15
  -5  -2   4  177.90    2.93
   5  -2  -4  174.98    2.88
   5   2  -4  176.76    2.88
  -5   2   4  173.99    2.88
  -5  -2   3    0.67    0.26
   5  -2  -3    1.15    0.24
   5   2  -3    0.87    0.22
  -5   2   3    0.85    0.26
  -5  -2   2  120.82    1.92
   5   2  -2  112.60    1.83
  -5   2   2  116.88    1.88
   5  -2  -2  117.11    1.87
   5   2  -1   15.76    0.77
   5  -2  -1   16.03    0.70
  -5  -2   1   14.66    0.41
   5   2  -1   14.73    0.42
   5  -2  -1   14.80    0.44
   5  -2  -1   15.62    0.44
  -5   2   1   14.83    0.44
   5   2   0   59.56    1.52
   5  -2   0   61.04    1.50
  -5   2   0   61.62    1.47
   5  -2   0   61.87    1.46
   5  -2   0   60.49    0.98
  -5  -2   0   59.88    0.95
   5  -2   0   62.65    0.94
   5   2   1   20.59    0.84
  -5   2  -1   20.22    0.81
   5   2   1   20.89    0.82
   5  -2   1   19.36    0.82
  -5  -2  -1   21.04    0.84
   5  -2   1   21.35    0.83
  -5   2  -1   18.06    0.48
  -5  -2  -1   17.97    0.47
   5  -2   1   20.74    0.46
  -5  -2  -1   20.15    0.45
   5  -2   1   20.10    0.41
  -5  -2  -2   58.43    1.50
  -5   2  -2   59.91    1.50
  -5   2  -2   58.47    1.53
   5   2   2   57.93    1.47
   5  -2   2   57.12    0.95
   5   2   2   59.31    1.53
   5  -2   2   59.98    1.51
  -5   2  -2   56.56    1.05
  -5  -2  -2   56.80    0.99
   5  -2   3   24.19    0.61
  -5  -2  -3   26.75    1.00
  -5  -2  -3   25.30    0.94
  -5   2  -3   26.90    1.03
   5  -2   3   26.09    0.99
  -5   2  -3   26.03    0.98
   5   2   3   25.34    1.02
  -5   2  -3   24.09    0.68
  -5  -2  -3   24.01    0.64
   5   2   3   24.82    0.64
   5  -2   4  266.65    3.79
  -5   2  -4  270.15    4.52
  -5  -2  -4  267.70    4.34
  -5   2  -4  273.94    4.47
   5   2   4  265.70    4.43
   5  -2   4  271.87    4.45
  -5  -2  -4  265.26    4.41
  -5   2  -4  267.12    3.91
   5   2   4  266.07    3.82
  -5  -2  -4  266.27    3.83
  -5  -2  -5   18.74    0.69
  -5   2  -5   18.41    0.95
  -5  -2  -5   18.66    0.88
   5   2   5   18.95    0.94
  -5  -2  -5   18.75    0.92
   5  -2   5   18.12    0.92
  -5   2  -5   18.69    0.94
  -5   2  -5   18.50    0.71
   5  -2   5   18.64    0.68
   5   2   5   18.09    0.68
  -5  -2  -6   42.45    1.42
  -5  -2  -6   42.30    1.16
   5   2   6   41.77    1.45
  -5  -2  -6   42.90    1.46
   5  -2   6   40.59    1.42
  -5   2  -6   41.10    1.47
  -5   2  -6   42.71    1.23
   5  -2   6   41.62    1.15
   5   2   6   43.04    1.18
   5  -2   7    3.27    0.39
  -5  -2  -7    2.63    0.37
  -5  -2  -7    2.90    0.49
  -5   2  -7    2.86    0.47
   5   2   7    2.59    0.46
   5  -2   7    2.49    0.48
  -5   2  -7    2.45    0.37
   5   2   7    2.83    0.38
   5  -2   8    4.42    0.48
  -5  -2  -8    5.50    0.54
   5  -2   8    4.07    0.55
   5   2   8    4.31    0.59
  -5   2  -8    5.37    0.53
   5   2   8    5.59    0.53
  -5  -2  -9   16.74    0.90
   5   2   9   17.68    1.10
   5  -2   9   15.68    1.05
  -5   2  -9   14.28    0.87
   5  -2   9   16.15    0.94
   5   2   9   16.15    0.91
   5   2  10   26.29    1.38
   5  -2  10   27.72    1.40
   5  -2  10   26.94    1.22
   5   2  10   27.33    1.22
   5  -2  11    1.51    0.60
   5   2  11    1.15    0.56
   5   2  11   -0.27    0.46
   5  -2  11    0.44    0.46
   5  -2  12    4.05    0.77
   5   2  12    4.09    0.70
   5  -2  12    3.73    0.61
   5   2  12    3.25    0.59
   5   2  13    0.80    0.56
   5   2  13    1.24    0.55
   5  -2  13   -0.32    0.51
   5   2  14    0.29    0.53
   5  -2  14   -0.08    0.51
   5   2  15    0.00    0.54
   5  -2  15   -0.66    0.59
   5   2  16   18.29    1.40
   5  -2  16   17.28    1.35
  -5   3  15   12.66    1.18
  -5  -3  15   15.33    1.28
  -5  -3  14   -1.19    0.61
  -5   3  14    0.32    0.55
  -5  -3  13   72.43    2.49
  -5   3  13   73.83    2.53
  -5  -3  12   11.42    1.01
  -5   3  12   11.58    1.02
  -5  -3  11    1.74    0.53
  -5   3  11    1.89    0.56
  -5  -3  10    0.83    0.44
  -5   3  10    1.31    0.46
  -5  -3   9   57.93    1.84
  -5   3   9   56.98    1.83
  -5  -3   8    4.42    0.55
   5  -3  -8    4.80    0.50
   5   3  -8    5.47    0.56
  -5   3   8    4.82    0.57
   5  -3  -7  177.68    3.31
  -5  -3   7  175.02    3.33
   5   3  -7  176.16    3.30
  -5   3   7  172.08    3.30
   5  -3  -6   -0.08    0.26
  -5  -3   6   -0.12    0.36
   5   3  -6    0.22    0.27
  -5   3   6   -0.27    0.30
  -5  -3   5   67.36    1.61
   5   3  -5   65.72    1.56
   5  -3  -5   66.69    1.58
  -5   3   5   62.85    1.58
  -5  -3   4   64.30    1.49
   5   3  -4   63.48    1.44
  -5   3   4   65.13    1.47
   5  -3  -4   64.92    1.45
  -5  -3   3  162.52    2.65
   5   3  -3  157.59    2.58
   5  -3  -3  163.82    2.62
  -5   3   3  162.22    2.63
   5  -3  -2   57.39    1.40
  -5  -3   2   57.31    1.14
   5   3  -2   53.73    1.11
  -5   3   2   54.86    1.14
   5  -3  -2   56.51    1.14
   5  -3  -1  100.57    1.97
   5   3  -1   98.65    2.13
   5   3  -1   98.38    1.63
   5  -3  -1   97.14    1.64
  -5  -3   1   99.41    1.59
  -5   3   1  101.69    1.64
   5  -3  -1   98.26    1.60
   5   3   0    4.98    0.59
   5  -3   0    5.57    0.48
  -5   3   0    5.42    0.45
   5  -3   0    5.05    0.43
  -5  -3   0    5.50    0.29
   5  -3   0    5.36    0.30
   5  -3   0    5.30    0.26
   5   3   0    5.01    0.28
  -5   3  -1   17.29    0.75
   5   3   1   16.61    0.74
   5  -3   1   17.00    0.78
  -5  -3  -1   17.73    0.78
   5   3   1   16.85    0.79
   5  -3   1   17.92    0.74
  -5   3  -1   16.74    0.53
  -5  -3  -1   16.38    0.52
   5  -3   1   18.51    0.51
   5  -3   1   18.23    0.48
  -5  -3  -1   17.85    0.51
   5   3   2   -0.02    0.27
  -5   3  -2   -0.23    0.30
   5  -3   2    0.07    0.27
  -5  -3  -2    0.04    0.27
  -5   3  -2   -0.13    0.31
   5   3   2   -0.12    0.30
  -5   3  -2    0.12    0.16
   5  -3   2    0.08    0.17
  -5  -3  -2    0.62    0.20
  -5  -3  -2   -0.04    0.15
   5  -3   3  365.28    4.86
  -5  -3  -3  359.63    5.37
  -5  -3  -3  364.17    5.52
  -5   3  -3  357.61    5.61
   5  -3   3  361.77    5.47
  -5   3  -3  362.38    5.52
   5   3   3  356.84    5.52
  -5   3  -3  359.64    4.96
  -5  -3  -3  357.48    4.91
   5   3   3  363.20    4.93
   5  -3   4    6.27    0.40
  -5  -3  -4    6.81    0.52
  -5   3  -4    7.46    0.63
   5   3   4    6.93    0.61
   5  -3   4    6.20    0.58
  -5   3  -4    7.25    0.59
  -5  -3  -4    6.44    0.56
  -5   3  -4    6.05    0.41
  -5  -3  -4    6.61    0.40
   5   3   4    6.14    0.40
  -5  -3  -5   16.29    0.81
   5  -3   5   17.02    0.67
  -5   3  -5   15.17    0.87
  -5  -3  -5   17.50    0.87
   5  -3   5   16.64    0.88
   5   3   5   16.09    0.87
  -5   3  -5   16.92    0.89
  -5   3  -5   16.47    0.69
   5   3   5   17.31    0.68
  -5  -3  -5   17.47    0.67
  -5  -3  -6    2.54    0.34
  -5  -3  -6    1.92    0.40
   5  -3   6    2.13    0.35
   5   3   6    1.85    0.41
  -5  -3  -6    1.63    0.39
  -5   3  -6    1.86    0.41
   5  -3   6    2.01    0.43
  -5   3  -6    1.93    0.34
   5   3   6    2.16    0.33
  -5  -3  -7   -0.21    0.34
   5  -3   7   -0.23    0.28
  -5  -3  -7   -0.02    0.24
   5  -3   7   -0.37    0.40
  -5  -3  -7    0.24    0.30
   5   3   7    0.65    0.36
  -5   3  -7    0.17    0.26
   5   3   7    0.28    0.28
   5  -3   8    0.35    0.33
  -5  -3  -8    0.54    0.30
   5  -3   8    0.82    0.43
   5   3   8    0.70    0.41
  -5   3  -8    0.67    0.32
   5   3   8    0.37    0.32
  -5  -3  -9   88.38    2.20
   5   3   9   82.23    2.43
   5  -3   9   82.23    2.47
  -5   3  -9   83.03    2.21
   5   3   9   87.89    2.19
   5  -3   9   85.33    2.20
   5   3  10    4.60    0.70
   5  -3  10    4.54    0.69
   5  -3  10    3.11    0.55
   5   3  10    3.91    0.57
   5   3  11   29.36    1.54
   5  -3  11   25.32    1.47
   5  -3  11   29.38    1.36
   5   3  11   29.27    1.36
   5   3  12    3.93    0.76
   5  -3  12    2.78    0.73
   5   3  12    3.29    0.61
   5  -3  12    3.27    0.61
   5   3  13    2.94    0.73
   5   3  13    3.72    0.71
   5  -3  13    2.57    0.62
   5  -3  14    0.82    0.58
   5   3  14   -0.05    0.54
   5  -3  15    1.28    0.67
   5   3  15    1.72    0.65
   5  -3  16    0.32    0.64
  -5  -4  15   -0.58    0.67
  -5   4  15    1.18    0.70
  -5  -4  14   39.11    1.88
  -5   4  14   42.16    1.97
  -5  -4  13    9.80    1.03
  -5   4  13    9.43    1.04
  -5   4  12   48.42    1.94
  -5  -4  12   46.29    1.91
  -5  -4  11   -0.27    0.50
  -5   4  11   -0.38    0.48
  -5  -4  10    0.44    0.43
  -5   4  10    0.69    0.44
  -5  -4   9   16.70    0.99
  -5   4   9   16.43    1.01
  -5  -4   8  156.05    3.24
   5  -4  -8  156.11    3.22
   5   4  -8  157.51    3.23
  -5   4   8  154.44    3.21
  -5  -4   7   12.01    0.78
   5   4  -7   10.34    0.70
   5  -4  -7   11.96    0.74
  -5   4   7   11.07    0.74
  -5  -4   6  112.66    2.39
   5   4  -6  114.63    2.39
   5  -4  -6  110.86    2.35
  -5   4   6  109.03    2.36
  -5  -4   5   24.64    0.94
   5   4  -5   24.89    0.93
   5  -4  -5   24.61    0.91
  -5   4   5   23.79    0.92
  -5  -4   4   21.48    0.83
   5   4  -4   20.68    0.80
  -5   4   4   22.98    0.84
   5  -4  -4   23.11    0.82
   5   4  -3    1.13    0.24
  -5  -4   3    1.24    0.26
  -5   4   3    1.25    0.29
   5  -4  -3    1.44    0.23
   5  -4  -2  137.68    2.44
   5   4  -2  132.64    2.24
  -5  -4   2  135.87    2.22
  -5   4   2  136.16    2.26
   5  -4  -2  136.39    2.22
   5  -4  -1   26.44    0.93
   5  -4  -1   26.52    0.88
   5   4  -1   25.78    0.77
   5  -4  -1   26.91    0.78
  -5  -4   1   26.75    0.72
   5  -4  -1   26.92    0.70
   5   4   0   37.39    1.19
   5  -4   0   39.51    1.17
  -5   4   0   35.91    1.08
   5  -4   0   38.55    1.08
  -5  -4   0   38.79    0.89
   5  -4   0   34.86    0.88
   5   4   0   37.79    0.88
   5  -4   0   37.76    0.84
  -5  -4  -1    3.92    0.41
   5  -4   1    4.91    0.47
   5   4   1    3.82    0.41
  -5   4  -1    4.87    0.46
   5  -4   1    4.54    0.43
   5   4   1    4.09    0.45
  -5   4  -1    4.71    0.42
   5  -4   1    4.25    0.30
  -5  -4  -1    4.15    0.32
  -5   4  -1    3.73    0.31
  -5  -4  -1    4.08    0.30
  -5   4  -2   19.88    0.84
   5   4   2   18.92    0.79
  -5   4  -2   21.29    0.91
  -5  -4  -2   20.35    0.86
   5   4   2   19.60    0.86
   5  -4   2   20.03    0.82
  -5   4  -2   20.05    0.67
  -5  -4  -2   20.97    0.65
   5  -4   2   20.70    0.64
  -5  -4  -2   19.81    0.61
  -5   4  -3    5.24    0.53
  -5  -4  -3    4.95    0.43
   5   4   3    5.23    0.55
  -5  -4  -3    4.42    0.46
   5  -4   3    4.79    0.48
  -5   4  -3    5.19    0.49
  -5   4  -3    4.89    0.37
   5  -4   3    4.45    0.36
  -5  -4  -3    5.30    0.36
   5  -4   4  252.54    3.68
  -5  -4  -4  239.52    3.97
  -5  -4  -4  246.58    4.16
  -5   4  -4  246.66    4.33
   5  -4   4  243.86    4.13
  -5   4  -4  250.23    4.22
   5   4   4  235.24    4.13
  -5   4  -4  243.69    3.76
  -5  -4  -4  245.26    3.70
   5   4   4  247.75    3.73
  -5  -4  -5    7.37    0.55
  -5   4  -5    7.29    0.65
   5  -4   5    7.36    0.49
  -5  -4  -5    6.20    0.56
   5  -4   5    6.92    0.61
  -5   4  -5    6.88    0.61
   5   4   5    6.45    0.61
  -5   4  -5    6.73    0.48
  -5  -4  -5    7.88    0.49
   5   4   5    7.35    0.49
  -5  -4  -6    0.29    0.26
  -5  -4  -6   -0.05    0.24
   5  -4   6    0.03    0.28
   5   4   6    0.22    0.31
  -5   4  -6    0.80    0.37
   5  -4   6    0.22    0.35
  -5  -4  -6    0.37    0.29
  -5   4  -6    0.33    0.25
   5   4   6    0.04    0.27
   5  -4   7    7.87    0.59
  -5  -4  -7    6.68    0.59
   5  -4   7    7.06    0.67
   5   4   7    7.13    0.67
  -5  -4  -7    6.74    0.64
  -5   4  -7    7.14    0.58
   5   4   7    8.02    0.60
  -5  -4  -7    7.44    0.56
  -5  -4  -8   13.02    0.85
  -5  -4  -8   14.51    0.81
   5  -4   8   13.69    0.80
   5  -4   8   13.90    0.97
   5   4   8   12.19    0.88
  -5   4  -8   14.59    0.85
   5   4   8   13.70    0.80
   5  -4   9   11.39    0.95
   5   4   9   10.05    0.86
  -5  -4  -9   10.77    0.76
   5  -4   9   11.61    0.82
   5   4   9   11.45    0.82
   5   4  10   12.79    1.01
   5  -4  10   13.73    1.04
   5  -4  10   12.68    0.88
   5   4  10   13.60    0.90
   5  -4  11    1.07    0.54
   5   4  11    1.28    0.58
   5  -4  11    1.74    0.51
   5   4  11    0.64    0.45
   5   4  12   17.29    1.26
   5  -4  12   16.38    1.26
   5  -4  12   16.41    1.10
   5   4  12   14.97    1.06
   5   4  13    0.63    0.51
   5  -4  13   -0.11    0.49
   5   4  13   -0.13    0.48
   5   4  14    0.56    0.57
   5  -4  14    0.43    0.53
   5  -4  15   -0.15    0.54
   5   4  15    0.09    0.55
  -5  -5  15    3.24    0.77
  -5   5  15    4.52    0.87
  -5  -5  14    1.24    0.63
  -5   5  14    1.27    0.68
  -5   5  13   51.14    2.12
  -5  -5  13   52.51    2.12
  -5  -5  12    2.49    0.68
  -5   5  12    2.45    0.63
  -5  -5  11   -0.37    0.49
  -5   5  11   -0.49    0.51
  -5  -5  10   15.55    1.02
  -5   5  10   15.90    1.05
  -5  -5   9    3.24    0.55
  -5   5   9    3.92    0.58
  -5  -5   8    0.79    0.42
   5  -5  -8    1.63    0.43
   5   5  -8    1.29    0.40
  -5   5   8    1.21    0.45
  -5  -5   7   32.48    1.25
   5   5  -7   34.11    1.25
  -5   5   7   32.50    1.27
   5  -5  -7   31.43    1.21
  -5  -5   6    2.13    0.42
   5  -5  -6    2.56    0.41
   5   5  -6    2.21    0.40
  -5   5   6    2.31    0.41
  -5  -5   5  136.37    2.66
   5   5  -5  140.73    2.68
  -5   5   5  135.46    2.68
   5  -5  -5  140.28    2.66
   5   5  -4   47.52    1.30
  -5  -5   4   49.35    1.29
  -5   5   4   49.28    1.32
   5  -5  -4   48.72    1.28
   5   5  -3   29.23    0.92
  -5  -5   3   31.38    0.95
  -5   5   3   31.46    0.97
   5  -5  -3   30.01    0.91
   5  -5  -2    5.06    0.39
  -5  -5   2    5.46    0.40
   5   5  -2    5.27    0.39
   5  -5  -2    4.77    0.35
   5  -5  -2    4.54    0.36
  -5   5   2    5.75    0.41
   5  -5  -1   96.04    1.99
   5  -5  -1   94.09    1.84
  -5  -5   1   95.10    1.75
   5  -5  -1   90.60    1.83
   5   5  -1   91.00    1.82
   5  -5  -1   94.09    1.71
  -5   5   0    4.37    0.40
   5  -5   0    5.15    0.47
   5   5   0    4.02    0.46
   5  -5   0    4.08    0.38
  -5  -5   0    4.52    0.36
   5  -5   0    3.63    0.32
   5   5   0    4.18    0.34
   5  -5   0    4.66    0.34
   5  -5   1   30.75    1.05
   5   5   1   26.57    1.01
  -5   5  -1   29.37    1.05
   5   5   1   26.85    0.92
  -5   5  -1   27.80    0.95
   5  -5   1   31.14    0.98
   5  -5   1   32.66    0.88
  -5  -5  -1   29.98    0.89
  -5   5  -1   29.69    0.89
  -5  -5  -1   29.20    0.85
  -5  -5  -2    4.21    0.42
   5   5   2    3.43    0.38
  -5   5  -2    4.01    0.44
   5  -5   2    3.62    0.39
  -5   5  -2    3.08    0.38
   5   5   2    3.59    0.44
   5  -5   2    4.03    0.34
  -5   5  -2    3.95    0.35
  -5  -5  -2    4.16    0.34
  -5  -5  -2    4.63    0.38
  -5  -5  -3  104.63    2.23
  -5   5  -3  104.29    2.37
   5  -5   3  105.13    2.21
   5   5   3  101.83    2.25
  -5   5  -3  100.70    2.23
   5  -5   3  106.76    1.97
  -5   5  -3  108.06    2.02
  -5  -5  -3  106.74    1.94
  -5  -5  -3  105.65    1.98
  -5  -5  -4    5.41    0.47
  -5   5  -4    5.95    0.61
  -5  -5  -4    5.19    0.51
   5   5   4    5.57    0.57
   5  -5   4    5.30    0.54
  -5   5  -4    5.58    0.53
  -5   5  -4    5.68    0.45
   5  -5   4    5.66    0.45
   5   5   4    5.98    0.46
  -5  -5  -4    6.08    0.44
  -5   5  -5   82.79    2.21
   5  -5   5   85.63    1.80
  -5  -5  -5   81.66    1.91
   5   5   5   78.70    2.04
   5  -5   5   83.75    2.07
  -5   5  -5   87.36    2.16
  -5  -5  -5   86.05    2.08
  -5   5  -5   82.78    1.86
  -5  -5  -5   86.08    1.82
   5   5   5   86.11    1.84
   5  -5   6    5.04    0.47
  -5  -5  -6    5.34    0.50
   5   5   6    4.59    0.55
  -5   5  -6    5.42    0.58
  -5  -5  -6    4.27    0.51
   5  -5   6    4.75    0.57
  -5   5  -6    5.14    0.48
   5   5   6    4.24    0.46
  -5  -5  -6    4.93    0.46
  -5  -5  -7    0.34    0.29
  -5  -5  -7    0.11    0.27
   5  -5   7    0.11    0.30
   5   5   7    0.29    0.35
   5  -5   7    0.47    0.39
  -5  -5  -7    0.02    0.27
  -5   5  -7    0.02    0.28
   5   5   7    0.21    0.31
   5  -5   8   -0.67    0.37
  -5  -5  -8    0.11    0.28
  -5  -5  -8   -0.04    0.30
   5  -5   8    0.40    0.37
   5   5   8    0.16    0.40
  -5   5  -8   -0.04    0.30
   5   5   8    0.02    0.33
   5   5   9    0.69    0.42
   5  -5   9    0.41    0.41
  -5  -5  -9    0.95    0.38
   5  -5   9   -0.22    0.38
   5   5   9   -0.55    0.38
   5  -5  10    3.47    0.65
   5   5  10    2.93    0.63
   5  -5  10    3.29    0.55
   5   5  10    3.14    0.56
   5   5  11   19.51    1.26
   5  -5  11   18.70    1.29
   5  -5  11   18.67    1.12
   5   5  11   21.93    1.23
   5  -5  12    0.18    0.44
   5   5  12    0.58    0.49
   5   5  13    0.59    0.59
   5  -5  13    0.41    0.51
   5   5  13   -0.07    0.53
   5  -5  14    4.86    0.81
   5   5  14    2.94    0.71
   5  -5  15    9.09    1.01
   5   5  15    9.35    1.05
  -5  -6  14    6.74    0.93
  -5   6  14    6.63    0.91
  -5  -6  13   12.05    1.11
  -5   6  13   12.91    1.14
  -5  -6  12   60.97    2.20
  -5   6  12   60.84    2.24
  -5  -6  11    0.51    0.48
  -5   6  11    0.33    0.47
  -5  -6  10   36.63    1.58
  -5   6  10   39.79    1.63
  -5  -6   9    1.30    0.48
  -5   6   9    0.90    0.45
  -5  -6   8   46.82    1.64
  -5   6   8   47.48    1.64
  -5  -6   7   32.69    1.29
   5   6  -7   35.17    1.32
   5  -6  -7   34.59    1.29
  -5   6   7   32.87    1.30
  -5  -6   6    9.19    0.68
   5   6  -6   10.19    0.69
  -5   6   6   10.40    0.69
   5  -6  -6   11.26    0.68
   5   6  -5    9.69    0.63
  -5  -6   5    8.67    0.60
  -5   6   5    8.61    0.62
   5  -6  -5    9.87    0.61
   5   6  -4    2.84    0.37
  -5  -6   4    3.04    0.38
   5  -6  -4    3.11    0.37
  -5   6   4    2.95    0.40
   5  -6  -3    5.09    0.41
  -5  -6   3    4.95    0.43
   5   6  -3    3.90    0.39
  -5   6   3    4.77    0.45
   5  -6  -3    4.77    0.40
   5  -6  -2    1.97    0.29
   5   6  -2    1.87    0.31
  -5  -6   2    2.04    0.32
   5  -6  -2    2.05    0.34
   5  -6  -2    1.84    0.28
   5  -6  -1    0.94    0.27
   5  -6  -1    0.86    0.24
   5  -6  -1    1.10    0.34
   5   6  -1    0.90    0.27
  -5  -6   1    0.83    0.26
   5  -6  -1    0.79    0.23
  -5   6   0   10.78    0.56
   5  -6   0   10.48    0.62
   5   6   0   10.72    0.66
   5  -6   0   11.58    0.57
  -5  -6   0   10.82    0.56
   5  -6   0   10.26    0.56
  -5   6   0   10.75    0.56
   5   6   0   10.41    0.54
   5  -6   0   11.39    0.53
  -5   6  -1    0.27    0.26
   5   6   1    0.54    0.24
   5  -6   1    0.29    0.23
  -5   6  -1    0.59    0.26
   5   6   1    0.45    0.28
  -5  -6  -1    0.62    0.24
   5  -6   1    1.28    0.31
  -5   6  -1    0.36    0.24
  -5  -6  -1    0.32    0.21
  -5   6  -2   31.63    1.15
  -5  -6  -2   31.58    1.08
   5   6   2   28.01    0.93
   5   6   2   27.52    1.05
   5  -6   2   32.31    1.04
  -5   6  -2   29.75    1.02
  -5  -6  -2   32.26    0.99
  -5   6  -2   31.62    1.03
   5  -6   2   32.89    0.97
  -5  -6  -2   31.15    0.94
  -5  -6  -3   28.41    1.05
  -5   6  -3   29.39    1.17
   5  -6   3   29.98    1.06
   5   6   3   26.42    1.04
  -5   6  -3   28.80    1.07
   5  -6   3   27.93    0.92
  -5   6  -3   29.79    0.97
  -5  -6  -3   27.84    0.90
  -5  -6  -3   30.29    0.96
  -5  -6  -4  231.77    3.78
  -5   6  -4  240.04    4.29
  -5  -6  -4  232.56    4.01
   5   6   4  215.76    3.96
   5  -6   4  236.07    4.01
  -5   6  -4  235.57    4.08
   5  -6   4  238.24    3.79
  -5   6  -4  237.59    3.84
  -5  -6  -4  238.22    3.75
  -5  -6  -5   10.85    0.72
  -5  -6  -5   11.22    0.64
  -5   6  -5   12.05    0.85
   5  -6   5   10.76    0.75
   5   6   5   10.27    0.72
  -5   6  -5   10.46    0.75
  -5   6  -5   11.48    0.67
   5  -6   5   10.99    0.67
   5   6   5   11.04    0.66
  -5  -6  -5   11.62    0.63
  -5  -6  -6    2.13    0.37
   5  -6   6    2.31    0.39
   5   6   6    1.75    0.39
   5  -6   6    2.18    0.45
  -5   6  -6    2.66    0.46
  -5  -6  -6    2.60    0.42
  -5   6  -6    2.02    0.37
  -5  -6  -6    2.83    0.40
   5   6   6    2.36    0.41
   5  -6   7    0.09    0.30
  -5  -6  -7    0.10    0.28
   5   6   7    0.25    0.37
  -5  -6  -7    0.11    0.29
   5  -6   7    0.39    0.35
  -5   6  -7   -0.13    0.30
  -5  -6  -7    0.06    0.28
   5   6   7    0.67    0.37
  -5  -6  -8   19.93    1.00
   5  -6   8   20.49    1.02
   5  -6   8   20.37    1.13
   5   6   8   18.43    1.06
  -5   6  -8   20.32    1.03
  -5  -6  -8   21.33    1.01
   5   6   8   20.22    1.02
   5   6   9   12.21    0.93
   5  -6   9   11.92    0.94
   5  -6   9   13.15    0.86
  -5  -6  -9   12.51    0.85
   5   6   9   13.23    0.88
   5   6  10   25.61    1.37
   5  -6  10   24.89    1.39
   5  -6  10   25.12    1.23
   5   6  10   26.43    1.28
   5  -6  11    1.35    0.58
   5   6  11    0.99    0.51
   5  -6  11    1.22    0.53
   5   6  11    1.73    0.54
   5   6  12   11.68    1.07
   5   6  12   11.84    1.00
   5  -6  12   14.22    1.07
   5   6  13    0.20    0.54
   5  -6  13   -0.14    0.49
   5   6  13   -0.10    0.52
   5  -6  14    4.92    0.81
   5   6  14    4.39    0.81
   5  -6  15    2.96    0.73
   5   6  15    4.12    0.82
  -5  -7  14    3.40    0.77
  -5   7  14    6.20    0.91
  -5  -7  13   35.97    1.79
  -5   7  13   37.27    1.83
  -5  -7  12    3.34    0.71
  -5   7  12    2.36    0.64
  -5  -7  11    1.49    0.52
  -5   7  11    1.88    0.59
  -5  -7  10    7.75    0.80
  -5   7  10    8.38    0.83
  -5  -7   9   64.59    2.06
  -5   7   9   69.82    2.15
  -5  -7   8   29.59    1.30
  -5   7   8   30.46    1.35
  -5  -7   7   31.13    1.27
   5   7  -7   31.75    1.30
  -5   7   7   33.16    1.32
   5  -7  -7   33.34    1.28
  -5  -7   6    1.44    0.38
   5   7  -6    2.07    0.41
   5  -7  -6    1.79    0.35
  -5   7   6    1.97    0.43
  -5  -7   5    1.18    0.34
   5   7  -5    1.00    0.32
   5  -7  -5    0.84    0.28
  -5   7   5    1.30    0.38
  -5  -7   4    9.52    0.62
   5   7  -4    9.22    0.61
   5  -7  -4   10.14    0.62
  -5   7   4    9.73    0.65
   5  -7  -3  135.27    2.36
  -5  -7   3  132.67    2.54
   5   7  -3  128.53    2.57
   5  -7  -3  133.91    2.59
   5  -7  -3  133.73    2.52
  -5   7   3  134.57    2.60
   5  -7  -2  116.69    2.33
   5  -7  -2  120.85    2.15
   5  -7  -2  120.35    2.38
   5   7  -2  118.54    2.37
  -5  -7   2  120.58    2.33
   5  -7  -2  118.80    2.27
   5  -7  -1   73.90    1.71
   5   7  -1   72.24    1.80
   5  -7  -1   73.50    1.53
   5   7  -1   70.87    1.73
   5  -7  -1   73.10    1.77
  -5  -7   1   74.02    1.67
   5  -7  -1   71.39    1.61
  -5   7   0   26.23    0.88
   5  -7   0   26.71    0.97
   5   7   0   26.65    1.01
   5  -7   0   26.37    0.85
  -5  -7   0   26.78    0.95
   5  -7   0   27.54    0.96
   5  -7   0   28.13    0.93
   5   7   0   26.25    0.92
  -5   7   0   24.72    0.91
  -5   7  -1    4.25    0.43
   5   7   1    3.71    0.35
  -5   7  -1    3.96    0.38
   5  -7   1    3.51    0.35
   5   7   1    3.53    0.41
  -5  -7  -1    3.56    0.40
   5  -7   1    4.20    0.43
  -5   7  -1    3.75    0.40
  -5  -7  -1    3.64    0.39
  -5   7  -2   11.53    0.72
   5   7   2   11.33    0.58
   5  -7   2   12.10    0.64
  -5   7  -2   11.19    0.63
   5   7   2    9.99    0.64
   5  -7   2   11.60    0.63
  -5  -7  -2   11.40    0.66
  -5   7  -2   13.10    0.72
  -5  -7  -2   11.75    0.62
  -5   7  -3   99.29    2.35
  -5  -7  -3   98.45    2.16
   5   7   3   92.96    2.15
   5  -7   3  101.94    2.15
  -5   7  -3   95.76    2.16
  -5   7  -3   98.47    2.11
   5  -7   3  101.97    2.07
  -5  -7  -3   98.52    2.06
  -5  -7  -3   97.48    2.02
  -5   7  -4    1.49    0.43
   5  -7   4    2.29    0.44
   5   7   4    2.09    0.44
  -5  -7  -4    1.73    0.37
  -5   7  -4    2.25    0.44
   5  -7   4    1.65    0.37
  -5   7  -4    1.27    0.34
  -5  -7  -4    1.67    0.34
  -5  -7  -4    1.46    0.38
  -5  -7  -5  184.92    3.45
  -5  -7  -5  174.22    3.14
  -5   7  -5  187.74    3.77
   5   7   5  172.37    3.41
   5  -7   5  180.85    3.48
  -5   7  -5  180.43    3.55
   5  -7   5  186.97    3.33
  -5   7  -5  184.01    3.35
   5   7   5  185.51    3.33
  -5  -7  -5  184.88    3.26
   5  -7   6   17.83    0.85
  -5  -7  -6   15.22    0.77
   5  -7   6   16.41    0.94
  -5  -7  -6   15.91    0.88
   5   7   6   14.94    0.88
  -5   7  -6   17.45    0.99
  -5   7  -6   17.26    0.89
   5  -7   6   16.33    0.86
  -5  -7  -6   16.48    0.81
   5   7   6   17.97    0.88
   5  -7   7   -0.12    0.34
  -5  -7  -7   -0.62    0.34
   5   7   7   -0.63    0.39
  -5  -7  -7   -0.03    0.31
   5  -7   7   -0.13    0.41
  -5   7  -7    0.00    0.30
   5   7   7    0.36    0.36
  -5  -7  -7    0.19    0.30
   5   7   8    8.46    0.74
   5  -7   8    9.16    0.82
  -5  -7  -8    9.39    0.70
   5  -7   8   10.10    0.75
  -5  -7  -8   10.22    0.73
   5   7   8    9.68    0.74
   5  -7   9   15.45    1.08
   5   7   9   17.96    1.10
   5  -7   9   17.92    1.02
  -5  -7  -9   18.01    1.00
   5   7   9   19.54    1.09
   5   7  10    3.27    0.61
   5  -7  10    3.17    0.69
   5  -7  10    2.93    0.58
   5   7  10    3.27    0.62
   5   7  11   20.80    1.30
   5  -7  11   18.94    1.16
   5   7  11   20.62    1.21
   5   7  12    0.73    0.57
   5  -7  12   -0.02    0.48
   5   7  12    0.23    0.48
   5   7  13    0.14    0.52
   5  -7  13    0.44    0.52
   5   7  13    0.25    0.51
   5  -7  14   -0.28    0.53
   5   7  14    1.28    0.65
   5  -7  15    1.33    0.63
   5   7  15   -0.03    0.56
  -5  -8  14   26.28    1.61
  -5   8  14   25.61    1.64
  -5  -8  13    4.75    0.83
  -5   8  13    3.74    0.74
  -5  -8  12    4.34    0.76
  -5   8  12    0.89    0.56
  -5  -8  11    0.55    0.52
  -5   8  11    0.62    0.50
   5  -8 -10    3.89    0.55
  -5  -8  10    4.60    0.68
  -5   8  10    4.59    0.73
  -5  -8   9    1.45    0.49
  -5   8   9    1.68    0.52
  -5  -8   8   86.64    2.38
  -5   8   8   88.37    2.42
  -5  -8   7   57.33    1.80
  -5   8   7   58.26    1.85
   5   8  -6   11.39    0.76
  -5  -8   6   10.70    0.75
   5  -8  -6   10.27    0.68
  -5   8   6   11.11    0.78
  -5  -8   5    2.41    0.41
   5   8  -5    2.64    0.43
  -5   8   5    2.40    0.46
   5  -8  -5    2.47    0.38
  -5  -8   4   88.31    2.06
   5   8  -4   86.63    2.09
   5  -8  -4   86.66    2.11
   5  -8  -4   87.09    2.01
  -5   8   4   88.17    2.10
   5  -8  -3   16.09    0.64
   5   8  -3   15.86    0.81
  -5  -8   3   16.05    0.81
   5  -8  -3   15.80    0.76
   5  -8  -3   14.96    0.78
   5  -8  -2   38.28    0.99
   5  -8  -2   39.02    1.18
  -5  -8   2   40.62    1.24
   5   8  -2   37.78    1.28
   5  -8  -2   37.84    1.27
   5  -8  -2   40.08    1.20
   5  -8  -1    0.42    0.25
   5   8  -1    1.08    0.35
   5  -8  -1    0.60    0.22
   5  -8  -1    0.77    0.37
  -5  -8   1    0.96    0.34
   5   8  -1    0.69    0.31
   5  -8  -1    0.66    0.30
   5   8   0   56.33    1.53
  -5   8   0   57.43    1.36
   5  -8   0   56.30    1.49
   5  -8   0   56.84    1.30
  -5  -8   0   52.66    1.47
   5  -8   0   55.19    1.52
   5   8   0   56.74    1.50
  -5   8   0   51.18    1.46
   5  -8   0   56.24    1.47
  -5   8  -1   18.81    0.78
  -5   8  -1   19.07    0.87
   5   8   1   18.41    0.72
   5   8   1   17.99    0.83
   5  -8   1   19.63    0.75
  -5  -8  -1   19.38    0.86
   5  -8   1   18.48    0.83
  -5   8  -1   19.93    0.87
  -5  -8  -1   18.63    0.83
  -5   8  -2  262.30    4.39
   5   8   2  255.28    3.89
  -5   8  -2  246.59    4.08
   5  -8   2  259.19    4.04
   5   8   2  238.42    4.12
  -5   8  -2  249.75    4.31
   5  -8   2  261.19    4.16
  -5  -8  -2  248.61    4.24
  -5  -8  -2  254.85    4.14
  -5   8  -3   98.02    2.36
  -5  -8  -3   92.46    2.11
  -5   8  -3   95.14    2.15
   5  -8   3   98.35    2.10
   5   8   3   93.10    2.14
  -5  -8  -3   93.29    2.13
  -5   8  -3   93.86    2.19
   5  -8   3   99.03    2.13
  -5  -8  -3   96.49    2.08
  -5  -8  -4  222.02    3.92
  -5   8  -4  239.26    4.31
   5   8   4  222.66    3.95
  -5   8  -4  225.06    4.03
   5  -8   4  224.50    3.94
   5  -8   4  230.31    3.91
  -5   8  -4  232.58    3.99
  -5  -8  -4  229.20    3.86
  -5  -8  -4  224.49    3.91
  -5   8  -5   11.99    0.88
  -5  -8  -5   13.05    0.77
   5  -8   5   12.15    0.79
   5   8   5   12.58    0.78
  -5   8  -5   11.99    0.82
   5  -8   5   11.49    0.73
  -5   8  -5   12.04    0.76
  -5  -8  -5   12.30    0.80
  -5  -8  -5   12.78    0.74
  -5  -8  -6   31.10    1.08
  -5  -8  -6   29.96    1.22
   5   8   6   30.87    1.25
   5  -8   6   31.95    1.30
  -5   8  -6   32.70    1.36
  -5   8  -6   31.96    1.25
   5  -8   6   31.94    1.24
   5   8   6   32.84    1.26
  -5  -8  -6   32.55    1.20
  -5  -8  -7   12.73    0.74
   5  -8   7   15.26    0.86
  -5  -8  -7   13.02    0.85
   5  -8   7   12.73    0.89
   5   8   7   14.09    0.87
  -5   8  -7   14.11    0.87
  -5  -8  -7   14.91    0.85
   5   8   7   14.05    0.87
   5  -8   8    1.52    0.48
   5   8   8    0.63    0.36
   5  -8   8    1.23    0.42
  -5  -8  -8    1.20    0.36
   5   8   8    1.03    0.45
   5  -8   9    7.55    0.82
   5   8   9    6.79    0.71
  -5  -8  -9    6.96    0.64
   5  -8   9    6.91    0.70
   5   8   9    7.27    0.73
   5  -8  10   24.13    1.39
   5   8  10   26.82    1.38
   5  -8  10   25.82    1.30
   5   8  10   27.37    1.38
   5   8  11    1.46    0.55
   5  -8  11    0.53    0.46
   5   8  11    0.66    0.52
   5   8  12   14.70    1.17
   5  -8  12   15.31    1.13
   5   8  12   16.00    1.20
   5  -8  13    2.19    0.63
   5   8  13    1.20    0.61
   5  -8  14    0.10    0.55
   5   8  14    0.85    0.63
   5  -8  15    1.10    0.62
  -5  -9  14    0.74    0.64
  -5   9  14   -0.17    0.63
  -5  -9  13   11.84    1.11
  -5   9  13   13.84    1.24
  -5  -9  12    8.55    0.96
  -5   9  12    9.31    1.01
  -5  -9  11    3.90    0.73
  -5   9  11    3.75    0.70
   5  -9 -10    1.09    0.38
  -5  -9  10    0.62    0.49
  -5   9  10    0.42    0.47
   5  -9  -9    1.69    0.40
  -5  -9   9    1.47    0.52
  -5   9   9    2.08    0.55
  -5  -9   8   11.24    0.90
  -5   9   8   10.98    0.91
  -5  -9   7  197.57    3.95
  -5   9   7  213.36    4.15
   5   9  -6    8.45    0.71
  -5  -9   6    7.50    0.67
  -5   9   6    7.32    0.72
   5   9  -5    0.18    0.30
  -5  -9   5    0.23    0.33
  -5   9   5   -0.04    0.40
   5  -9  -5   -0.34    0.33
   5  -9  -4   22.37    0.76
  -5  -9   4   20.92    0.99
   5   9  -4   21.46    1.02
   5  -9  -4   21.34    1.01
   5  -9  -4   21.84    0.97
  -5   9   4   20.67    1.02
   5  -9  -3  116.76    2.34
   5  -9  -3  120.98    2.08
   5   9  -3  111.52    2.52
   5  -9  -3  116.66    2.56
  -5  -9   3  117.10    2.54
   5  -9  -3  116.64    2.47
   5  -9  -2   31.56    1.06
   5  -9  -2   33.16    0.90
  -5  -9   2   33.40    1.20
   5  -9  -2   32.34    1.25
   5   9  -2   32.83    1.26
   5  -9  -2   33.16    1.15
   5   9  -1  195.74    3.51
   5  -9  -1  194.00    3.38
   5  -9  -1  194.57    3.05
  -5  -9   1  185.60    3.48
   5   9  -1  201.80    3.63
   5  -9  -1  196.90    3.63
   5  -9  -1  196.72    3.50
   5   9   0   49.22    1.41
  -5   9   0   46.80    1.19
   5  -9   0   48.12    1.16
  -5  -9   0   42.76    1.38
   5  -9   0   45.17    1.43
   5   9   0   45.29    1.39
  -5   9   0   43.39    1.39
   5  -9   0   43.13    1.36
  -5   9  -1   28.90    1.10
   5   9   1   26.97    1.03
  -5   9  -1   28.32    0.95
   5   9   1   26.99    0.86
   5  -9   1   29.06    0.93
  -5  -9  -1   28.66    1.10
  -5   9  -1   28.39    1.10
   5  -9   1   28.23    1.09
  -5  -9  -1   26.09    1.06
   5   9   2    0.44    0.23
  -5   9  -2    0.22    0.29
   5  -9   2    0.80    0.31
  -5   9  -2   -0.20    0.25
   5   9   2    0.20    0.27
  -5  -9  -2   -0.95    0.44
   5  -9   2   -0.39    0.39
  -5  -9  -2    0.06    0.28
  -5   9  -2    0.25    0.30
  -5   9  -3  122.42    2.73
   5  -9   3  120.79    2.44
  -5   9  -3  116.42    2.48
   5   9   3  121.61    2.51
  -5  -9  -3  115.70    2.59
  -5   9  -3  121.71    2.70
   5  -9   3  119.99    2.54
  -5  -9  -3  120.33    2.52
  -5   9  -4   40.43    1.51
  -5  -9  -4   36.09    1.26
   5  -9   4   37.70    1.29
   5   9   4   35.36    1.26
  -5   9  -4   39.60    1.36
  -5   9  -4   38.38    1.36
  -5  -9  -4   36.70    1.31
   5  -9   4   38.56    1.33
  -5  -9  -4   37.53    1.28
  -5   9  -5   15.68    0.98
  -5  -9  -5   14.48    0.82
   5  -9   5   14.83    0.85
   5   9   5   14.64    0.83
  -5   9  -5   15.52    0.91
   5  -9   5   15.94    0.88
  -5   9  -5   14.36    0.85
  -5  -9  -5   14.16    0.86
  -5  -9  -5   15.08    0.83
  -5  -9  -6    0.14    0.25
   5   9   6   -0.27    0.34
  -5   9  -6   -0.55    0.34
   5  -9   6   -0.13    0.36
  -5  -9  -6    0.59    0.32
  -5   9  -6    0.11    0.33
   5  -9   6    0.16    0.37
  -5  -9  -6    0.00    0.30
   5  -9   7    5.02    0.56
  -5  -9  -7    4.68    0.47
   5   9   7    4.67    0.55
   5  -9   7    5.04    0.61
  -5  -9  -7    4.12    0.52
   5  -9   7    5.44    0.61
   5   9   7    5.56    0.64
   5   9   8    1.86    0.45
   5  -9   8    2.20    0.50
  -5  -9  -8    2.22    0.41
   5  -9   8    2.18    0.48
   5   9   8    2.51    0.53
   5   9   9   19.43    1.12
   5  -9   9   18.23    1.17
  -5  -9  -9   18.02    0.96
   5  -9   9   19.27    1.11
   5   9   9   18.96    1.15
   5   9  10    1.62    0.51
   5  -9  10    1.00    0.47
   5   9  10    0.67    0.54
   5   9  11    9.29    0.90
   5  -9  11   10.52    0.93
   5   9  11    9.98    0.95
   5   9  12    0.29    0.48
   5  -9  12   -0.08    0.53
   5   9  12    0.77    0.59
   5  -9  13    4.17    0.76
   5   9  13    5.27    0.86
   5  -9  14    0.01    0.54
   5   9  14    1.56    0.78
  -5 -10  13    4.50    0.82
  -5  10  13    4.53    0.87
  -5 -10  12   13.42    1.13
  -5  10  12   13.86    1.17
  -5 -10  11    2.03    0.63
  -5  10  11    0.49    0.58
   5 -10 -10   -0.08    0.34
  -5 -10  10    0.46    0.53
  -5  10  10    0.04    0.49
   5 -10  -9   45.11    1.49
  -5 -10   9   46.33    1.84
  -5  10   9   47.97    1.90
  -5 -10   8   22.59    1.23
   5 -10  -8   21.68    0.95
  -5 -10   8   21.30    1.17
  -5  10   8   23.21    1.27
  -5 -10   7   14.69    0.98
  -5  10   7   13.17    0.97
  -5 -10   6    6.76    0.68
  -5  10   6    7.28    0.71
  -5 -10   5   18.37    1.00
   5  10  -5   16.86    0.97
   5 -10  -5   17.29    1.00
   5 -10  -5   17.38    0.94
  -5  10   5   19.26    1.05
   5 -10  -4  127.38    2.18
   5 -10  -4  128.20    2.50
   5  10  -4  127.79    2.85
   5 -10  -4  123.96    2.81
  -5 -10   4  124.70    2.79
   5 -10  -4  128.71    2.77
   5 -10  -3   56.86    1.48
   5 -10  -3   56.13    1.21
   5  10  -3   56.36    1.75
  -5 -10   3   58.59    1.73
   5 -10  -3   56.73    1.77
   5 -10  -3   58.78    1.68
   5 -10  -2   18.53    0.81
   5 -10  -2   19.05    0.64
  -5 -10   2   17.69    0.92
   5 -10  -2   18.25    0.98
   5  10  -2   18.66    1.00
   5 -10  -2   18.37    0.91
   5  10  -1   13.22    0.76
   5 -10  -1   13.13    0.55
   5  10  -1   14.02    0.82
   5 -10  -1   13.00    0.83
  -5 -10   1   11.86    0.78
   5 -10  -1   12.88    0.79
   5  10   0   32.89    1.14
   5 -10   0   32.52    0.92
  -5 -10   0   29.88    1.19
   5 -10   0   33.12    1.25
   5  10   0   33.96    1.25
  -5  10   0   31.98    1.23
   5 -10   0   28.35    1.16
   5  10   1   14.85    0.75
  -5  10  -1   15.60    0.69
   5  10   1   14.68    0.61
   5 -10   1   17.32    0.71
  -5 -10  -1   15.48    0.86
   5 -10   1   13.91    0.82
  -5  10  -1   16.07    0.89
  -5 -10  -1   16.48    0.88
  -5  10  -2   26.45    0.97
  -5  10  -2   27.14    1.13
   5  10   2   28.36    0.84
   5  10   2   27.38    1.03
   5 -10   2   28.11    0.97
   5 -10   2   24.79    1.07
  -5 -10  -2   25.89    1.15
  -5  10  -2   27.43    1.19
  -5 -10  -2   25.97    1.09
  -5  10  -3   30.05    1.25
   5 -10   3   31.22    1.09
  -5  10  -3   29.16    1.09
   5  10   3   30.13    1.10
  -5 -10  -3   28.04    1.23
  -5  10  -3   29.14    1.27
   5 -10   3   30.62    1.21
  -5 -10  -3   29.73    1.17
  -5  10  -4  108.72    2.67
  -5 -10  -4  104.49    2.35
   5  10   4  108.71    2.38
   5 -10   4  111.56    2.41
  -5  10  -4  106.50    2.44
  -5 -10  -4  106.41    2.54
  -5  10  -4  106.22    2.59
   5 -10   4  109.87    2.52
  -5 -10  -4  109.48    2.49
  -5 -10  -5   55.16    1.64
   5  10   5   58.74    1.68
   5 -10   5   54.75    1.68
  -5  10  -5   59.00    1.79
  -5  10  -5   58.85    1.83
  -5 -10  -5   55.05    1.75
   5 -10   5   57.09    1.75
  -5 -10  -5   57.57    1.73
   5  10   6    7.20    0.63
  -5  10  -6    5.64    0.63
  -5 -10  -6    6.37    0.61
   5 -10   6    6.03    0.64
   5 -10   6    6.43    0.64
  -5 -10  -6    6.70    0.69
  -5 -10  -7   -0.17    0.30
   5 -10   7    0.30    0.39
   5  10   7    0.24    0.33
  -5 -10  -7    0.70    0.35
   5 -10   7   -0.41    0.43
   5  10   8   10.97    0.82
   5 -10   8   10.36    0.90
  -5 -10  -8    9.78    0.67
   5 -10   8   10.58    0.82
   5  10   8    9.95    0.86
   5  10   9    5.94    0.69
  -5 -10  -9    6.04    0.59
   5 -10   9    4.61    0.65
   5  10   9    6.54    0.78
   5  10  10   13.87    1.01
   5 -10  10   14.86    1.06
   5  10  10   12.78    1.03
   5  10  11   20.01    1.27
   5 -10  11   20.54    1.28
   5  10  11   19.68    1.34
   5  10  12    4.18    0.74
   5 -10  12    6.15    0.84
   5  10  12    4.74    0.82
   5 -10  13    2.23    0.71
   5  10  13    2.09    0.69
   5 -10  14    0.61    0.54
   5  10  14    3.12    0.79
  -5 -11  13   11.82    1.18
  -5  11  13   11.57    1.16
  -5 -11  12    7.03    0.91
  -5  11  12    8.57    1.01
  -5 -11  11    2.17    0.68
  -5  11  11    1.24    0.62
  -5 -11  10    1.79    0.60
  -5  11  10    1.24    0.58
   5 -11  -9   54.02    1.58
  -5 -11   9   54.92    2.04
  -5  11   9   56.30    2.11
   5 -11  -8   18.50    0.84
  -5 -11   8   17.81    1.14
  -5  11   8   18.90    1.20
   5 -11  -7    1.32    0.29
  -5 -11   7    0.89    0.42
  -5  11   7    0.34    0.47
  -5 -11   6    4.25    0.63
   5 -11  -6    4.44    0.67
  -5  11   6    4.62    0.66
   5 -11  -5    2.50    0.29
  -5 -11   5    3.32    0.57
   5 -11  -5    3.60    0.60
   5 -11  -4    2.21    0.35
   5 -11  -4    1.75    0.23
  -5 -11   4    2.45    0.52
   5  11  -4    2.07    0.47
   5 -11  -4    1.62    0.44
   5 -11  -3  255.54    4.12
   5 -11  -3  256.07    3.64
   5  11  -3  251.26    4.71
   5 -11  -3  243.89    4.65
  -5 -11   3  253.71    4.59
   5 -11  -3  258.59    4.55
   5 -11  -2   79.74    1.83
   5 -11  -2   80.49    1.47
  -5 -11   2   75.16    2.08
   5  11  -2   77.99    2.23
   5 -11  -2   77.13    2.22
   5 -11  -2   79.65    2.09
   5  11  -1   23.51    0.99
   5 -11  -1   23.61    0.71
   5  11  -1   21.67    1.06
   5 -11  -1   23.72    1.13
  -5 -11   1   20.21    1.02
   5 -11  -1   22.62    1.06
   5 -11   0    0.43    0.21
   5  11   0    0.37    0.27
  -5 -11   0    1.00    0.42
   5 -11   0    0.38    0.36
   5 -11   0    0.32    0.34
   5  11   0    0.36    0.31
  -5  11   0    0.40    0.32
   5  11   1    0.16    0.19
  -5  11  -1    0.52    0.21
   5 -11   1    0.07    0.21
   5  11   1   -0.01    0.24
  -5 -11  -1    0.41    0.35
   5 -11   1    0.33    0.38
  -5  11  -1    0.23    0.36
  -5 -11  -1    0.35    0.34
  -5  11  -2    2.60    0.41
   5 -11   2    2.75    0.36
   5  11   2    2.85    0.39
  -5  11  -2    2.41    0.34
   5 -11   2    1.74    0.42
  -5 -11  -2    2.62    0.51
  -5 -11  -2    2.52    0.43
  -5  11  -2    2.87    0.49
  -5  11  -3   26.27    1.17
   5 -11   3   24.35    0.97
  -5  11  -3   24.45    0.99
   5  11   3   25.52    1.00
   5 -11   3   23.80    1.13
  -5  11  -3   22.77    1.18
  -5 -11  -3   22.38    1.16
  -5 -11  -3   23.85    1.11
  -5  11  -4   48.60    1.69
   5  11   4   47.35    1.45
  -5  11  -4   48.18    1.54
   5 -11   4   48.89    1.49
  -5 -11  -4   43.94    1.65
  -5  11  -4   49.98    1.78
   5 -11   4   48.93    1.64
  -5 -11  -4   47.44    1.60
  -5 -11  -5   62.54    1.76
   5  11   5   63.09    1.76
   5 -11   5   67.16    1.88
  -5  11  -5   63.31    1.88
  -5 -11  -5   62.08    1.95
   5 -11   5   63.00    1.93
  -5 -11  -6   -0.04    0.29
   5  11   6   -0.19    0.33
   5 -11   6   -0.16    0.35
   5 -11   6    0.04    0.38
  -5 -11  -6   -0.25    0.41
  -5 -11  -7    8.95    0.73
   5 -11   7   10.64    0.86
   5  11   7   10.76    0.78
   5 -11   7   11.11    0.88
  -5 -11  -7   10.56    0.90
   5 -11   8   11.61    0.91
  -5 -11  -8   11.07    0.69
   5  11   8   10.93    0.82
   5 -11   8   11.83    0.92
  -5 -11  -8   11.23    0.96
   5  11   9   10.24    0.83
   5 -11   9   11.09    0.91
   5  11   9   10.07    0.92
   5  11  10   16.43    1.08
   5 -11  10   16.79    1.15
   5  11  10   16.18    1.18
   5  11  11   48.56    1.94
   5 -11  11   48.84    1.98
   5  11  11   51.06    2.11
   5  11  12   10.33    0.99
   5 -11  12   10.77    1.05
   5  11  12   10.07    1.07
   5 -11  13   -0.32    0.59
   5  11  13    1.07    0.63
  -5 -12  12   22.87    1.50
  -5  12  12   24.67    1.58
  -5 -12  11    1.62    0.63
  -5  12  11    1.07    0.60
  -5 -12  10   13.87    1.14
  -5  12  10   14.20    1.17
  -5 -12   9    7.20    0.87
  -5  12   9    7.03    0.89
   5 -12  -8   42.33    1.25
  -5 -12   8   44.17    1.80
  -5  12   8   43.91    1.86
   5 -12  -7   16.82    0.71
  -5 -12   7   18.81    1.15
  -5  12   7   18.83    1.22
   5 -12  -7   17.97    1.21
   5 -12  -6   60.50    1.33
   5 -12  -6   58.21    1.31
  -5 -12   6   60.02    2.01
   5 -12  -6   60.36    2.07
   5 -12  -5    1.29    0.32
   5 -12  -5    1.07    0.21
  -5 -12   5    1.31    0.45
   5 -12  -5    1.55    0.49
   5 -12  -4    9.47    0.59
   5 -12  -4    9.35    0.39
  -5 -12   4    9.69    0.82
   5 -12  -4    8.73    0.81
   5 -12  -3    0.39    0.26
   5 -12  -3    0.54    0.15
  -5 -12   3   -0.29    0.46
   5 -12  -3    0.49    0.45
   5 -12  -2   74.97    1.32
  -5 -12   2   66.47    2.03
   5 -12  -2   73.33    2.21
   5  12  -2   73.78    2.19
   5 -12  -2   69.04    2.02
   5  12  -1   49.00    1.47
   5 -12  -1   49.16    1.05
   5 -12  -1   51.75    1.75
  -5 -12   1   42.77    1.59
   5  12  -1   48.93    1.67
   5 -12  -1   44.85    1.61
   5  12   0   17.20    0.82
   5 -12   0   16.32    0.61
  -5 -12   0   15.39    0.94
   5 -12   0   16.82    1.00
   5  12   0   16.73    0.98
   5 -12   0   15.18    0.95
   5  12   1    0.46    0.19
  -5  12  -1    0.21    0.19
   5 -12   1    0.12    0.20
   5  12   1    0.03    0.24
   5 -12   1    0.39    0.37
  -5 -12  -1    0.47    0.42
  -5  12  -1    0.57    0.36
   5 -12   1    0.34    0.34
  -5 -12  -1    0.26    0.35
  -5  12  -2   -0.49    0.34
  -5  12  -2   -0.24    0.32
   5 -12   2    0.17    0.25
   5  12   2    0.59    0.29
  -5 -12  -2    0.11    0.37
   5 -12   2   -0.34    0.46
  -5  12  -2    0.66    0.41
  -5  12  -3   23.59    1.13
   5 -12   3   21.57    1.12
  -5 -12  -3   20.49    1.15
  -5  12  -3   21.84    0.94
   5 -12   3   23.07    0.95
   5  12   3   22.86    0.95
  -5  12  -4  127.17    2.97
   5  12   4  120.73    2.54
  -5  12  -4  120.35    2.64
   5 -12   4  122.32    2.61
  -5 -12  -4  113.69    2.96
   5 -12   4  122.07    2.90
   5 -12   5    5.46    0.59
   5  12   5    4.95    0.52
  -5  12  -5    5.31    0.59
   5 -12   5    5.22    0.66
  -5 -12  -5    4.59    0.67
  -5 -12  -6    0.65    0.34
   5  12   6    1.37    0.37
   5 -12   6    0.69    0.40
   5 -12   6    0.68    0.46
  -5 -12  -6    0.26    0.44
  -5 -12  -7   41.42    1.51
   5  12   7   42.65    1.51
   5 -12   7   44.58    1.73
  -5 -12  -7   42.72    1.77
   5  12   8    7.42    0.69
   5 -12   8    8.42    0.86
  -5 -12  -8    7.17    0.82
   5  12   9    3.07    0.54
   5 -12   9    2.47    0.57
  -5 -12  -9    3.96    0.73
   5  12  10   12.58    0.94
   5 -12  10   12.88    1.04
   5  12  11    0.89    0.46
   5 -12  11    0.52    0.55
   5  12  11    1.31    0.65
   5 -12  12   18.74    1.33
   5  12  12   17.81    1.36
   5 -12  13    0.83    0.59
   5  12  13   -0.36    0.63
  -5 -13  12    2.14    0.72
  -5  13  12    0.97    0.71
  -5 -13  11    2.03    0.63
  -5  13  11    1.98    0.75
  -5 -13  10    7.68    0.89
  -5  13  10    6.37    0.90
  -5 -13   9   19.51    1.28
  -5  13   9   20.72    1.39
  -5 -13   8   18.92    1.24
   5 -13  -8   20.31    1.34
  -5  13   8   15.71    1.28
   5 -13  -7   37.84    1.02
  -5 -13   7   36.91    1.66
   5 -13  -7   41.53    1.80
   5 -13  -6    3.77    0.43
   5 -13  -6    4.63    0.31
   5 -13  -6    3.84    0.30
  -5 -13   6    4.73    0.71
   5 -13  -6    4.40    0.70
   5 -13  -5   29.51    1.03
   5 -13  -5   28.55    0.67
   5 -13  -5   28.51    0.66
   5 -13  -5   29.30    1.45
  -5 -13   5   27.29    1.38
   5 -13  -4    1.89    0.34
   5 -13  -4    1.54    0.14
   5 -13  -4    0.81    0.11
  -5 -13   4    2.22    0.56
   5 -13  -4    1.32    0.51
  -5 -13   3    1.54    0.50
   5 -13  -3    0.78    0.47
   5 -13  -3    1.28    0.13
  -5 -13   2    5.34    0.63
   5 -13  -2    6.52    0.75
   5 -13  -2    6.18    0.25
   5  13  -1   43.55    1.39
   5 -13  -1   45.02    1.70
  -5 -13   1   42.17    1.61
   5 -13  -1   45.92    0.94
  -5 -13   0    1.84    0.46
   5 -13   0    1.45    0.49
   5 -13   0    2.50    0.27
   5  13   0    1.83    0.35
  -5  13  -1   -0.13    0.20
   5  13   1    0.25    0.16
  -5 -13  -1    0.65    0.41
   5 -13   1   -0.18    0.38
   5  13   1    0.14    0.25
   5 -13   1    0.11    0.21
  -5  13  -2   36.12    1.36
  -5  13  -2   37.01    1.14
  -5 -13  -2   37.18    1.51
   5 -13   2   32.38    1.45
   5  13   2   38.01    1.22
   5 -13   2   37.25    1.12
  -5  13  -3   40.77    1.52
   5  13   3   40.41    1.28
   5 -13   3   41.05    1.28
  -5  13  -3   40.10    1.29
   5 -13   3   38.16    1.56
  -5 -13  -3   39.18    1.62
   5  13   4   12.92    0.74
   5 -13   4   14.15    0.82
  -5  13  -4   13.24    0.80
   5 -13   4   14.51    1.01
  -5 -13  -4   12.09    0.99
   5  13   5   31.62    1.17
  -5  13  -5   28.78    1.24
  -5 -13  -5   29.13    1.46
   5 -13   5   32.11    1.46
  -5 -13  -6    7.58    0.65
   5  13   6    8.60    0.66
   5 -13   6    9.53    0.88
  -5 -13  -6    8.23    0.84
  -5 -13  -7   34.66    1.38
   5  13   7   38.80    1.41
   5 -13   7   39.08    1.68
  -5 -13  -7   37.28    1.69
   5  13   8    2.23    0.46
   5 -13   8    2.90    0.65
  -5 -13  -8    2.37    0.65
   5  13   9    2.09    0.47
   5 -13   9    2.24    0.57
  -5 -13  -9    3.26    0.73
   5  13  10    0.95    0.46
   5 -13  10    1.26    0.56
  -5 -13 -10    2.02    0.69
   5  13  11    3.97    0.66
   5 -13  11    3.83    0.78
  -5 -13 -11    4.79    0.84
   5 -13  12    1.04    0.59
  -5 -14  11    0.68    0.59
  -5  14  11    0.63    0.59
  -5 -14  10    0.55    0.57
   5 -14 -10    0.49    0.70
  -5  14  10   -0.23    0.65
  -5 -14   9   11.17    1.08
   5 -14  -9   10.74    1.11
  -5  14   9   11.10    1.12
  -5 -14   8   37.51    1.78
   5 -14  -8   40.42    1.90
   5 -14  -7   17.52    0.83
  -5 -14   7   17.08    1.19
   5 -14  -7   17.74    1.26
   5 -14  -6    9.68    0.61
  -5 -14   6   11.34    0.99
   5 -14  -6   10.12    0.97
   5 -14  -5    9.83    0.60
  -5 -14   5    8.26    0.86
   5 -14  -5    7.83    0.89
   5 -14  -4   22.57    1.34
  -5 -14   4   21.87    1.26
  -5 -14   3   17.23    1.11
   5 -14  -3   18.17    1.19
   5  14  -2    0.92    0.34
  -5 -14   2   -0.35    0.54
   5 -14  -2    0.30    0.42
   5  14  -1   23.27    0.99
  -5 -14   1   23.45    1.23
   5 -14  -1   21.57    1.22
   5  14   0   18.05    0.63
   5  14   0   18.79    0.85
   5 -14   0   17.16    1.10
  -5 -14   0   17.98    1.13
  -5  14  -1    8.03    0.47
  -5 -14  -1    8.38    0.83
   5 -14   1    7.75    0.79
   5  14   1    8.60    0.58
  -5  14  -2   33.90    1.08
  -5  14  -2   36.82    1.37
  -5 -14  -2   35.51    1.53
   5 -14   2   33.78    1.52
   5  14   2   36.38    1.19
  -5  14  -3   24.17    1.17
  -5  14  -3   25.35    1.00
   5  14   3   24.30    0.96
  -5 -14  -3   22.64    1.28
   5 -14   3   23.70    1.28
   5  14   4   21.84    0.93
  -5  14  -4   21.28    0.98
  -5 -14  -4   18.47    1.22
   5 -14   4   20.51    1.22
   5  14   5    0.77    0.30
  -5  14  -5    0.67    0.35
   5 -14   5    0.14    0.44
  -5 -14  -5   -0.64    0.61
   5  14   6    6.79    0.58
   5 -14   6    6.28    0.78
  -5 -14  -6    5.88    0.80
   5  14   7    5.18    0.55
   5 -14   7    3.97    0.67
  -5 -14  -7    3.45    0.71
   5  14   8    7.52    0.66
   5 -14   8    7.04    0.86
  -5 -14  -8    8.35    0.94
   5 -14   9    3.51    0.70
   5  14   9    4.02    0.54
   5 -14   9    4.42    0.75
  -5 -14  -9    3.62    0.75
   5 -14  10    4.13    0.73
  -5 -14 -10    5.23    0.85
   5 -14  11    1.37    0.63
  -5 -14 -11    0.98    0.67
   5 -14  12    0.17    0.55
   5 -15 -11    2.01    0.75
  -5 -15  10   -0.16    0.63
  -5  15  10    0.80    0.62
  -5 -15   9   25.06    1.56
   5 -15  -9   24.00    1.56
  -5 -15   8    1.83    0.59
   5 -15  -8    2.16    0.69
   5 -15  -7   16.42    1.24
  -5 -15   7   17.72    1.26
   5 -15  -6    7.04    0.51
  -5 -15   6    5.89    0.83
   5 -15  -6    6.70    0.87
  -5 -15   5    1.91    0.56
   5 -15  -5    0.61    0.53
  -5 -15   4    0.94    0.47
   5 -15  -4    0.61    0.53
  -5 -15   3   17.99    1.18
   5 -15  -3   21.92    1.34
   5  15  -2   14.02    0.82
  -5 -15   2   11.35    0.93
   5 -15  -2   11.06    0.96
   5  15  -1   23.67    0.99
  -5 -15   1   21.99    1.24
   5 -15  -1   22.23    1.29
   5  15   0    3.35    0.27
  -5 -15   0    2.77    0.58
   5 -15   0    3.36    0.61
   5  15   0    3.58    0.43
   5 -15   1   11.78    0.98
  -5 -15  -1   11.07    0.93
   5  15   1   11.66    0.66
  -5  15  -2    0.29    0.22
   5 -15   2    0.14    0.48
  -5 -15  -2    0.03    0.46
   5  15   2    0.66    0.29
  -5  15  -3   47.02    1.38
  -5  15  -3   47.49    1.68
   5  15   3   49.15    1.40
   5 -15   3   44.02    1.80
  -5 -15  -3   46.56    1.87
   5  15   4   32.85    1.13
  -5 -15  -4   30.78    1.60
   5 -15   4   28.89    1.49
   5  15   5    0.82    0.31
   5 -15   5    0.73    0.52
  -5 -15  -5    0.45    0.55
   5  15   6    3.10    0.43
   5 -15   6    2.54    0.63
  -5 -15  -6    2.67    0.67
   5  15   7    3.80    0.49
   5 -15   7    3.95    0.73
  -5 -15  -7    3.76    0.76
   5 -15   8    4.08    0.81
  -5 -15  -8    4.47    0.81
   5 -15   9    8.13    0.95
  -5 -15  -9    7.73    0.96
   5 -15  10    1.00    0.58
  -5 -15 -10    1.83    0.70
   5 -15  11    4.43    0.81
  -5 -15 -11    5.17    0.94
  -5 -16  10    3.98    0.78
   5 -16 -10    3.82    0.81
  -5 -16   9    9.92    1.07
   5 -16  -9    9.71    1.14
  -5 -16   8    4.60    0.80
   5 -16  -8    4.84    0.86
  -5 -16   7    4.55    0.79
   5 -16  -7    4.92    0.84
  -5 -16   6    7.97    0.93
   5 -16  -6    6.45    0.92
  -5 -16   5    8.61    0.90
   5 -16  -5    7.54    0.96
  -5 -16   4    9.18    0.92
   5 -16  -4   10.67    1.05
  -5 -16   3   29.96    1.54
   5 -16  -3   33.89    1.68
   5  16  -2   18.02    0.90
   5 -16  -2   16.41    1.18
  -5 -16   2   16.71    1.15
   5  16  -1   21.04    0.93
  -5 -16   1   20.62    1.27
   5 -16  -1   21.51    1.30
   5  16   0   26.36    1.00
  -5 -16   0   24.31    1.37
   5 -16   0   24.20    1.38
   5  16   1    0.41    0.25
  -5 -16  -1    0.14    0.47
   5 -16   1   -0.31    0.48
   5  16   2    7.26    0.52
   5 -16   2    7.17    0.84
  -5 -16  -2    6.78    0.84
   5  16   3    1.85    0.32
  -5 -16  -3    1.54    0.58
   5 -16   3    1.93    0.55
   5  16   4   41.68    1.26
  -5 -16  -4   39.17    1.82
   5 -16   4   37.45    1.76
  -5 -16  -5   35.77    1.83
   5 -16   5   36.10    1.74
  -5 -16  -6    1.71    0.60
   5 -16   6    4.58    0.78
   5 -16   7    3.91    0.96
  -5 -16  -7    2.27    0.72
   5 -16   8    5.97    0.89
  -5 -16  -8    4.23    0.87
   5 -16   9    1.86    0.69
  -5 -16  -9   -0.13    0.61
   5 -16  10    4.26    0.85
  -5 -16 -10    3.17    0.82
  -5 -17   9   10.02    1.12
   5 -17  -9   11.25    1.22
  -5 -17   8   12.22    1.17
   5 -17  -8   12.14    1.27
  -5 -17   7    0.39    0.55
   5 -17  -7   -0.22    0.62
  -5 -17   6    3.35    0.72
   5 -17  -6    3.66    0.85
  -5 -17   5    0.41    0.55
   5 -17  -5    0.19    0.61
   5 -17  -4    7.78    0.97
  -5 -17   4    5.57    0.83
   5  17  -3   26.74    1.18
  -5 -17   3   30.26    1.59
   5 -17  -3   26.42    1.54
   5  17  -2   31.75    1.21
  -5 -17   2   32.55    1.64
   5 -17  -2   31.29    1.64
   5  17  -1    8.90    0.61
   5 -17  -1    8.35    0.92
  -5 -17   1    8.81    0.93
   5  17   0   12.02    0.67
   5 -17   0   11.86    1.05
  -5 -17   0   11.05    0.99
   5  17   1    0.52    0.27
  -5 -17  -1   -0.71    0.54
   5 -17   1    0.53    0.53
   5 -17   2   26.93    1.52
  -5 -17  -2   24.38    1.43
   5 -17   3   28.89    1.58
  -5 -17  -3   30.53    1.61
  -5 -17  -4   19.15    1.33
   5 -17   4   20.06    1.36
   5 -17   5   41.81    1.93
  -5 -17  -5   42.99    2.03
  -5 -17  -6    8.75    1.06
   5 -17   6    9.25    1.02
  -5 -17  -7   -0.14    0.60
   5 -17   7    1.28    0.61
   5 -17   8    3.46    0.74
  -5 -17  -8    1.48    0.68
   5 -17   9    1.60    0.64
  -5 -17  -9    2.22    0.74
  -5 -18   8   12.21    1.23
   5 -18  -8   13.72    1.39
  -5 -18   7   15.14    1.30
   5 -18  -7   15.42    1.41
   5 -18  -6    4.40    0.86
  -5 -18   6    4.75    0.81
  -5 -18   5    0.50    0.55
   5 -18  -5    0.39    0.64
  -5 -18   4    6.40    0.88
   5 -18  -4    9.88    1.11
  -5 -18   3   14.22    1.19
   5 -18  -3   15.54    1.24
  -5 -18   2   43.71    1.97
   5 -18  -2   47.79    2.08
  -5 -18   1   31.37    1.64
   5 -18  -1   29.03    1.62
   5 -18   0    3.81    0.78
  -5 -18   0    4.55    0.76
   5 -18   1   15.99    1.23
  -5 -18  -1   16.05    1.22
  -5 -18  -2    1.09    0.59
   5 -18   2    0.62    0.51
   5 -18   3   14.46    1.21
  -5 -18  -3   14.45    1.20
  -5 -18  -4   33.95    1.79
   5 -18   4   31.80    1.74
   5 -18   5    3.58    0.76
  -5 -18  -5    5.81    0.90
  -5 -18  -6    2.37    0.71
   5 -18   6    3.51    0.75
  -5 -18  -7    0.12    0.63
   5 -18   7    0.77    0.63
  -5 -18  -8    0.11    0.66
   5 -18   8    1.73    0.71
   5 -19  -6    0.40    0.67
  -5 -19   6    0.09    0.56
  -5 -19   5    7.35    1.03
   5 -19  -5    7.21    0.99
   5 -19  -4   14.92    1.31
  -5 -19   4   15.67    1.27
  -5 -19   3    3.04    0.74
   5 -19  -3    2.89    0.73
  -5 -19   2    6.91    0.92
   5 -19  -2    7.13    0.97
  -5 -19   1   20.96    1.42
   5 -19  -1   18.46    1.37
  -5 -19   0   19.75    1.36
   5 -19   0   18.41    1.36
  -5 -19  -1    2.49    0.68
   5 -19   1    3.40    0.76
   5 -19   2   30.97    1.72
  -5 -19  -2   34.14    1.79
   5 -19   3   10.89    1.10
  -5 -19  -3   11.73    1.12
   5 -19   4    2.69    0.70
  -5 -19  -4    2.76    0.72
   5 -19   5    8.40    1.01
  -5 -19  -5    9.63    1.10
  -5 -19  -6    8.00    1.07
   5 -19   6    6.30    0.93
   5 -20  -4   12.87    1.24
  -5 -20   4   15.15    1.29
   5 -20  -3   12.97    1.22
  -5 -20   3   13.24    1.22
   5 -20  -2    3.42    0.78
  -5 -20   2    4.89    0.83
   5 -20  -1    9.20    1.05
  -5 -20   1   10.75    1.10
  -5 -20   0   15.79    1.35
   5 -20   0   16.13    1.31
  -5 -20  -1    0.60    0.57
   5 -20   1    2.22    0.72
  -5 -20  -2   11.81    1.13
   5 -20   2   12.45    1.20
   5 -20   3    2.99    0.76
  -5 -20  -3    2.75    0.71
   5 -20   4    0.56    0.59
  -5 -20  -4    0.66    0.69
  -5 -21   1    1.48    0.68
  -5 -21   0    1.17    0.64
   5 -21   0    1.30    0.65
  -5 -21  -1   -0.03    0.57
  -6   0  15   -1.14    0.69
  -6   0  14   32.78    1.74
  -6   0  13   -1.39    0.69
  -6   0  12   33.41    1.59
  -6   0  11    0.16    0.46
  -6   0  10   90.79    2.50
  -6   0   9   -0.18    0.41
   6   0  -8   64.86    1.86
  -6   0   8   65.17    1.87
  -6   0   7    0.25    0.37
   6   0  -7    0.29    0.32
   6   0  -6  135.71    2.65
  -6   0   6  132.62    2.61
   6   0  -5    0.10    0.25
  -6   0   5    0.00    0.28
   6   0  -4   62.40    1.40
  -6   0   4   62.85    1.41
   6   0  -3   -0.26    0.22
  -6   0   3   -0.31    0.23
   6   0  -2    4.68    0.26
  -6   0   2    5.33    0.31
   6   0  -1    0.31    0.36
  -6   0   1    0.03    0.12
   6   0   0   70.32    1.74
   6   0   0   71.31    1.75
   6   0   1    0.12    0.32
  -6   0  -1    0.45    0.29
   6   0   1    0.10    0.33
  -6   0  -2  519.71    7.42
   6   0   2  515.09    7.43
   6   0   2  517.64    7.41
  -6   0  -2  502.13    6.33
  -6   0  -3    0.19    0.29
   6   0   3    0.42    0.41
  -6   0  -3    0.21    0.29
  -6   0  -3    0.05    0.15
   6   0   3   -0.19    0.14
  -6   0  -4 2203.70   27.76
   6   0   4 2208.47   27.76
  -6   0  -4 2209.29   27.78
  -6   0  -4 2157.03   26.82
   6   0   4 2158.88   26.68
  -6   0  -5    1.13    0.44
   6   0   5    1.84    0.53
  -6   0  -5    1.52    0.49
  -6   0  -5    0.70    0.24
   6   0   5    0.01    0.23
  -6   0  -6   12.54    0.59
  -6   0  -6   13.71    0.86
  -6   0  -6   13.96    0.91
   6   0   6   12.32    0.84
  -6   0  -6   12.19    0.61
   6   0   6   12.65    0.59
  -6   0  -7   -0.35    0.24
   6   0   7   -0.51    0.45
  -6   0  -7    0.39    0.25
   6   0   7    0.03    0.27
   6   0   8    7.48    0.74
  -6   0  -8    8.15    0.61
   6   0   8    7.66    0.59
   6   0   9   -0.49    0.48
  -6   0  -9    0.09    0.31
   6   0   9    0.59    0.36
   6   0  10   67.17    2.33
   6   0  10   73.50    2.02
   6   0  11    1.33    0.60
   6   0  11    0.97    0.48
   6   0  12   23.69    1.50
   6   0  12   19.21    1.15
   6   0  13    0.09    0.53
   6   0  13   -0.31    0.47
   6   0  14    2.52    0.75
   6   0  14    4.13    0.73
   6   0  15   -1.05    0.61
  -6  -1  15   -0.36    0.67
  -6   1  15    0.64    0.61
  -6   1  14    1.15    0.60
  -6  -1  14    0.93    0.55
  -6   1  13   31.22    1.63
  -6  -1  13   30.40    1.63
  -6  -1  12    0.78    0.50
  -6   1  12    1.09    0.54
  -6  -1  11   10.64    0.93
  -6   1  11   10.28    0.90
  -6  -1  10   22.60    1.21
  -6   1  10   24.38    1.24
  -6   1   9   39.64    1.50
  -6  -1   9   40.86    1.50
   6  -1  -8    3.89    0.48
   6   1  -8    3.25    0.46
  -6  -1   8    2.70    0.47
   6   1  -8    3.16    0.43
  -6   1   8    3.41    0.52
   6   1  -7  235.16    4.03
   6  -1  -7  227.54    4.00
   6   1  -7  225.83    3.93
  -6  -1   7  227.24    4.01
  -6   1   7  225.74    3.99
   6  -1  -6   20.95    0.88
   6   1  -6   20.53    0.85
  -6   1   6   21.45    0.90
  -6  -1   6   20.52    0.89
   6  -1  -5   49.12    1.32
   6   1  -5   50.96    1.29
  -6   1   5   49.18    1.32
  -6  -1   5   49.35    1.33
   6  -1  -4   13.48    0.60
   6   1  -4   13.07    0.57
  -6   1   4   13.97    0.61
  -6  -1   4   13.35    0.62
  -6  -1   3  252.26    3.68
   6  -1  -3  250.84    3.67
   6   1  -3  249.37    3.60
  -6   1   3  252.67    3.67
   6  -1  -2    1.92    0.22
   6  -1  -2    2.13    0.38
  -6  -1   2    1.93    0.24
   6   1  -2    1.56    0.19
  -6   1   2    1.79    0.22
   6  -1  -1  217.96    2.85
  -6  -1   1  212.01    2.89
   6   1  -1  213.06    3.70
   6  -1  -1  215.76    3.65
   6  -1  -1  209.73    2.78
   6   1  -1  209.44    2.77
  -6   1   1  212.15    2.85
   6   1   0   23.07    0.94
   6   1   0   22.31    0.94
   6  -1   0   22.66    0.92
   6  -1   0   22.82    0.94
   6  -1   1   94.15    2.11
   6   1   1   92.58    2.09
  -6  -1  -1   94.86    2.14
  -6   1  -1   95.70    2.12
   6  -1   1   94.13    2.08
   6   1   1   94.43    2.12
   6   1   2    5.35    0.53
   6  -1   2    5.84    0.56
  -6   1  -2    5.12    0.49
   6  -1   2    4.51    0.51
  -6   1  -2    5.36    0.52
  -6  -1  -2    5.72    0.53
   6   1   2    5.20    0.52
  -6   1  -2    5.03    0.23
  -6  -1  -3   12.97    0.40
  -6  -1  -3   14.85    0.80
  -6  -1  -3   14.24    0.77
  -6   1  -3   14.22    0.79
  -6   1  -3   15.08    0.82
   6   1   3   14.76    0.83
   6  -1   3   14.91    0.81
  -6   1  -3   13.25    0.45
   6   1   3   13.92    0.40
   6  -1   3   12.96    0.37
  -6  -1  -4  491.38    7.21
  -6  -1  -4  469.79    6.32
  -6   1  -4  489.23    7.29
   6   1   4  487.21    7.26
   6  -1   4  495.30    7.27
  -6   1  -4  488.72    7.27
  -6  -1  -4  498.39    7.28
  -6   1  -4  497.52    6.44
   6   1   4  460.39    6.29
   6  -1   4  475.32    6.28
  -6  -1  -5  168.09    3.35
  -6   1  -5  176.76    3.48
  -6  -1  -5  171.01    2.73
   6   1   5  173.66    3.44
   6  -1   5  172.95    3.41
  -6  -1  -5  174.61    3.45
  -6   1  -5  171.28    3.44
  -6   1  -5  172.50    2.82
   6  -1   5  169.76    2.69
   6   1   5  171.54    2.72
  -6  -1  -6    2.18    0.30
  -6  -1  -6    1.80    0.39
  -6   1  -6    2.33    0.46
   6  -1   6    1.83    0.46
   6   1   6    1.64    0.45
  -6  -1  -6    1.86    0.42
  -6   1  -6    1.97    0.42
  -6   1  -6    1.82    0.30
   6  -1   6    2.35    0.33
   6   1   6    1.70    0.30
  -6  -1  -7    0.06    0.24
  -6  -1  -7   -0.24    0.31
   6   1   7   -0.01    0.36
   6  -1   7   -0.05    0.43
  -6   1  -7    0.51    0.28
   6   1   7    0.16    0.25
   6  -1   7    0.47    0.27
  -6  -1  -8    0.57    0.29
   6   1   8    0.04    0.45
   6  -1   8    0.24    0.40
  -6   1  -8    0.32    0.26
   6   1   8    0.66    0.33
   6  -1   8    0.14    0.30
  -6  -1  -9    3.85    0.48
   6  -1   9    2.94    0.56
   6   1   9    3.33    0.59
  -6   1  -9    2.93    0.45
   6   1   9    3.58    0.51
   6  -1   9    3.59    0.50
   6  -1  10    1.94    0.63
   6   1  10    1.31    0.58
  -6  -1 -10    1.41    0.41
   6  -1  10    1.98    0.49
   6   1  10    0.62    0.40
   6   1  11   50.95    2.09
   6  -1  11   52.73    2.14
   6  -1  11   56.62    1.85
   6   1  11   54.03    1.82
   6  -1  12    4.80    0.84
   6   1  12    5.78    0.87
   6  -1  12    2.41    0.58
   6   1  12    3.36    0.61
   6  -1  13    5.49    0.88
   6   1  13    3.64    0.75
   6   1  13    1.65    0.53
   6  -1  13    4.22    0.69
   6   1  14   -0.24    0.55
   6   1  14   -1.21    0.60
   6  -1  14    0.31    0.51
   6   1  15    3.94    0.74
   6  -1  15    4.24    0.77
  -6  -2  15    5.04    0.88
  -6   2  15    3.19    0.81
  -6  -2  14   17.15    1.30
  -6   2  14   16.90    1.27
  -6  -2  13    0.05    0.54
  -6   2  13    0.95    0.58
  -6   2  12   59.59    2.16
  -6  -2  12   57.86    2.13
  -6   2  11   18.39    1.17
  -6  -2  11   17.24    1.14
  -6   2  10   23.10    1.19
  -6  -2  10   20.84    1.16
  -6  -2   9    0.85    0.42
  -6   2   9    1.20    0.43
   6  -2  -8   65.76    1.89
   6   2  -8   67.17    1.86
  -6   2   8   66.28    1.88
  -6  -2   8   68.45    1.91
   6  -2  -7    9.66    0.65
  -6  -2   7   10.21    0.71
   6   2  -7   10.95    0.69
  -6   2   7    9.98    0.72
  -6  -2   6   12.71    0.71
   6  -2  -6   11.72    0.68
   6   2  -6   11.93    0.67
  -6   2   6   12.44    0.71
  -6  -2   5    0.65    0.30
   6  -2  -5    0.30    0.24
   6   2  -5    0.27    0.24
  -6   2   5   -0.22    0.31
   6  -2  -4   41.60    1.11
  -6  -2   4   43.26    1.17
   6   2  -4   42.92    1.10
  -6   2   4   42.74    1.13
  -6  -2   3   29.60    0.86
   6  -2  -3   28.95    0.82
   6   2  -3   28.56    0.79
  -6   2   3   30.40    0.84
   6  -2  -2   22.26    0.92
   6  -2  -2   20.89    0.60
  -6  -2   2   22.73    0.66
   6   2  -2   21.34    0.58
  -6   2   2   21.85    0.62
   6  -2  -1   25.04    0.96
   6   2  -1   25.16    1.04
  -6  -2   1   26.67    0.63
   6   2  -1   24.12    0.56
   6  -2  -1   25.31    0.59
  -6   2   1   24.58    0.58
   6  -2  -1   25.81    0.58
   6  -2   0  149.18    2.77
   6  -2   0  149.34    2.84
   6   2   0  143.82    2.83
  -6   2   0  144.52    2.79
   6  -2   0  147.95    1.97
  -6  -2   0  144.56    1.95
   6  -2   0  146.51    1.95
  -6  -2  -1   31.43    1.14
   6   2   1   32.89    1.16
   6   2   1   31.56    1.10
   6  -2   1   33.41    1.17
  -6   2  -1   32.25    1.13
   6  -2   1   33.05    1.13
  -6  -2  -1   33.30    0.60
  -6  -2  -1   30.41    0.58
  -6  -2  -2   16.38    0.83
  -6   2  -2   17.84    0.86
  -6   2  -2   17.12    0.83
   6  -2   2   17.07    0.86
   6   2   2   16.51    0.82
   6  -2   2   17.04    0.84
   6   2   2   16.84    0.85
  -6   2  -2   17.88    0.48
   6  -2   2   16.08    0.35
  -6  -2  -2   15.94    0.42
  -6  -2  -2   16.77    0.46
  -6  -2  -3    4.10    0.44
   6  -2   3    3.65    0.22
  -6   2  -3    3.90    0.46
   6   2   3    4.22    0.53
  -6   2  -3    4.67    0.48
   6  -2   3    3.72    0.47
  -6  -2  -3    4.64    0.50
  -6   2  -3    3.58    0.26
  -6  -2  -3    4.04    0.27
   6  -2   4    3.33    0.27
  -6   2  -4    4.49    0.53
  -6  -2  -4    5.19    0.51
  -6  -2  -4    4.09    0.51
   6   2   4    4.55    0.54
  -6   2  -4    5.75    0.56
   6  -2   4    5.40    0.58
  -6   2  -4    4.30    0.33
  -6  -2  -4    5.04    0.33
   6   2   4    4.74    0.33
  -6   2  -5   27.83    1.21
  -6  -2  -5   26.59    0.81
  -6  -2  -5   26.32    1.10
   6   2   5   26.59    1.18
   6  -2   5   27.83    1.19
  -6  -2  -5   26.24    1.16
  -6   2  -5   28.12    1.19
  -6   2  -5   26.67    0.86
   6   2   5   26.56    0.81
   6  -2   5   24.85    0.77
  -6  -2  -6   15.39    0.89
  -6  -2  -6   16.09    0.68
  -6   2  -6   16.33    0.98
   6   2   6   15.04    0.92
  -6  -2  -6   17.19    0.97
  -6   2  -6   16.92    0.96
   6  -2   6   15.16    0.94
  -6   2  -6   16.45    0.73
   6  -2   6   16.05    0.68
   6   2   6   15.75    0.68
  -6  -2  -7    2.59    0.47
   6  -2   7    2.92    0.40
  -6  -2  -7    2.76    0.37
   6   2   7    2.89    0.52
   6  -2   7    2.86    0.52
  -6   2  -7    3.20    0.40
   6   2   7    2.93    0.41
  -6  -2  -8    0.39    0.29
   6   2   8   -0.35    0.41
   6  -2   8   -0.47    0.45
  -6   2  -8    0.47    0.29
   6   2   8    0.19    0.33
   6  -2   8    0.08    0.32
  -6  -2  -9    0.18    0.29
   6   2   9    0.14    0.43
   6  -2   9    0.00    0.44
  -6   2  -9    0.14    0.31
   6   2   9   -0.12    0.34
   6  -2   9   -0.04    0.34
   6   2  10   21.15    1.30
   6  -2  10   23.68    1.34
   6   2  10   21.41    1.08
   6  -2  10   22.88    1.10
   6   2  11    3.00    0.70
   6  -2  11    2.28    0.65
   6   2  11    2.01    0.52
   6  -2  11    0.69    0.43
   6  -2  12   57.18    2.34
   6   2  12   54.94    2.27
   6  -2  12   59.93    2.02
   6   2  12   59.66    2.02
   6  -2  13    1.12    0.62
   6   2  13    1.57    0.66
   6   2  13   -0.73    0.52
   6  -2  13    0.81    0.52
   6   2  14    2.59    0.72
   6   2  14    2.29    0.67
   6  -2  14    3.20    0.71
   6  -2  15    0.07    0.54
   6   2  15    0.13    0.57
  -6  -3  15   15.21    1.32
  -6   3  15   15.65    1.33
  -6  -3  14    0.61    0.59
  -6   3  14    0.57    0.62
  -6  -3  13   34.92    1.72
  -6   3  13   33.05    1.70
  -6  -3  12    7.43    0.87
  -6   3  12    8.32    0.89
  -6  -3  11   48.35    1.89
  -6   3  11   46.80    1.83
  -6  -3  10   31.34    1.41
  -6   3  10   33.85    1.47
  -6  -3   9    9.62    0.78
  -6   3   9    9.44    0.78
  -6  -3   8    0.04    0.38
   6  -3  -8   -0.24    0.33
   6   3  -8    0.26    0.32
  -6   3   8   -0.24    0.44
  -6  -3   7   72.70    1.93
   6  -3  -7   75.79    1.93
   6   3  -7   75.72    1.91
  -6   3   7   72.61    1.92
   6  -3  -6   11.78    0.69
  -6  -3   6   11.41    0.72
   6   3  -6   11.83    0.68
  -6   3   6   12.72    0.73
  -6  -3   5   60.24    1.54
   6   3  -5   62.88    1.51
  -6   3   5   58.52    1.50
   6  -3  -5   59.21    1.50
  -6  -3   4   11.19    0.62
   6   3  -4   10.77    0.56
  -6   3   4   10.81    0.59
   6  -3  -4   11.21    0.58
  -6  -3   3    7.24    0.44
   6   3  -3    6.14    0.39
  -6   3   3    6.50    0.43
   6  -3  -3    7.82    0.43
   6  -3  -2   10.85    0.64
   6   3  -2   10.94    0.45
   6  -3  -2   12.20    0.47
  -6   3   2   11.38    0.47
   6  -3  -1  177.40    3.10
   6   3  -1  173.70    3.26
  -6  -3   1  174.22    2.52
   6  -3  -1  169.02    2.60
   6   3  -1  168.73    2.59
   6  -3  -1  183.25    2.54
  -6   3   0    5.06    0.49
   6  -3   0    5.43    0.53
   6   3   0    5.17    0.54
   6  -3   0    5.40    0.49
   6  -3   0    5.07    0.27
  -6  -3   0    4.83    0.25
   6  -3   0    5.10    0.25
  -6  -3  -1    3.47    0.43
   6  -3   1    3.64    0.46
  -6   3  -1    4.85    0.48
   6   3   1    3.54    0.43
   6  -3   1    3.76    0.46
   6   3   1    3.56    0.46
  -6   3  -1    3.29    0.24
   6  -3   1    4.32    0.26
  -6  -3  -1    3.53    0.24
   6  -3   1    3.46    0.20
  -6  -3  -1    3.60    0.24
   6   3   2    2.37    0.39
   6  -3   2    2.94    0.44
  -6  -3  -2    2.47    0.39
  -6   3  -2    3.21    0.41
   6  -3   2    2.69    0.41
  -6   3  -2    2.83    0.40
   6   3   2    3.06    0.46
  -6   3  -2    2.53    0.23
   6  -3   2    3.13    0.25
  -6  -3  -2    3.30    0.25
  -6  -3  -2    2.72    0.22
  -6  -3  -3   17.49    0.87
  -6   3  -3   18.58    0.92
   6  -3   3   17.24    0.52
   6  -3   3   16.16    0.83
   6   3   3   17.60    0.91
  -6   3  -3   16.13    0.82
  -6   3  -3   17.03    0.59
  -6  -3  -3   15.81    0.52
  -6   3  -4    3.81    0.48
   6  -3   4    3.64    0.31
  -6  -3  -4    4.22    0.47
   6   3   4    3.13    0.49
   6  -3   4    3.71    0.48
  -6   3  -4    4.13    0.49
  -6  -3  -4    4.28    0.49
  -6   3  -4    3.07    0.30
   6   3   4    3.73    0.32
  -6  -3  -4    3.94    0.32
  -6  -3  -5  112.07    2.49
   6  -3   5  112.69    2.02
  -6   3  -5  114.12    2.70
   6   3   5  110.83    2.60
   6  -3   5  110.40    2.57
  -6   3  -5  114.98    2.66
  -6  -3  -5  111.17    2.58
  -6   3  -5  111.86    2.13
  -6  -3  -5  111.81    2.06
   6   3   5  111.92    2.06
  -6  -3  -6    5.84    0.57
  -6  -3  -6    6.52    0.46
   6  -3   6    5.76    0.61
  -6  -3  -6    7.07    0.64
   6   3   6    6.53    0.63
  -6   3  -6    6.18    0.65
  -6   3  -6    6.59    0.50
   6  -3   6    6.59    0.47
   6   3   6    6.52    0.48
  -6  -3  -7    0.54    0.35
   6  -3   7    0.93    0.30
  -6  -3  -7    1.00    0.31
   6   3   7    0.37    0.39
   6  -3   7    0.30    0.37
  -6   3  -7    0.66    0.39
   6   3   7    0.85    0.32
   6  -3   8    0.66    0.34
  -6  -3  -8    0.41    0.30
   6  -3   8    0.05    0.47
   6   3   8   -0.23    0.43
  -6   3  -8    0.42    0.28
   6   3   8    0.44    0.32
  -6  -3  -9    7.04    0.63
   6  -3   9    6.81    0.62
   6   3   9    4.54    0.66
   6  -3   9    6.01    0.74
  -6   3  -9    6.57    0.61
   6   3   9    6.54    0.63
   6  -3  10   13.51    1.10
   6   3  10   13.43    1.08
   6   3  10   12.72    0.86
   6  -3  10   13.75    0.90
   6   3  11   18.60    1.28
   6  -3  11   17.18    1.25
   6   3  11   17.61    1.06
   6  -3  11   17.69    1.07
   6  -3  12    2.83    0.73
   6   3  12    1.91    0.64
   6  -3  12   -0.12    0.45
   6   3  12   -0.23    0.48
   6   3  13   13.25    1.22
   6  -3  13   15.29    1.28
   6   3  13   15.08    1.11
   6  -3  13   14.39    1.07
   6   3  14    0.66    0.61
   6  -3  14    0.25    0.51
   6   3  14    0.39    0.52
   6  -3  15    3.76    0.75
   6   3  15    2.17    0.71
  -6  -4  15    4.24    0.87
  -6   4  15    4.60    0.85
  -6  -4  14   20.08    1.38
  -6   4  14   20.48    1.42
  -6  -4  13    2.28    0.65
  -6   4  13    2.84    0.69
  -6  -4  12   75.32    2.46
  -6   4  12   72.32    2.44
  -6  -4  11    0.96    0.51
  -6   4  11    0.33    0.47
  -6  -4  10   23.19    1.22
  -6   4  10   22.00    1.22
  -6  -4   9    7.19    0.69
  -6   4   9    7.03    0.71
   6  -4  -8   99.87    2.41
  -6  -4   8   95.57    2.40
   6   4  -8   92.33    2.33
  -6   4   8   98.00    2.40
   6  -4  -7  110.87    2.46
  -6  -4   7  105.42    2.46
   6   4  -7  110.09    2.45
  -6   4   7  105.36    2.46
  -6  -4   6  103.22    2.28
   6   4  -6  100.45    2.23
   6  -4  -6  103.34    2.25
  -6   4   6  100.78    2.26
  -6  -4   5    5.85    0.51
   6  -4  -5    5.38    0.45
   6   4  -5    6.00    0.48
  -6   4   5    5.92    0.51
  -6  -4   4    9.84    0.59
   6   4  -4   10.59    0.56
   6  -4  -4   11.04    0.58
  -6   4   4    9.85    0.58
   6   4  -3   41.59    1.07
  -6  -4   3   42.88    1.07
  -6   4   3   43.19    1.11
   6  -4  -3   44.61    1.10
   6  -4  -2    0.44    0.30
   6   4  -2    0.88    0.22
  -6  -4   2    1.10    0.23
  -6   4   2    1.02    0.23
   6  -4  -2    1.15    0.21
   6  -4  -2    1.44    0.27
   6   4  -1    1.00    0.36
   6  -4  -1    1.03    0.34
   6  -4  -1    0.68    0.29
  -6  -4   1    0.76    0.19
   6   4  -1    0.59    0.23
   6  -4  -1    0.39    0.22
   6  -4  -1    0.50    0.18
   6   4   0  108.47    2.37
   6  -4   0  110.97    2.35
  -6   4   0  103.83    2.24
   6  -4   0  110.64    2.22
  -6  -4   0  109.96    1.80
   6  -4   0  109.22    1.83
   6  -4   0  108.32    1.74
  -6   4  -1   29.52    1.08
   6   4   1   30.80    1.08
   6  -4   1   31.14    1.15
   6   4   1   30.27    1.13
   6  -4   1   31.35    1.08
  -6   4  -1   28.11    0.76
  -6  -4  -1   29.03    0.77
   6  -4   1   30.26    0.76
   6  -4   1   31.41    0.73
  -6  -4  -1   30.27    0.78
  -6  -4  -2    0.09    0.26
   6   4   2    0.32    0.29
  -6   4  -2    0.71    0.30
   6  -4   2    0.88    0.33
  -6   4  -2    0.56    0.31
   6   4   2    0.20    0.30
  -6   4  -2    0.52    0.19
   6  -4   2    0.19    0.18
  -6  -4  -2    0.74    0.21
  -6  -4  -2    0.29    0.16
  -6   4  -3    2.61    0.44
   6   4   3    1.98    0.41
  -6   4  -3    1.76    0.37
   6  -4   3    2.36    0.41
  -6  -4  -3    2.19    0.38
  -6   4  -3    2.35    0.28
   6  -4   3    2.78    0.30
  -6  -4  -3    2.55    0.26
  -6  -4  -3    2.77    0.30
  -6  -4  -4   41.62    1.33
  -6   4  -4   42.98    1.50
  -6  -4  -4   44.43    1.45
   6  -4   4   42.76    1.04
   6  -4   4   42.97    1.40
   6   4   4   42.61    1.44
  -6   4  -4   43.05    1.45
  -6   4  -4   41.93    1.11
  -6  -4  -4   41.21    1.05
   6   4   4   43.14    1.10
   6  -4   5    6.86    0.46
  -6  -4  -5    7.08    0.64
  -6   4  -5    6.68    0.66
  -6  -4  -5    6.91    0.58
   6  -4   5    7.00    0.66
   6   4   5    7.11    0.66
  -6   4  -5    7.46    0.67
  -6   4  -5    5.84    0.45
  -6  -4  -5    6.41    0.45
   6   4   5    6.47    0.47
  -6  -4  -6   11.20    0.74
   6  -4   6   11.37    0.62
   6   4   6   10.31    0.79
   6  -4   6   11.02    0.79
  -6   4  -6   10.74    0.81
  -6  -4  -6   11.72    0.80
  -6   4  -6   12.28    0.67
   6   4   6   12.04    0.65
  -6  -4  -6   10.87    0.60
  -6  -4  -7    2.29    0.41
  -6  -4  -7    3.24    0.41
   6  -4   7    3.40    0.43
   6   4   7    3.14    0.55
   6  -4   7    2.41    0.48
  -6   4  -7    3.44    0.45
   6   4   7    3.11    0.44
   6  -4   8    0.34    0.33
  -6  -4  -8    0.36    0.30
   6   4   8   -0.09    0.45
   6  -4   8   -0.16    0.40
  -6   4  -8   -0.08    0.30
   6   4   8    0.49    0.33
   6   4   9    1.56    0.52
   6  -4   9    0.65    0.43
   6  -4   9    1.83    0.43
  -6  -4  -9    0.97    0.37
   6   4   9    1.44    0.42
   6   4  10   23.72    1.38
   6  -4  10   28.15    1.50
   6   4  10   27.06    1.25
   6  -4  10   28.91    1.25
   6   4  11    6.68    0.85
   6  -4  11    8.94    1.00
   6  -4  11    7.26    0.77
   6   4  11    7.10    0.75
   6  -4  12   23.75    1.50
   6   4  12   23.07    1.48
   6   4  12   24.11    1.31
   6  -4  12   24.79    1.32
   6   4  13    2.36    0.75
   6  -4  13    1.87    0.71
   6   4  13    1.95    0.60
   6  -4  13    0.55    0.64
   6   4  14    0.25    0.54
   6  -4  14   -1.01    0.61
   6   4  14    0.45    0.59
   6  -4  15    1.05    0.64
   6   4  15    0.16    0.56
  -6  -5  14    1.03    0.65
  -6   5  14   -0.59    0.61
  -6   5  13   57.12    2.28
  -6  -5  13   57.93    2.26
  -6  -5  12    3.89    0.75
  -6   5  12    5.13    0.78
  -6  -5  11   13.25    1.02
  -6   5  11   13.71    1.03
  -6  -5  10    1.89    0.50
  -6   5  10    1.74    0.53
  -6  -5   9   -0.33    0.44
  -6   5   9   -0.09    0.39
  -6  -5   8   15.42    0.92
   6   5  -8   15.30    0.89
  -6   5   8   16.12    0.96
  -6  -5   7  233.09    4.25
   6   5  -7  240.69    4.26
  -6   5   7  236.84    4.26
   6  -5  -7  245.02    4.26
  -6  -5   6   32.92    1.22
   6   5  -6   33.73    1.21
  -6   5   6   34.00    1.22
   6  -5  -6   34.39    1.19
  -6  -5   5   84.79    1.96
   6   5  -5   81.86    1.91
   6  -5  -5   85.87    1.92
  -6   5   5   84.90    1.96
   6   5  -4    8.99    0.56
  -6  -5   4    9.52    0.56
  -6   5   4    9.53    0.60
   6  -5  -4    9.80    0.56
   6  -5  -3   15.34    0.74
   6   5  -3   15.23    0.66
  -6  -5   3   16.16    0.67
   6  -5  -3   15.59    0.66
  -6   5   3   15.61    0.69
   6  -5  -2    8.88    0.56
   6  -5  -2   10.14    0.52
  -6  -5   2    9.51    0.49
   6   5  -2    9.14    0.49
  -6   5   2    9.51    0.51
   6  -5  -2    9.50    0.47
   6   5  -1    0.35    0.31
   6  -5  -1    0.24    0.29
   6  -5  -1    0.30    0.24
   6  -5  -1    0.32    0.26
   6   5  -1    0.76    0.26
  -6  -5   1    0.67    0.21
   6  -5  -1    0.72    0.20
   6   5   0   38.37    1.30
   6  -5   0   40.92    1.29
  -6   5   0   35.84    1.18
   6  -5   0   39.33    1.18
  -6  -5   0   39.47    0.98
   6  -5   0   36.56    0.98
   6  -5   0   38.21    0.91
   6   5   0   38.48    0.97
  -6   5  -1   58.43    1.56
   6   5   1   58.06    1.63
   6   5   1   53.73    1.48
   6  -5   1   62.09    1.67
   6  -5   1   58.50    1.53
  -6  -5  -1   53.51    1.25
   6  -5   1   60.62    1.26
  -6   5  -1   54.60    1.25
   6  -5   1   59.52    1.22
  -6  -5  -1   60.57    1.29
  -6   5  -2   23.24    0.99
  -6   5  -2   25.76    1.07
   6   5   2   22.26    0.91
  -6  -5  -2   25.40    1.03
   6   5   2   22.55    1.02
   6  -5   2   25.46    0.98
  -6  -5  -2   25.42    0.82
   6  -5   2   26.00    0.78
  -6   5  -2   24.89    0.85
  -6  -5  -2   24.88    0.76
  -6  -5  -3   29.35    1.13
  -6   5  -3   29.57    1.20
   6  -5   3   28.64    1.11
  -6   5  -3   28.43    1.12
   6   5   3   28.98    1.17
   6  -5   3   29.79    0.89
  -6   5  -3   29.63    0.92
  -6  -5  -3   31.03    0.91
  -6  -5  -3   29.07    0.85
  -6   5  -4    3.07    0.50
   6  -5   4    2.83    0.32
   6   5   4    2.75    0.46
  -6  -5  -4    2.74    0.45
  -6   5  -4    2.36    0.43
   6  -5   4    2.45    0.45
  -6   5  -4    2.81    0.35
   6  -5   4    3.08    0.37
  -6  -5  -4    2.54    0.31
  -6  -5  -5   95.48    2.23
  -6   5  -5   98.87    2.54
   6  -5   5  103.11    1.99
  -6  -5  -5  101.04    2.41
   6   5   5   93.50    2.37
   6  -5   5  100.60    2.41
  -6   5  -5  102.37    2.49
  -6   5  -5   97.82    2.06
  -6  -5  -5   99.70    2.01
   6   5   5   98.83    2.04
  -6  -5  -6    0.13    0.28
  -6  -5  -6    0.17    0.24
   6  -5   6   -0.04    0.27
   6  -5   6   -0.38    0.38
  -6  -5  -6    0.07    0.28
   6   5   6   -0.37    0.35
  -6   5  -6   -0.11    0.25
   6   5   6    0.26    0.29
  -6  -5  -7    2.93    0.42
  -6  -5  -7    3.02    0.40
   6  -5   7    2.86    0.42
   6   5   7    3.59    0.55
   6  -5   7    2.67    0.50
  -6   5  -7    3.03    0.42
   6   5   7    3.68    0.46
  -6  -5  -8   -0.36    0.34
  -6  -5  -8   -0.20    0.28
   6  -5   8   -0.46    0.37
   6   5   8   -0.18    0.43
   6  -5   8    0.24    0.38
  -6   5  -8    0.57    0.32
   6   5   8    0.08    0.33
   6  -5   9    6.61    0.76
   6   5   9    4.92    0.68
   6  -5   9    5.78    0.62
  -6  -5  -9    6.73    0.62
   6   5   9    6.23    0.64
   6  -5  10   11.90    1.01
   6   5  10    9.08    0.89
   6   5  10   11.69    0.87
   6  -5  10   10.75    0.82
   6  -5  11   52.80    2.14
   6   5  11   48.78    2.04
   6   5  11   51.78    1.85
   6  -5  11   51.17    1.81
   6  -5  12    0.46    0.60
   6   5  12    0.67    0.53
   6  -5  12   -1.10    0.54
   6   5  12    0.54    0.48
   6   5  13    2.27    0.69
   6   5  13    1.73    0.57
   6  -5  13   -0.09    0.79
   6   5  14    1.60    0.72
   6  -5  14   -0.14    0.55
   6   5  14    0.42    0.56
   6  -5  15    2.82    0.69
   6   5  15    2.22    0.71
  -6   6  14   14.22    1.26
  -6  -6  14   15.39    1.28
  -6  -6  13    0.28    0.55
  -6   6  13   -0.83    0.60
  -6  -6  12   54.58    2.11
  -6   6  12   55.86    2.15
  -6  -6  11    0.58    0.52
  -6   6  11   -0.51    0.53
  -6  -6  10   -0.74    0.53
  -6   6  10    0.09    0.49
  -6  -6   9    0.24    0.43
  -6   6   9    1.46    0.50
  -6  -6   8    4.52    0.59
  -6   6   8    4.22    0.59
  -6  -6   7   43.36    1.49
   6   6  -7   43.44    1.49
  -6   6   7   41.97    1.50
   6  -6  -7   43.24    1.45
  -6  -6   6  248.94    4.40
   6   6  -6  259.83    4.42
   6  -6  -6  263.69    4.40
  -6   6   6  256.12    4.44
  -6  -6   5    0.55    0.30
   6   6  -5    0.16    0.29
  -6   6   5    0.69    0.34
   6  -6  -5    0.26    0.26
   6   6  -4   10.64    0.62
  -6  -6   4   10.54    0.62
   6  -6  -4   10.69    0.60
  -6   6   4   11.56    0.68
   6  -6  -3    0.88    0.28
   6   6  -3    0.75    0.28
  -6  -6   3    1.08    0.29
  -6   6   3    0.66    0.29
   6  -6  -3    0.82    0.26
   6  -6  -3    0.88    0.25
   6  -6  -2   36.94    1.22
   6  -6  -2   37.68    1.12
   6   6  -2   36.63    1.10
   6  -6  -2   37.98    1.11
  -6  -6   2   38.06    1.06
   6  -6  -2   38.01    1.04
   6   6  -1    1.31    0.37
   6  -6  -1    1.04    0.28
   6  -6  -1    0.93    0.24
  -6  -6   1    1.32    0.27
   6  -6  -1    1.16    0.27
   6   6  -1    1.32    0.29
   6  -6  -1    1.46    0.25
   6   6   0   98.65    2.27
  -6   6   0   95.54    2.11
   6  -6   0  102.75    2.25
   6  -6   0  102.84    2.08
  -6  -6   0  102.53    1.95
   6  -6   0   99.94    1.97
   6   6   0   96.95    1.91
   6  -6   0  101.25    1.87
   6  -6   1    0.61    0.33
   6   6   1    0.34    0.27
  -6   6  -1    0.23    0.25
   6  -6   1    0.31    0.28
   6   6   1    0.60    0.35
   6  -6   1    0.36    0.25
  -6  -6  -1    0.11    0.22
  -6   6  -1   -0.02    0.21
   6  -6   1   -0.11    0.22
  -6  -6  -1   -0.07    0.21
  -6  -6  -2    1.67    0.36
   6   6   2    2.01    0.34
  -6   6  -2    1.88    0.35
   6  -6   2    1.68    0.34
  -6   6  -2    1.93    0.33
   6   6   2    1.39    0.36
   6  -6   2    2.44    0.32
  -6   6  -2    1.71    0.28
  -6  -6  -2    0.97    0.26
  -6  -6  -2    2.37    0.30
  -6  -6  -3    6.68    0.59
  -6   6  -3    6.21    0.60
   6   6   3    6.62    0.60
   6  -6   3    6.25    0.55
  -6   6  -3    5.79    0.53
  -6   6  -3    5.97    0.46
   6  -6   3    6.83    0.46
  -6  -6  -3    7.15    0.48
  -6  -6  -3    6.77    0.45
  -6  -6  -4   75.50    1.98
  -6   6  -4   79.20    2.16
  -6   6  -4   73.00    1.99
   6  -6   4   76.41    1.96
   6   6   4   68.83    1.93
   6  -6   4   76.47    1.71
  -6   6  -4   73.80    1.74
  -6  -6  -4   75.69    1.72
  -6  -6  -4   75.97    1.66
   6  -6   5    2.69    0.38
  -6   6  -5    2.61    0.51
  -6  -6  -5    2.00    0.37
   6   6   5    2.32    0.45
   6  -6   5    2.55    0.49
  -6  -6  -5    2.06    0.42
  -6   6  -5    1.90    0.42
  -6   6  -5    2.06    0.35
  -6  -6  -5    2.36    0.35
   6  -6   6    4.14    0.45
  -6  -6  -6    3.39    0.46
  -6  -6  -6    3.15    0.48
   6  -6   6    2.06    0.45
   6   6   6    2.56    0.51
  -6   6  -6    2.79    0.39
  -6  -6  -6    3.48    0.42
   6   6   6    3.88    0.47
  -6  -6  -7    0.63    0.31
  -6  -6  -7    0.81    0.30
   6  -6   7    0.96    0.33
   6   6   7    0.56    0.38
   6  -6   7    1.41    0.45
  -6   6  -7    0.54    0.28
   6   6   7    0.47    0.32
  -6  -6  -8   -0.53    0.37
  -6  -6  -8   -0.03    0.29
   6  -6   8   -0.23    0.37
   6   6   8    0.11    0.43
   6  -6   8   -0.37    0.48
  -6   6  -8   -0.08    0.30
   6   6   8    0.34    0.38
   6   6   9    3.82    0.61
   6  -6   9    3.61    0.63
   6  -6   9    3.14    0.53
   6   6   9    3.50    0.56
   6   6  10   21.97    1.32
   6  -6  10   22.92    1.38
   6  -6  10   23.99    1.21
   6   6  10   24.86    1.24
   6   6  11    2.81    0.68
   6  -6  11    2.64    0.74
   6  -6  11    2.42    0.58
   6   6  11    2.32    0.58
   6   6  12   22.84    1.47
   6  -6  12   21.00    1.45
   6   6  12   23.14    1.32
   6  -6  12   23.14    1.30
   6   6  13    3.09    0.76
   6  -6  13    2.89    0.66
   6   6  13    1.21    0.58
   6   6  14    0.97    0.61
   6   6  14    0.53    0.56
   6  -6  14    0.56    0.57
   6  -6  15    1.05    0.63
   6   6  15    1.18    0.64
  -6  -7  14   -1.12    0.67
  -6   7  14   -0.31    0.57
  -6  -7  13   18.98    1.33
  -6   7  13   19.16    1.38
  -6  -7  12    2.19    0.66
  -6   7  12    1.50    0.60
  -6  -7  11    2.75    0.64
  -6   7  11    1.51    0.59
  -6  -7  10    0.42    0.49
  -6   7  10    1.02    0.50
  -6  -7   9   13.46    0.98
  -6   7   9   14.21    1.01
  -6  -7   8   24.62    1.22
  -6   7   8   25.90    1.25
  -6  -7   7   98.26    2.45
   6   7  -7  100.71    2.48
   6  -7  -7  105.18    2.45
  -6   7   7  102.64    2.52
  -6  -7   6    1.38    0.37
   6   7  -6    2.10    0.39
   6  -7  -6    2.35    0.41
  -6   7   6    2.75    0.48
   6   7  -5   27.73    1.09
  -6  -7   5   26.21    1.05
   6  -7  -5   28.14    1.06
  -6   7   5   27.19    1.11
  -6  -7   4   17.76    0.81
   6   7  -4   17.04    0.82
  -6   7   4   17.33    0.85
   6  -7  -4   17.02    0.78
   6  -7  -3   43.74    1.24
  -6  -7   3   47.89    1.31
   6   7  -3   44.00    1.31
   6  -7  -3   43.80    1.30
   6  -7  -3   44.55    1.26
  -6   7   3   44.91    1.33
   6  -7  -2    0.60    0.32
   6  -7  -2    0.81    0.26
  -6  -7   2    0.72    0.30
   6   7  -2    0.56    0.29
   6  -7  -2    0.90    0.33
   6  -7  -2    0.77    0.23
   6   7  -1    6.05    0.57
   6  -7  -1    6.55    0.52
   6  -7  -1    5.63    0.43
  -6  -7   1    7.01    0.50
   6   7  -1    6.48    0.50
   6  -7  -1    6.02    0.50
   6  -7  -1    6.46    0.44
  -6   7   0   12.34    0.67
   6   7   0   11.88    0.75
   6  -7   0   13.24    0.75
   6  -7   0   13.31    0.68
  -6  -7   0   12.23    0.64
   6  -7   0   12.75    0.67
   6   7   0   12.49    0.64
   6  -7   0   12.93    0.61
  -6   7  -1   60.11    1.59
   6   7   1   59.78    1.68
   6   7   1   59.85    1.53
   6  -7   1   61.26    1.54
   6  -7   1   62.43    1.50
  -6   7  -1   59.74    1.49
  -6  -7  -1   59.80    1.48
   6  -7   1   57.36    1.42
  -6  -7  -1   60.93    1.50
  -6   7  -2   20.60    0.92
  -6   7  -2   22.15    1.04
   6   7   2   21.24    0.87
   6  -7   2   22.75    0.94
   6   7   2   21.11    0.98
  -6   7  -2   22.17    0.93
  -6  -7  -2   22.86    0.90
   6  -7   2   24.02    0.87
  -6  -7  -2   23.06    0.86
  -6  -7  -3   33.57    1.24
  -6   7  -3   33.29    1.32
   6  -7   3   34.42    1.20
  -6   7  -3   32.45    1.22
   6   7   3   30.57    1.21
  -6  -7  -3   33.70    1.11
   6  -7   3   34.83    1.09
  -6   7  -3   32.94    1.15
  -6  -7  -3   34.40    1.07
  -6  -7  -4   12.95    0.80
  -6   7  -4   14.60    0.92
  -6   7  -4   13.06    0.82
   6  -7   4   14.60    0.83
   6   7   4   12.98    0.82
   6  -7   4   13.65    0.72
  -6   7  -4   13.32    0.73
  -6  -7  -4   12.88    0.67
  -6  -7  -4   13.76    0.72
  -6  -7  -5   60.18    1.81
   6   7   5   59.33    1.81
  -6   7  -5   65.01    1.93
   6  -7   5   61.49    1.83
   6  -7   5   63.41    1.66
  -6   7  -5   62.83    1.69
  -6  -7  -5   64.29    1.62
  -6  -7  -6   27.80    1.13
  -6  -7  -6   29.04    1.27
   6  -7   6   31.60    1.12
   6   7   6   30.04    1.31
   6  -7   6   29.35    1.30
  -6   7  -6   28.62    1.15
  -6  -7  -6   31.22    1.13
   6   7   6   31.18    1.17
   6  -7   7    0.86    0.39
  -6  -7  -7    0.65    0.30
   6   7   7    1.00    0.40
   6  -7   7    0.82    0.39
  -6   7  -7    0.36    0.30
  -6  -7  -7    1.16    0.35
   6   7   7    0.49    0.36
   6  -7   8    0.52    0.40
   6   7   8    0.51    0.41
  -6  -7  -8    0.15    0.29
  -6  -7  -8    1.25    0.38
   6  -7   8    1.26    0.42
   6   7   8    0.40    0.39
   6   7   9   -0.31    0.46
   6  -7   9    0.94    0.50
   6  -7   9    0.45    0.39
   6   7   9    0.30    0.39
   6  -7  10    1.84    0.58
   6   7  10    2.32    0.59
   6  -7  10    2.62    0.54
   6   7  10    1.96    0.54
   6  -7  11   30.30    1.65
   6   7  11   30.18    1.60
   6  -7  11   30.09    1.43
   6   7  11   31.71    1.51
   6   7  12    0.42    0.58
   6  -7  12    2.48    0.71
   6  -7  12    1.38    0.60
   6   7  12    0.78    0.54
   6   7  13    6.70    0.90
   6  -7  13    7.01    0.84
   6   7  13    5.76    0.83
   6  -7  14    1.46    0.65
   6   7  14    0.51    0.55
   6   7  15    3.58    0.82
  -6  -8  14    1.26    0.64
  -6   8  14    3.12    0.78
  -6  -8  13    2.20    0.68
  -6   8  13    1.18    0.63
  -6  -8  12   22.78    1.42
  -6   8  12   20.83    1.39
  -6  -8  11    1.24    0.56
  -6   8  11    0.11    0.55
  -6  -8  10   14.07    1.04
  -6   8  10   14.08    1.07
  -6  -8   9   19.87    1.18
  -6   8   9   18.69    1.17
  -6  -8   8  100.65    2.62
  -6   8   8  100.85    2.64
  -6  -8   7   18.43    1.03
  -6   8   7   18.04    1.04
  -6  -8   6   51.23    1.61
   6   8  -6   51.95    1.66
   6  -8  -6   49.90    1.56
  -6   8   6   54.37    1.75
   6   8  -5    6.27    0.57
  -6  -8   5    6.37    0.58
   6  -8  -5    6.83    0.58
  -6   8   5    5.39    0.56
   6  -8  -4    0.01    0.23
   6   8  -4    0.02    0.28
  -6  -8   4    0.41    0.33
   6  -8  -4    0.45    0.29
   6  -8  -4    0.28    0.35
  -6   8   4   -0.06    0.33
   6  -8  -3    1.26    0.33
   6  -8  -3    1.37    0.28
  -6  -8   3    1.15    0.33
   6   8  -3    1.34    0.33
   6  -8  -3    1.36    0.30
   6  -8  -3    1.70    0.38
   6  -8  -2  125.71    2.57
   6  -8  -2  124.63    2.32
   6  -8  -2  120.87    2.60
   6   8  -2  119.29    2.57
  -6  -8   2  128.56    2.52
   6  -8  -2  126.82    2.45
   6  -8  -1   72.59    1.84
   6   8  -1   72.80    1.95
   6  -8  -1   73.01    1.65
  -6  -8   1   76.00    1.78
   6  -8  -1   76.37    1.87
   6   8  -1   77.52    1.85
   6  -8  -1   74.14    1.72
   6   8   0   21.98    1.01
   6  -8   0   23.63    0.99
  -6   8   0   23.68    0.91
   6  -8   0   24.42    0.88
  -6  -8   0   22.83    0.92
   6  -8   0   22.56    0.93
   6   8   0   22.83    0.92
   6  -8   0   24.59    0.90
  -6   8  -1   19.04    0.85
   6   8   1   18.41    0.92
   6   8   1   20.62    0.83
   6  -8   1   18.55    0.80
   6  -8   1   19.18    0.85
  -6  -8  -1   20.13    0.86
  -6   8  -1   18.73    0.84
   6  -8   1   19.53    0.83
  -6  -8  -1   18.60    0.84
  -6   8  -2   65.31    1.75
   6   8   2   65.91    1.60
  -6   8  -2   69.01    1.93
   6  -8   2   67.08    1.69
   6   8   2   63.95    1.79
   6  -8   2   67.80    1.67
  -6  -8  -2   68.38    1.75
  -6   8  -2   69.81    1.80
  -6  -8  -2   67.47    1.68
  -6   8  -3    3.04    0.48
  -6  -8  -3    1.82    0.35
   6   8   3    2.55    0.44
   6  -8   3    2.83    0.43
  -6   8  -3    2.01    0.37
   6  -8   3    2.93    0.41
  -6   8  -3    2.96    0.44
  -6  -8  -3    2.68    0.37
  -6  -8  -3    2.26    0.38
  -6   8  -4  144.57    3.19
  -6  -8  -4  138.92    2.91
  -6   8  -4  137.83    2.96
   6  -8   4  139.88    2.88
   6   8   4  133.04    2.89
  -6  -8  -4  135.68    2.74
  -6   8  -4  135.71    2.81
   6  -8   4  139.72    2.74
  -6  -8  -4  140.03    2.71
  -6  -8  -5   48.24    1.60
   6   8   5   47.42    1.60
  -6   8  -5   48.02    1.65
   6  -8   5   48.07    1.61
   6  -8   5   50.89    1.51
  -6   8  -5   49.44    1.54
  -6  -8  -5   49.61    1.46
  -6  -8  -5   47.81    1.50
   6  -8   6  105.73    2.31
  -6  -8  -6   99.74    2.28
  -6  -8  -6  100.21    2.53
   6  -8   6  100.42    2.56
   6   8   6  101.19    2.55
   6  -8   6  101.38    2.38
  -6   8  -6  103.09    2.44
  -6  -8  -6  104.30    2.34
   6  -8   7    2.63    0.47
  -6  -8  -7    1.91    0.40
   6   8   7    2.62    0.51
   6  -8   7    1.85    0.49
  -6   8  -7    1.36    0.37
  -6  -8  -7    2.37    0.42
   6   8   7    2.26    0.48
   6  -8   8    1.49    0.49
   6   8   8    1.29    0.44
   6  -8   8    1.62    0.44
  -6  -8  -8    1.69    0.39
   6   8   8    1.83    0.46
   6   8   9    4.08    0.65
   6  -8   9    3.61    0.63
   6  -8   9    3.55    0.57
   6   8   9    3.91    0.61
   6  -8  10    4.92    0.76
   6   8  10    5.75    0.74
   6  -8  10    6.27    0.71
   6   8  10    6.62    0.75
   6  -8  11    4.48    0.80
   6   8  11    4.85    0.77
   6  -8  11    4.98    0.70
   6   8  11    4.60    0.73
   6   8  12   28.54    1.62
   6  -8  12   30.12    1.55
   6   8  12   29.25    1.56
   6   8  13    6.02    0.91
   6  -8  13    5.21    0.83
   6   8  13    5.06    0.85
   6  -8  14    0.77    0.61
   6   8  14    1.84    0.67
  -6  -9  13    9.30    1.06
  -6   9  13    8.67    1.03
  -6  -9  12    3.80    0.76
  -6   9  12    4.55    0.84
  -6  -9  11    5.12    0.81
  -6   9  11    6.05    0.81
  -6  -9  10   -0.02    0.50
  -6   9  10    0.21    0.47
  -6  -9   9   87.63    2.54
  -6   9   9   90.15    2.60
  -6  -9   8    1.56    0.52
  -6   9   8    0.81    0.46
  -6  -9   7   35.91    1.46
  -6  -9   7   34.95    1.43
  -6   9   7   39.44    1.58
   6   9  -6    3.35    0.51
  -6  -9   6    3.89    0.55
  -6   9   6    4.33    0.60
   6   9  -5    4.39    0.54
  -6  -9   5    5.20    0.57
   6  -9  -5    4.68    0.58
   6  -9  -5    4.17    0.48
  -6   9   5    4.45    0.57
   6  -9  -4    2.42    0.32
   6   9  -4    2.81    0.44
  -6  -9   4    3.28    0.47
   6  -9  -4    2.76    0.43
   6  -9  -4    2.38    0.45
  -6   9   4    2.74    0.46
   6  -9  -3   15.88    0.69
   6  -9  -3   16.63    0.83
   6  -9  -3   16.75    0.91
   6   9  -3   15.35    0.86
  -6  -9   3   16.71    0.86
   6  -9  -3   17.45    0.84
   6  -9  -2    0.55    0.30
   6  -9  -2    0.32    0.23
   6  -9  -2   -0.17    0.36
  -6  -9   2    0.21    0.30
   6   9  -2   -0.03    0.35
   6  -9  -2    0.27    0.25
   6  -9  -1  108.93    2.39
   6   9  -1  111.38    2.52
   6  -9  -1  112.54    2.15
  -6  -9   1  109.85    2.38
   6  -9  -1  112.85    2.47
   6   9  -1  111.04    2.43
   6  -9  -1  110.80    2.34
   6   9   0   58.94    1.68
   6  -9   0   56.98    1.41
  -6  -9   0   50.76    1.53
   6  -9   0   57.97    1.63
   6   9   0   57.16    1.59
   6  -9   0   56.46    1.55
  -6   9  -1    3.35    0.40
   6   9   1    3.99    0.40
   6  -9   1    3.59    0.41
   6   9   1    3.71    0.46
  -6  -9  -1    3.74    0.46
   6  -9   1    3.96    0.48
  -6   9  -1    3.58    0.45
   6  -9   1    2.60    0.37
  -6  -9  -1    3.86    0.46
   6   9   2    0.08    0.22
  -6   9  -2    0.00    0.32
  -6   9  -2    0.24    0.27
   6   9   2   -0.31    0.33
   6  -9   2   -0.13    0.27
   6  -9   2   -0.12    0.33
  -6  -9  -2    0.05    0.32
  -6  -9  -2   -0.18    0.27
  -6   9  -2   -0.13    0.30
  -6   9  -3   16.36    0.95
   6  -9   3   15.69    0.82
   6   9   3   14.17    0.82
  -6   9  -3   15.37    0.83
  -6  -9  -3   13.18    0.81
   6  -9   3   15.51    0.82
  -6   9  -3   14.83    0.88
  -6  -9  -3   15.27    0.79
  -6  -9  -4    8.54    0.67
  -6   9  -4   10.87    0.76
   6  -9   4    8.53    0.68
   6   9   4    9.11    0.70
  -6  -9  -4    9.05    0.69
  -6   9  -4    8.27    0.67
   6  -9   4    8.84    0.68
  -6  -9  -4    8.52    0.62
  -6  -9  -5  114.16    2.64
   6   9   5  112.75    2.64
  -6   9  -5  115.15    2.75
   6  -9   5  112.53    2.64
  -6   9  -5  112.96    2.61
  -6  -9  -5  110.30    2.55
   6  -9   5  113.91    2.55
  -6  -9  -5  115.13    2.52
  -6  -9  -6    1.97    0.43
   6  -9   6    1.40    0.45
   6   9   6    1.63    0.40
  -6   9  -6    1.97    0.45
   6  -9   6    2.01    0.48
  -6  -9  -6    1.77    0.46
  -6  -9  -6    2.46    0.43
   6  -9   7    7.35    0.74
   6   9   7    6.46    0.67
   6  -9   7    7.57    0.67
  -6  -9  -7    7.57    0.61
   6  -9   8    1.28    0.48
   6   9   8    1.85    0.49
   6  -9   8    1.77    0.47
  -6  -9  -8    1.68    0.38
   6   9   8    2.49    0.52
   6   9   9   16.90    1.11
   6  -9   9   17.16    1.17
  -6  -9  -9   14.69    0.94
   6  -9   9   17.46    1.04
   6   9   9   17.72    1.10
   6  -9  10    6.52    0.85
   6   9  10    7.89    0.84
   6  -9  10    8.55    0.83
   6   9  10    8.40    0.84
   6   9  11   26.92    1.51
   6  -9  11   28.18    1.43
   6   9  11   29.34    1.53
   6   9  12    3.12    0.73
   6  -9  12    4.30    0.75
   6   9  12    3.16    0.74
   6   9  13   22.28    1.51
   6  -9  13   26.17    1.51
   6   9  13   26.65    1.57
   6  -9  14    5.48    0.84
   6   9  14    5.53    0.90
  -6 -10  13   11.44    1.15
  -6  10  13   10.57    1.15
  -6 -10  12   21.44    1.42
  -6  10  12   23.08    1.48
  -6 -10  11   -0.05    0.51
  -6  10  11    0.91    0.59
  -6 -10  10    5.82    0.77
  -6  10  10    5.91    0.79
  -6 -10   9    7.36    0.83
  -6  10   9    8.79    0.88
  -6 -10   8   12.80    0.96
  -6  10   8   13.12    1.01
  -6 -10   7   33.11    1.42
  -6  10   7   35.60    1.52
  -6 -10   6   13.13    0.88
  -6  10   6   13.16    0.95
   6 -10  -5   39.60    1.16
   6  10  -5   40.63    1.51
  -6 -10   5   40.13    1.47
   6 -10  -5   39.10    1.49
  -6  10   5   40.19    1.52
   6 -10  -4   -0.06    0.30
   6 -10  -4    0.30    0.23
  -6 -10   4    0.75    0.39
   6  10  -4    0.19    0.32
   6 -10  -4    0.25    0.29
   6 -10  -4    0.23    0.38
   6 -10  -3   19.16    0.90
   6 -10  -3   19.42    0.74
   6 -10  -3   19.60    1.04
  -6 -10   3   20.01    0.99
   6  10  -3   19.09    1.03
   6 -10  -3   20.31    0.96
   6 -10  -2   83.70    2.00
   6 -10  -2   82.87    1.72
  -6 -10   2   83.67    2.10
   6  10  -2   81.37    2.18
   6 -10  -2   80.77    2.19
   6 -10  -2   84.01    2.06
   6  10  -1    1.49    0.38
   6 -10  -1    1.59    0.32
   6 -10  -1    2.23    0.30
   6 -10  -1    1.27    0.38
  -6 -10   1    2.14    0.42
   6 -10  -1    1.59    0.35
   6  10  -1    1.28    0.35
   6  10   0   97.32    2.27
   6 -10   0   98.88    1.97
  -6 -10   0   87.88    2.20
   6 -10   0   96.99    2.30
   6  10   0   96.39    2.27
   6 -10   0   88.25    2.16
   6  10   1   22.29    0.85
  -6  10  -1   23.82    0.94
   6  10   1   22.66    1.02
   6 -10   1   25.07    0.91
   6 -10   1   22.56    1.04
  -6 -10  -1   23.06    1.04
  -6  10  -1   23.03    1.04
   6 -10   1   22.67    1.01
  -6 -10  -1   22.13    1.02
   6  10   2    3.88    0.39
  -6  10  -2    3.05    0.46
   6 -10   2    3.55    0.42
  -6  10  -2    3.41    0.42
   6  10   2    3.33    0.45
  -6 -10  -2    3.24    0.48
   6 -10   2    4.44    0.50
  -6 -10  -2    4.14    0.48
  -6  10  -2    4.10    0.52
  -6  10  -3   19.47    0.95
  -6  10  -3   23.04    1.15
   6  10   3   22.24    1.03
   6 -10   3   21.19    0.94
  -6  10  -3   21.06    1.09
  -6 -10  -3   18.86    1.01
   6 -10   3   22.12    1.04
  -6 -10  -3   22.46    1.02
  -6 -10  -4   47.73    1.56
  -6  10  -4   49.11    1.61
   6  10   4   49.26    1.57
   6 -10   4   50.94    1.59
  -6 -10  -4   48.86    1.64
  -6  10  -4   49.26    1.69
   6 -10   4   50.08    1.60
  -6 -10  -4   48.57    1.54
  -6 -10  -5    4.54    0.55
  -6  10  -5    5.30    0.60
   6  10   5    5.36    0.59
   6 -10   5    4.60    0.57
  -6  10  -5    4.15    0.57
   6 -10   5    4.46    0.59
  -6 -10  -5    5.02    0.56
  -6 -10  -5    4.68    0.59
  -6 -10  -6   15.33    0.93
   6 -10   6   14.36    0.94
   6  10   6   15.90    0.94
   6 -10   6   14.68    0.91
  -6 -10  -6   16.36    0.99
   6 -10   7    3.02    0.53
   6  10   7    2.17    0.47
   6 -10   7    2.35    0.51
   6 -10   7    2.32    0.49
  -6 -10  -7    2.65    0.55
   6 -10   8    0.44    0.44
   6  10   8    0.66    0.39
   6 -10   8    0.23    0.40
  -6 -10  -8    1.18    0.37
   6 -10   9    0.03    0.48
   6  10   9    0.86    0.48
   6 -10   9    0.54    0.46
   6  10   9    0.78    0.49
   6 -10  10    8.26    0.89
   6  10  10    9.45    0.89
   6 -10  10    7.63    0.82
   6  10  10    8.38    0.88
   6  10  11   14.35    1.13
   6 -10  11   13.94    1.09
   6  10  11   15.46    1.20
   6  10  12   34.02    1.76
   6 -10  12   34.41    1.68
   6  10  12   38.17    1.84
   6  10  13    0.26    0.55
   6  10  13    0.62    0.63
   6 -10  14    0.48    0.59
   6  10  14    0.62    0.69
  -6  11  13   26.30    1.69
  -6 -11  12    4.20    0.79
  -6  11  12    6.70    0.95
  -6 -11  11   -0.42    0.57
  -6  11  11   -0.36    0.57
  -6 -11  10    5.65    0.76
  -6  11  10    6.03    0.89
   6 -11  -9    0.15    0.30
  -6 -11   9    0.57    0.48
  -6  11   9    0.34    0.53
  -6 -11   8   19.01    1.18
  -6 -11   8   17.11    1.15
  -6  11   8   17.82    1.22
  -6 -11   7   14.79    1.00
  -6  11   7   14.52    1.04
   6 -11  -6   64.03    1.55
  -6 -11   6   61.63    1.97
   6 -11  -6   59.40    2.00
  -6  11   6   58.95    2.04
   6 -11  -5   48.62    1.25
  -6 -11   5   48.70    1.69
   6 -11  -5   49.55    1.77
   6 -11  -4   11.22    0.55
   6 -11  -4   11.49    0.72
   6 -11  -4   10.28    0.81
  -6 -11   4   13.64    0.90
   6 -11  -3   99.58    2.24
   6 -11  -3   98.46    1.88
   6 -11  -3   93.18    2.53
   6  11  -3   95.36    2.55
  -6 -11   3  102.32    2.49
   6 -11  -3  102.21    2.43
   6 -11  -2    1.82    0.38
   6 -11  -2    2.36    0.30
   6 -11  -2    2.15    0.49
  -6 -11   2    2.18    0.44
   6  11  -2    2.33    0.46
   6 -11  -2    2.33    0.45
   6  11  -1   14.36    0.85
   6 -11  -1   16.03    0.66
   6 -11  -1   15.30    0.92
  -6 -11   1   11.83    0.81
   6  11  -1   15.24    0.89
   6 -11  -1   13.85    0.84
   6  11   0    9.36    0.67
   6 -11   0    9.81    0.55
  -6 -11   0    8.61    0.71
   6 -11   0    9.98    0.76
   6  11   0    9.90    0.72
   6 -11   0    8.78    0.67
  -6  11  -1   75.72    1.78
   6  11   1   74.02    1.66
   6  11   1   73.50    1.93
   6 -11   1   79.00    1.76
   6 -11   1   68.19    1.98
  -6 -11  -1   73.79    2.03
  -6  11  -1   77.05    2.08
   6 -11   1   72.50    2.00
  -6 -11  -1   72.42    2.04
   6  11   2    0.37    0.23
  -6  11  -2   -0.20    0.35
   6 -11   2   -0.49    0.31
  -6  11  -2    0.37    0.26
   6  11   2    0.13    0.29
  -6 -11  -2    0.44    0.38
   6 -11   2   -0.29    0.41
  -6 -11  -2   -0.82    0.39
  -6  11  -2   -0.59    0.39
  -6  11  -3   74.77    2.15
  -6  11  -3   70.70    1.89
   6  11   3   72.70    1.93
   6 -11   3   71.76    1.85
  -6  11  -3   73.04    2.14
  -6 -11  -3   70.04    2.08
   6 -11   3   71.47    2.01
  -6 -11  -3   66.84    1.94
   6  11   4   32.51    1.26
   6 -11   4   30.90    1.23
  -6  11  -4   31.14    1.26
  -6 -11  -4   28.58    1.33
   6 -11   4   32.47    1.33
  -6  11  -4   30.28    1.40
  -6 -11  -4   31.73    1.30
  -6 -11  -5    9.83    0.78
   6  11   5   10.76    0.76
   6 -11   5   11.59    0.80
  -6  11  -5   10.84    0.81
   6 -11   5   11.57    0.83
  -6 -11  -5   10.49    0.83
  -6 -11  -6    0.82    0.38
   6 -11   6    0.68    0.41
   6  11   6    0.74    0.34
   6 -11   6    1.32    0.45
  -6 -11  -6    0.69    0.44
   6 -11   7    0.31    0.38
   6  11   7    0.46    0.36
   6 -11   7    0.14    0.42
  -6 -11  -7   -0.49    0.41
   6  11   8    1.35    0.45
   6 -11   8    1.47    0.50
   6 -11   8    1.30    0.48
  -6 -11  -8    2.19    0.62
   6  11   9    7.32    0.78
   6 -11   9    6.26    0.81
   6 -11   9    6.50    0.74
  -6 -11  -9    7.51    0.85
   6  11  10   11.19    0.97
   6 -11  10   11.53    0.96
   6  11  11   29.18    1.56
   6 -11  11   31.17    1.58
   6  11  11   29.58    1.65
   6  11  12    1.70    0.64
   6 -11  12    3.31    0.76
   6  11  12    1.77    0.68
   6  11  13    2.66    0.70
   6 -11  13    2.38    0.66
   6  11  13    2.48    0.74
  -6 -12  12   32.34    1.78
  -6  12  12   32.24    1.82
  -6 -12  11   15.49    1.24
  -6  12  11   13.45    1.21
  -6 -12  10   -0.08    0.55
  -6  12  10   -0.86    0.64
  -6 -12   9    2.70    0.71
  -6  12   9    2.44    0.61
  -6 -12   8   30.21    1.50
  -6  12   8   30.52    1.57
  -6 -12   7   13.67    1.01
   6 -12  -7   15.33    1.11
  -6  12   7   14.56    1.09
   6 -12  -6  109.67    2.12
  -6 -12   6  107.21    2.82
   6 -12  -6  107.82    2.89
   6 -12  -5    1.05    0.35
   6 -12  -5    1.05    0.26
  -6 -12   5    1.38    0.53
   6 -12  -5    0.98    0.44
   6 -12  -4    0.32    0.28
   6 -12  -4   -0.04    0.19
  -6 -12   4    0.09    0.38
   6 -12  -4   -0.60    0.46
   6 -12  -3    6.65    0.56
   6 -12  -3    6.78    0.74
  -6 -12   3    7.48    0.74
   6 -12  -3    7.29    0.42
   6  12  -2   21.03    1.06
   6 -12  -2   20.77    0.95
   6 -12  -2   23.10    0.74
  -6 -12   2   19.87    1.07
   6 -12  -2   21.85    1.17
   6  12  -1   13.97    0.84
   6 -12  -1   14.13    0.61
   6 -12  -1   16.70    0.99
  -6 -12   1   12.86    0.85
   6  12  -1   14.49    0.92
   6 -12  -1   14.60    0.91
   6  12   0    9.89    0.70
   6 -12   0   11.14    0.58
   6 -12   0   10.55    0.83
  -6 -12   0   10.05    0.80
   6  12   0   10.12    0.78
   6 -12   0    9.01    0.72
   6  12   1    8.54    0.50
  -6  12  -1    7.67    0.53
   6  12   1    8.35    0.64
   6 -12   1    9.55    0.58
  -6 -12  -1    8.13    0.71
   6 -12   1    7.81    0.73
  -6  12  -1    7.99    0.71
   6 -12   1    8.20    0.71
  -6  12  -2    7.75    0.58
  -6  12  -2    7.79    0.67
   6  12   2    8.39    0.64
   6 -12   2    8.43    0.57
  -6 -12  -2    6.63    0.68
   6 -12   2    6.66    0.64
  -6  12  -2    6.68    0.66
   6  12   3    4.70    0.52
   6 -12   3    4.43    0.49
  -6  12  -3    3.74    0.46
   6 -12   3    3.17    0.53
  -6 -12  -3    4.06    0.61
   6  12   4   62.24    1.79
   6 -12   4   62.67    1.79
  -6  12  -4   58.88    1.78
   6 -12   4   61.45    1.94
  -6 -12  -4   54.42    1.95
   6  12   5   16.84    0.95
  -6  12  -5   15.28    0.96
   6 -12   5   15.60    0.95
  -6 -12  -5   14.11    1.02
   6 -12   5   15.94    1.01
  -6 -12  -6    0.39    0.37
   6 -12   6    0.40    0.40
   6  12   6    0.48    0.34
   6 -12   6   -0.59    0.42
  -6 -12  -6    0.07    0.43
   6 -12   7    0.85    0.44
   6  12   7    1.34    0.43
   6 -12   7    1.12    0.49
  -6 -12  -7    1.60    0.53
   6 -12   8   10.17    0.86
   6 -12   8   11.60    0.98
   6  12   8   10.61    0.84
   6 -12   8   10.14    0.91
  -6 -12  -8   11.52    0.99
   6  12   9    5.11    0.68
   6 -12   9    4.35    0.70
  -6 -12  -9    4.56    0.74
   6  12  10    5.77    0.73
   6 -12  10    5.19    0.76
  -6 -12 -10    6.55    0.90
   6  12  11    0.36    0.47
   6 -12  11    1.83    0.68
   6  12  12   14.77    1.17
   6 -12  12   15.25    1.20
   6 -12  13    2.27    0.71
   6  12  13    1.01    0.65
  -6  13  12    0.41    0.62
  -6 -13  11   14.94    1.25
  -6  13  11   12.88    1.21
  -6 -13  10    3.46    0.72
  -6  13  10    3.20    0.77
  -6 -13   9    1.05    0.51
  -6 -13   9    2.63    0.66
   6 -13  -9    1.91    0.69
  -6  13   9    2.30    0.62
  -6 -13   8   57.00    2.13
   6 -13  -8   54.05    2.17
  -6  13   8   54.53    2.20
   6 -13  -7   24.05    0.86
  -6 -13   7   21.76    1.29
   6 -13  -7   23.76    1.39
   6 -13  -6    2.55    0.44
   6 -13  -6    2.55    0.30
  -6 -13   6    1.51    0.53
   6 -13  -6    2.07    0.57
   6 -13  -5  110.70    2.44
   6 -13  -5  111.19    1.93
   6 -13  -5  108.59    2.98
  -6 -13   5  109.30    2.88
   6 -13  -4    8.10    0.61
   6 -13  -4    8.97    0.42
  -6 -13   4    9.01    0.83
   6 -13  -4    8.33    0.84
   6 -13  -3    9.14    0.64
  -6 -13   3    9.25    0.83
   6 -13  -3    8.14    0.83
   6 -13  -3   10.39    0.45
   6  13  -2    8.95    0.70
   6 -13  -2    8.43    0.78
  -6 -13   2    6.62    0.72
   6 -13  -2    7.87    0.41
   6  13  -1   12.35    0.79
  -6 -13   1    9.34    0.80
   6 -13  -1   12.39    0.92
   6 -13  -1   11.34    0.52
   6  13   0   22.28    1.02
   6  13   0   22.60    0.83
  -6 -13   0   21.53    1.16
   6 -13   0   20.52    1.14
   6 -13   0   22.63    0.80
  -6  13  -1   11.04    0.61
   6  13   1   12.13    0.57
   6 -13   1   10.91    0.85
  -6 -13  -1   11.60    0.87
   6 -13   1   12.05    0.62
   6  13   1   11.13    0.71
  -6  13  -2    0.59    0.27
   6 -13   2    0.45    0.39
  -6 -13  -2    0.82    0.45
   6 -13   2    0.79    0.29
   6  13   2   -0.05    0.29
  -6  13  -3    7.49    0.60
   6 -13   3    8.23    0.61
   6  13   3    8.49    0.64
   6 -13   3    7.39    0.74
  -6 -13  -3    8.42    0.79
   6  13   4    0.71    0.34
  -6  13  -4    0.97    0.35
   6 -13   4    1.13    0.36
   6 -13   4    0.53    0.44
  -6 -13  -4   -0.29    0.51
   6 -13   5   45.01    1.59
   6  13   5   45.88    1.52
  -6  13  -5   39.84    1.54
  -6 -13  -5   40.22    1.75
   6 -13   5   43.38    1.71
   6 -13   6   13.82    0.95
   6  13   6   14.15    0.89
   6 -13   6   11.87    0.96
  -6 -13  -6   12.60    1.03
   6  13   7    1.82    0.44
   6 -13   7    1.68    0.50
   6 -13   7    0.98    0.51
  -6 -13  -7    1.56    0.56
   6  13   8    5.56    0.65
   6 -13   8    5.95    0.77
  -6 -13  -8    5.72    0.80
   6  13   9    4.55    0.66
   6 -13   9    2.74    0.63
  -6 -13  -9    4.37    0.76
   6  13  10    0.64    0.42
   6 -13  10    0.22    0.53
  -6 -13 -10    1.77    0.67
   6 -13  11   -0.50    0.57
  -6 -13 -11    1.84    0.70
   6 -13  12    7.47    0.98
  -6 -13 -12    6.49    0.98
  -6 -14  11    1.37    0.67
  -6  14  11    0.49    0.59
  -6 -14  10    0.31    0.60
   6 -14 -10    0.41    0.56
  -6  14  10    0.45    0.63
  -6 -14   9    8.87    1.01
   6 -14  -9    8.57    1.06
  -6  14   9    7.46    0.99
  -6 -14   8   64.31    2.35
   6 -14  -8   63.38    2.40
   6 -14  -7   19.62    0.96
  -6 -14   7   19.91    1.28
   6 -14  -7   17.39    1.25
   6 -14  -6    0.04    0.28
  -6 -14   6    0.89    0.55
   6 -14  -6    0.38    0.52
   6 -14  -5    0.55    0.30
   6 -14  -5    0.68    0.17
  -6 -14   5    0.19    0.44
   6 -14  -5    0.10    0.49
   6 -14  -4    9.55    0.65
  -6 -14   4    9.01    0.89
   6 -14  -4    7.64    0.86
   6 -14  -4    8.29    0.33
   6 -14  -3    4.57    0.72
  -6 -14   3    4.28    0.64
   6 -14  -3    4.95    0.26
   6  14  -2   31.70    1.28
  -6 -14   2   26.55    1.34
   6 -14  -2   30.10    1.47
   6 -14  -2   31.28    0.74
   6 -14  -1    1.20    0.49
  -6 -14   1    1.19    0.43
   6 -14  -1    1.22    0.20
   6  14  -1    1.73    0.40
   6  14   0   13.38    0.61
   6  14   0   13.53    0.79
  -6 -14   0   14.30    1.02
   6 -14   0   12.64    0.95
   6 -14   0   14.62    0.61
   6  14   1    2.80    0.30
  -6 -14  -1    3.37    0.63
   6 -14   1    2.79    0.56
   6 -14   1    4.31    0.41
   6  14   1    3.41    0.45
  -6  14  -2    7.78    0.56
   6 -14   2    6.35    0.71
  -6 -14  -2    7.80    0.79
   6  14   2    8.30    0.62
   6 -14   2    9.08    0.58
  -6 -14  -3    2.37    0.55
   6 -14   3    3.32    0.59
   6 -14   3    3.37    0.43
   6  14   3    3.58    0.47
  -6  14  -3    3.04    0.44
  -6  14  -4    9.88    0.72
   6  14   4   10.73    0.71
   6 -14   4   10.00    0.72
  -6 -14  -4   10.45    0.92
   6 -14   4    9.42    0.87
   6  14   5   10.92    0.76
   6 -14   5   10.44    0.79
  -6 -14  -5   11.31    1.08
   6 -14   5   10.73    0.93
   6  14   6    2.57    0.44
   6 -14   6    2.98    0.63
  -6 -14  -6    2.21    0.62
   6  14   7   17.43    0.99
   6 -14   7   18.74    1.24
  -6 -14  -7   17.80    1.28
   6  14   8    4.09    0.58
   6 -14   8    5.28    0.78
  -6 -14  -8    4.25    0.73
   6  14   9    5.33    0.64
   6 -14   9    4.87    0.74
  -6 -14  -9    5.14    0.85
   6 -14  10    0.86    0.56
  -6 -14 -10    1.70    0.69
   6 -14  11   11.65    1.11
  -6 -14 -11   12.55    1.20
   6 -14  12   16.38    1.33
  -6 -15  10   -0.92    0.66
   6 -15 -10    0.00    0.56
  -6  15  10   -0.70    0.71
  -6 -15   9   18.21    1.35
   6 -15  -9   16.33    1.35
  -6 -15   8    5.76    0.84
   6 -15  -8    4.90    0.86
  -6 -15   7   11.75    1.05
   6 -15  -7   11.35    1.09
   6 -15  -6   51.10    1.50
  -6 -15   6   49.72    2.04
   6 -15  -6   46.92    2.10
   6 -15  -5   18.41    0.86
   6 -15  -5   16.01    1.23
  -6 -15   5   16.37    1.17
   6 -15  -4    9.68    0.98
  -6 -15   4    9.61    0.89
   6 -15  -3   35.76    1.69
  -6 -15   3   31.51    1.53
   6  15  -2    1.00    0.37
   6 -15  -2    1.26    0.50
  -6 -15   2    1.01    0.46
   6 -15  -1    4.93    0.71
  -6 -15   1    3.94    0.63
   6  15  -1    6.09    0.59
   6 -15  -1    7.31    0.35
   6  15   0    6.41    0.42
   6 -15   0    7.00    0.41
   6  15   0    6.17    0.57
   6 -15   0    6.01    0.75
  -6 -15   0    7.16    0.78
   6 -15   1    3.77    0.38
   6  15   1    3.21    0.45
  -6 -15  -1    3.05    0.58
   6 -15   1    3.73    0.66
   6  15   2    3.98    0.48
   6 -15   2    3.80    0.44
   6 -15   2    2.77    0.58
  -6 -15  -2    2.98    0.63
   6  15   3    5.11    0.52
  -6 -15  -3    5.71    0.76
   6 -15   3    4.06    0.66
   6  15   4    9.29    0.68
   6 -15   4    7.96    0.83
  -6 -15  -4    6.78    0.81
   6  15   5   29.33    1.20
  -6 -15  -5   27.09    1.56
   6 -15   5   28.36    1.49
   6  15   6    4.39    0.53
  -6 -15  -6    2.92    0.68
   6 -15   6    4.87    0.74
  -6 -15  -7   13.77    1.20
   6 -15   7   15.51    1.31
   6 -15   8    4.15    0.78
  -6 -15  -8    4.08    0.85
   6 -15   9    3.44    0.69
   6 -15   9    3.53    0.72
  -6 -15  -9    3.69    0.79
   6 -15  10    6.18    0.87
  -6 -15 -10    5.51    0.93
   6 -15  11    9.01    1.04
   6 -16 -10   -0.54    0.63
  -6 -16   9    0.74    0.60
   6 -16  -9    0.94    0.66
  -6 -16   8   13.27    1.17
   6 -16  -8   15.66    1.31
  -6 -16   7   20.86    1.42
   6 -16  -7   20.98    1.49
  -6 -16   6    8.88    0.96
   6 -16  -6    7.12    0.92
  -6 -16   5    4.76    0.75
   6 -16  -5    4.38    0.78
  -6 -16   4    0.19    0.50
   6 -16  -4    0.05    0.57
   6  16  -3    9.11    0.76
  -6 -16   3    7.00    0.84
   6 -16  -3    8.70    0.96
   6  16  -2   26.99    1.19
   6 -16  -2   26.64    1.47
  -6 -16   2   26.38    1.44
   6  16  -1   14.84    0.85
  -6 -16   1   15.87    1.12
   6 -16  -1   14.93    1.11
   6  16   0   14.00    0.81
  -6 -16   0   14.80    1.08
   6 -16   0   14.17    1.08
   6  16   1   46.44    1.45
   6 -16   1   45.63    1.90
  -6 -16  -1   43.82    1.83
   6  16   2    2.63    0.40
  -6 -16  -2    2.25    0.58
   6 -16   2    1.78    0.58
   6  16   3   11.66    0.72
  -6 -16  -3   10.88    1.00
   6 -16   3   10.53    0.96
   6  16   4   27.38    1.10
  -6 -16  -4   28.36    1.54
   6 -16   4   27.74    1.51
   6 -16   5    2.51    0.65
  -6 -16  -5    1.34    0.58
  -6 -16  -6    1.05    0.57
   6 -16   6    2.23    0.63
  -6 -16  -7   -1.37    0.76
   6 -16   7   -0.62    0.54
   6 -16   8    0.83    0.57
  -6 -16  -8   -0.81    0.67
   6 -16   9    4.62    0.78
   6 -16   9    4.01    0.74
  -6 -16  -9    4.93    0.92
   6 -16  10    7.98    0.96
  -6 -16 -10    8.40    1.14
  -6 -17   9    3.02    0.78
   6 -17  -9    2.13    0.81
  -6 -17   8    6.80    0.96
   6 -17  -8    7.32    1.03
  -6 -17   7   10.29    1.12
   6 -17  -7    9.31    1.11
   6 -17  -6    9.76    1.15
  -6 -17   6   10.79    1.07
  -6 -17   5    2.57    0.67
   6 -17  -5    1.01    0.58
  -6 -17   4    0.19    0.55
   6 -17  -4    2.28    0.69
   6  17  -3   48.56    1.69
   6 -17  -3   47.55    2.04
  -6 -17   3   44.27    1.95
   6  17  -2    9.26    0.71
  -6 -17   2    9.78    0.99
   6 -17  -2    8.31    0.93
   6  17  -1   10.70    0.72
   6 -17  -1   10.18    1.01
  -6 -17   1   10.95    1.00
   6  17   0   12.51    0.75
  -6 -17   0   11.82    1.05
   6 -17   0   12.86    1.09
   6  17   1   14.29    0.78
   6 -17   1   14.69    1.15
  -6 -17  -1   15.53    1.17
  -6 -17  -2    0.89    0.54
   6 -17   2    0.14    0.51
   6 -17   3   10.53    1.03
  -6 -17  -3   11.41    1.05
  -6 -17  -4   13.22    1.13
   6 -17   4   12.98    1.15
   6 -17   5   10.03    1.01
  -6 -17  -5    9.63    1.01
  -6 -17  -6   13.97    1.24
   6 -17   6   12.05    1.13
  -6 -17  -7    0.47    0.66
   6 -17   7    0.59    0.60
   6 -17   8   -0.64    0.58
  -6 -17  -8    0.49    0.63
  -6 -17  -9    1.54    0.71
   6 -18  -7   18.21    1.53
  -6 -18   7   20.16    1.48
   6 -18  -6    8.30    1.07
  -6 -18   6    7.58    1.05
  -6 -18   5    4.91    0.81
   6 -18  -5    6.41    0.98
   6  18  -4    3.44    0.55
  -6 -18   4    3.37    0.72
   6 -18  -4    2.54    0.71
  -6 -18   3    1.16    0.54
   6 -18  -3    2.60    0.70
  -6 -18   2   11.14    1.05
   6 -18  -2   12.14    1.11
  -6 -18   1   21.28    1.38
   6 -18  -1   19.42    1.36
  -6 -18   0   10.10    1.00
   6 -18   0   10.95    1.07
  -6 -18  -1    1.76    0.62
   6 -18   1    1.21    0.84
  -6 -18  -2    0.60    0.57
   6 -18   2   -0.40    0.56
  -6 -18  -3    4.70    0.78
   6 -18   3    5.17    0.81
  -6 -18  -4   37.06    1.86
   6 -18   4   38.80    1.89
  -6 -18  -5   14.24    1.24
   6 -18   5   13.54    1.18
  -6 -18  -6    2.00    0.71
   6 -18   6    3.38    0.76
  -6 -18  -7    1.55    0.75
   6 -18   7    2.16    0.66
   6 -19  -6   -0.61    0.69
  -6 -19   6   -0.64    0.64
  -6 -19   5    7.06    0.98
   6 -19  -5    6.84    0.97
  -6 -19   4    0.12    0.53
   6 -19  -4    0.19    0.55
   6 -19  -3   13.31    1.21
  -6 -19   3   14.78    1.22
  -6 -19   2   14.33    1.20
   6 -19  -2   13.98    1.22
  -6 -19   1   14.18    1.21
   6 -19  -1   13.72    1.21
  -6 -19   0    7.75    0.95
   6 -19   0    9.41    1.01
   6 -19   1    5.57    0.86
  -6 -19  -1    4.81    0.82
  -6 -19  -2    2.49    0.70
   6 -19   2    3.51    0.83
   6 -19   3   -0.72    0.60
  -6 -19  -3    0.02    0.53
   6 -19   4   -1.11    0.59
  -6 -19  -4    0.14    0.54
  -6 -19  -5   10.80    1.12
   6 -19   5   10.47    1.09
  -6 -19  -6   14.41    1.32
   6 -19   6   12.79    1.22
  -6 -20   4    7.19    0.98
   6 -20  -4    6.42    0.98
  -6 -20   3    2.36    0.74
   6 -20  -3    3.81    0.78
   6 -20  -2   12.29    1.19
  -6 -20   2   11.09    1.12
   6 -20  -1    7.27    1.03
  -6 -20   1    5.89    0.89
  -6 -20   0    5.03    0.81
   6 -20   0    4.34    0.79
   6 -20   1    2.16    0.72
  -6 -20  -1    2.57    0.69
  -6 -20  -2    1.71    0.67
   6 -20   2    1.26    0.63
   6 -20   3    5.06    0.84
  -6 -20  -3    5.28    0.85
   6 -20   4    2.18    0.68
  -6 -20  -4    2.31    0.71
  -7   0  15    0.41    0.56
  -7   0  14   14.76    1.22
  -7   0  13   -0.59    0.60
  -7   0  12   35.83    1.67
  -7   0  11   -0.24    0.51
  -7   0  10    1.70    0.52
  -7   0   9    0.63    0.48
   7   0  -8  218.61    4.06
  -7   0   8  219.27    4.07
   7   0  -7   -0.48    0.35
  -7   0   7   -0.96    0.44
   7   0  -6  209.17    3.66
  -7   0   6  214.65    3.69
   7   0  -5   -0.06    0.25
  -7   0   5   -0.13    0.26
  -7   0   4    0.15    0.25
   7   0  -3    0.06    0.16
  -7   0   3   -0.12    0.20
   7   0  -2  129.63    2.74
   7   0  -2  124.43    1.88
  -7   0   2  133.36    2.01
   7   0  -1    0.61    0.41
  -7   0   1    0.18    0.12
   7   0   0  175.04    3.34
   7   0   0  175.87    3.34
   7   0   1    0.47    0.37
  -7   0  -1    0.51    0.29
   7   0   1    0.36    0.33
  -7   0  -2   92.61    2.27
   7   0   2   92.53    2.25
   7   0   2   92.00    2.25
  -7   0  -3   -0.43    0.37
   7   0   3    0.45    0.39
  -7   0  -3    0.60    0.32
  -7   0  -3    0.05    0.12
  -7   0  -4    0.11    0.30
   7   0   4    0.07    0.36
  -7   0  -4    0.13    0.32
  -7   0  -4    0.09    0.16
   7   0   4    0.09    0.15
  -7   0  -5    1.49    0.42
   7   0   5    1.40    0.51
  -7   0  -5    1.34    0.45
   7   0   6   68.41    2.08
  -7   0  -6   62.99    1.50
   7   0   6   67.46    1.44
   7   0   7    0.84    0.48
  -7   0  -7   -0.55    0.31
   7   0   7   -0.36    0.31
   7   0   8   74.08    2.34
  -7   0  -8   71.20    1.86
   7   0   8   77.60    1.82
   7   0   9    0.21    0.46
  -7   0  -9   -0.43    0.31
   7   0   9   -0.21    0.32
   7   0  10   16.58    1.19
   7   0  10   14.20    0.87
   7   0  11    0.83    0.51
   7   0  11   -0.74    0.46
   7   0  12   15.62    1.28
   7   0  12   11.95    0.91
   7   0  13    0.06    0.57
   7   0  13   -0.73    0.50
   7   0  14    1.41    0.57
  -7   1  15   -0.08    0.57
  -7  -1  15    0.72    0.58
  -7   1  14    4.90    0.85
  -7  -1  14    2.52    0.69
  -7  -1  13   15.84    1.22
  -7   1  13   16.58    1.23
  -7   1  12    2.64    0.67
  -7  -1  12    3.44    0.68
  -7   1  11   11.84    0.96
  -7  -1  11   11.96    0.97
  -7  -1  10    5.48    0.66
  -7   1  10    5.72    0.68
  -7  -1   9   16.93    1.01
  -7   1   9   16.64    1.01
   7  -1  -8    2.37    0.44
  -7  -1   8    1.48    0.39
   7   1  -8    2.44    0.43
  -7   1   8    2.23    0.46
   7  -1  -7  106.63    2.38
   7   1  -7  103.75    2.31
  -7   1   7  106.04    2.38
  -7  -1   7  104.44    2.38
   7  -1  -6   18.49    0.84
   7   1  -6   18.32    0.82
  -7   1   6   17.95    0.84
  -7  -1   6   18.95    0.85
   7  -1  -5   50.82    1.34
   7   1  -5   47.92    1.26
  -7  -1   5   48.84    1.33
  -7   1   5   49.09    1.32
   7  -1  -4   22.05    0.78
   7   1  -4   22.05    0.74
  -7   1   4   22.22    0.78
  -7  -1   4   21.95    0.79
   7  -1  -3   10.22    0.48
   7   1  -3    9.48    0.43
  -7  -1   3    9.37    0.47
  -7   1   3    9.94    0.47
   7   1  -2    5.69    0.59
   7  -1  -2    7.23    0.60
   7  -1  -2    7.94    0.37
   7   1  -2    6.12    0.28
  -7  -1   2    6.15    0.33
  -7   1   2    6.67    0.33
   7  -1  -1  242.05    4.17
   7   1  -1  242.09    4.24
  -7  -1   1  246.22    3.24
  -7   1   1  238.40    3.19
   7   1   0   44.14    1.44
   7  -1   0   44.54    1.46
   7  -1   0   46.75    1.45
   7   1   0   46.44    1.49
   7  -1   1  180.46    3.45
  -7  -1  -1  182.40    3.49
  -7   1  -1  187.47    3.51
   7   1   1  184.67    3.46
   7   1   1  180.44    3.46
   7  -1   1  185.31    3.44
  -7   1  -2   29.82    1.19
   7   1   2   29.16    1.16
   7  -1   2   30.92    1.22
  -7  -1  -2   29.97    1.19
   7  -1   2   29.39    1.19
   7   1   2   29.20    1.18
  -7   1  -3   17.15    0.93
  -7  -1  -3   18.09    0.94
  -7   1  -3   17.35    0.92
   7   1   3   16.84    0.95
   7  -1   3   17.47    0.94
  -7   1  -3   17.17    0.48
  -7  -1  -3   16.29    0.46
  -7   1  -4   26.46    1.18
  -7  -1  -4   26.51    1.14
  -7   1  -4   26.33    1.16
  -7  -1  -4   27.30    1.19
  -7  -1  -4   24.89    0.64
   7  -1   4   26.10    1.16
   7   1   4   25.97    1.17
  -7   1  -4   25.20    0.72
   7  -1   4   26.32    0.62
   7   1   4   26.82    0.65
  -7  -1  -5  146.55    3.14
  -7   1  -5  149.84    3.23
  -7  -1  -5  142.13    2.33
   7   1   5  145.00    3.19
   7  -1   5  145.56    3.17
  -7   1  -5  146.75    3.19
  -7  -1  -5  147.52    3.18
  -7   1  -5  141.52    2.44
   7   1   5  146.26    2.33
   7  -1   5  143.20    2.30
  -7  -1  -6    0.72    0.23
   7   1   6    0.99    0.48
   7  -1   6    1.38    0.45
  -7   1  -6    0.92    0.26
   7   1   6   -0.21    0.25
   7  -1   6    0.67    0.23
  -7  -1  -7   55.95    1.42
   7   1   7   56.20    1.97
   7  -1   7   58.03    1.96
  -7   1  -7   56.00    1.51
   7  -1   7   58.42    1.43
   7   1   7   57.62    1.44
  -7  -1  -8    7.73    0.58
   7   1   8    8.51    0.81
   7  -1   8    8.14    0.82
  -7   1  -8    6.65    0.58
   7   1   8    6.84    0.55
   7  -1   8    6.75    0.55
  -7  -1  -9    3.40    0.46
   7  -1   9    2.23    0.61
   7   1   9    3.75    0.65
  -7   1  -9    2.91    0.48
  -7  -1  -9    3.05    0.46
   7  -1   9    3.01    0.46
   7   1   9    3.25    0.47
   7   1  10    1.10    0.56
   7  -1  10    1.14    0.54
   7   1  10    0.59    0.36
   7  -1  10    0.17    0.36
   7   1  11   14.72    1.18
   7  -1  11   16.23    1.26
   7   1  11   14.08    0.92
   7  -1  11   13.14    0.90
   7  -1  12    6.03    0.91
   7   1  12    6.97    0.98
   7  -1  12    2.60    0.53
   7   1  13   15.11    1.30
   7  -1  13   16.64    1.36
   7   1  13   16.63    1.12
   7  -1  13   17.97    1.16
   7   1  14    2.61    0.66
   7  -1  14    1.73    0.60
  -7  -2  15   -0.50    0.59
  -7   2  15    0.45    0.60
  -7  -2  14    0.43    0.57
  -7   2  14    1.48    0.62
  -7  -2  13    2.10    0.63
  -7   2  13    2.25    0.64
  -7   2  12   80.11    2.56
  -7  -2  12   78.29    2.55
  -7  -2  11    1.14    0.52
  -7   2  11    1.64    0.60
  -7  -2  10    0.24    0.44
  -7   2  10    0.34    0.43
  -7  -2   9    5.79    0.64
  -7   2   9    7.00    0.69
   7  -2  -8   90.56    2.29
   7   2  -8   92.92    2.26
  -7   2   8   90.09    2.29
  -7  -2   8   87.91    2.28
   7  -2  -7   25.54    1.08
   7   2  -7   24.68    1.02
  -7   2   7   24.88    1.07
  -7  -2   7   25.87    1.09
   7  -2  -6   23.70    0.96
   7   2  -6   23.44    0.93
  -7   2   6   24.17    0.98
  -7  -2   6   24.38    1.00
  -7  -2   5   21.34    0.86
   7  -2  -5   22.11    0.86
   7   2  -5   22.10    0.83
  -7   2   5   21.18    0.85
  -7  -2   4  209.25    3.36
   7  -2  -4  210.06    3.34
   7   2  -4  205.18    3.26
  -7   2   4  205.81    3.33
  -7  -2   3    1.44    0.27
   7  -2  -3    1.07    0.22
   7   2  -3    0.81    0.20
  -7   2   3    0.69    0.22
   7   2  -2   79.11    2.05
   7  -2  -2   78.16    1.40
  -7  -2   2   80.96    1.45
   7  -2  -2   77.76    1.96
   7   2  -2   74.58    1.33
  -7   2   2   77.48    1.40
   7  -2  -1   14.00    0.40
  -7  -2   1   13.13    0.43
   7  -2  -1   13.98    0.80
   7   2  -1   12.06    0.79
   7  -2  -1   12.75    0.40
   7   2  -1   11.88    0.37
  -7   2   1   12.55    0.39
   7   2   0  136.20    2.81
   7  -2   0  137.55    2.78
   7  -2   0  137.27    2.85
  -7  -2   0  140.19    1.94
   7   2   0  136.41    2.88
   7   2   1    3.36    0.50
   7  -2   1    3.88    0.49
   7   2   1    3.36    0.48
  -7   2  -1    3.49    0.46
   7  -2   1    3.43    0.53
  -7  -2  -1    3.81    0.47
  -7  -2  -1    3.27    0.15
   7   2   2   80.96    2.03
  -7   2  -2   85.49    2.09
   7  -2   2   83.36    2.10
  -7  -2  -2   86.03    2.12
   7   2   2   84.71    2.11
   7  -2   2   85.47    2.06
  -7  -2  -2   74.01    1.24
  -7   2  -2   76.72    1.28
  -7  -2  -2   76.01    1.16
  -7   2  -3   17.98    0.94
  -7  -2  -3   17.52    0.93
  -7   2  -3   18.36    0.96
  -7  -2  -3   16.28    0.46
   7   2   3   17.34    0.94
   7  -2   3   17.82    0.92
  -7   2  -3   18.40    0.54
   7  -2   3   16.95    0.40
  -7  -2  -4   44.88    1.55
  -7   2  -4   44.96    1.55
  -7  -2  -4   43.51    1.47
  -7   2  -4   46.32    1.57
  -7  -2  -4   39.49    0.91
   7  -2   4   43.15    1.51
   7   2   4   44.35    1.55
  -7   2  -4   41.87    1.00
   7  -2   4   42.20    0.88
   7   2   4   42.85    0.94
  -7   2  -5    3.55    0.53
  -7  -2  -5    2.48    0.27
  -7  -2  -5    2.90    0.48
  -7   2  -5    3.85    0.56
  -7  -2  -5    4.41    0.55
   7  -2   5    3.86    0.56
   7   2   5    3.55    0.57
  -7   2  -5    2.45    0.29
   7   2   5    3.47    0.33
   7  -2   5    3.20    0.31
  -7  -2  -6   58.88    1.85
  -7  -2  -6   56.99    1.34
   7   2   6   56.77    1.88
   7  -2   6   54.60    1.86
  -7   2  -6   54.73    1.40
   7   2   6   57.36    1.35
   7  -2   6   56.46    1.33
  -7  -2  -7   15.13    0.72
   7   2   7   15.95    1.05
   7  -2   7   15.38    1.01
  -7   2  -7   15.61    0.77
   7   2   7   14.86    0.72
   7  -2   7   16.98    0.74
  -7  -2  -8    1.99    0.35
   7   2   8    1.93    0.56
   7  -2   8    2.19    0.56
  -7   2  -8    2.18    0.38
   7  -2   8    2.45    0.40
   7   2   8    1.66    0.35
  -7  -2  -9   -0.21    0.30
   7  -2   9   -0.08    0.48
   7   2   9    0.27    0.48
  -7   2  -9    0.42    0.32
   7  -2   9    0.83    0.37
   7   2   9    0.00    0.34
   7   2  10   12.94    1.07
   7  -2  10   12.31    1.04
  -7  -2 -10   14.14    0.89
   7  -2  10   14.69    0.89
   7   2  10   13.58    0.87
   7  -2  11    3.96    0.78
   7   2  11    3.45    0.71
   7  -2  11    3.15    0.57
   7   2  11    2.18    0.50
   7   2  12   51.74    2.27
   7  -2  12   54.25    2.31
   7  -2  12   52.93    1.87
   7   2  12   56.17    1.93
   7   2  13    2.54    0.76
   7  -2  13    2.48    0.70
   7   2  13    0.31    0.50
   7  -2  13    0.04    0.49
   7  -2  14    1.11    0.56
   7   2  14   -0.14    0.55
  -7   3  15   -0.46    0.57
  -7  -3  15    1.48    0.71
  -7  -3  14   -0.12    0.59
  -7   3  14    1.34    0.62
  -7  -3  13    5.78    0.83
  -7   3  13    6.56    0.86
  -7  -3  12   -0.14    0.52
  -7   3  12   -0.52    0.54
  -7   3  11   52.57    1.94
  -7  -3  11   50.71    1.91
  -7  -3  10    5.43    0.68
  -7   3  10    4.96    0.70
  -7  -3   9   10.82    0.83
  -7   3   9   11.44    0.87
   7  -3  -8   10.18    0.74
  -7  -3   8    9.39    0.75
   7   3  -8    9.41    0.73
  -7   3   8   10.66    0.78
  -7  -3   7    2.65    0.45
   7  -3  -7    3.22    0.44
   7   3  -7    2.94    0.40
  -7   3   7    2.44    0.43
  -7  -3   6   14.92    0.80
   7  -3  -6   14.61    0.77
   7   3  -6   14.86    0.75
  -7   3   6   14.88    0.79
   7  -3  -5   79.04    1.78
  -7  -3   5   75.74    1.80
   7   3  -5   75.89    1.73
  -7   3   5   78.38    1.80
   7  -3  -4   43.76    1.15
  -7  -3   4   40.80    1.17
   7   3  -4   39.21    1.09
  -7   3   4   41.14    1.15
  -7  -3   3    3.67    0.37
   7  -3  -3    3.76    0.48
   7   3  -3    2.53    0.28
   7  -3  -3    3.65    0.34
  -7   3   3    2.83    0.30
  -7  -3   2    0.36    0.20
   7   3  -2    0.30    0.36
   7  -3  -2   -0.35    0.19
   7  -3  -2    0.11    0.30
   7   3  -2    0.15    0.17
  -7   3   2    0.20    0.19
   7  -3  -2    0.29    0.19
   7  -3  -1  201.05    3.67
   7  -3  -1  203.92    3.60
   7   3  -1  203.38    3.75
   7   3  -1  189.41    2.84
   7  -3  -1  193.44    2.89
   7  -3  -1  209.97    2.83
   7  -3   0   30.76    1.20
   7   3   0   30.23    1.22
   7  -3   0   30.38    1.13
   7  -3   0   31.00    0.64
  -7  -3   0   27.27    0.59
   7  -3   0   31.82    0.61
   7   3   1  107.34    2.46
   7   3   1  107.27    2.39
   7  -3   1  111.49    2.48
  -7   3  -1  107.28    2.42
   7  -3   1  109.84    2.38
  -7  -3  -1  108.24    1.60
   7  -3   1  105.51    1.59
  -7  -3  -1  102.70    1.61
   7  -3   1  104.90    1.48
  -7  -3  -2    6.27    0.59
   7   3   2    4.73    0.51
  -7   3  -2    6.57    0.59
   7  -3   2    4.87    0.56
   7  -3   2    5.27    0.22
   7  -3   2    5.46    0.54
   7   3   2    5.20    0.56
  -7  -3  -2    5.03    0.29
  -7   3  -2    5.45    0.32
   7  -3   2    5.33    0.23
  -7  -3  -2    5.54    0.27
  -7  -3  -3    2.12    0.40
   7  -3   3    1.58    0.18
  -7   3  -3    1.57    0.37
   7   3   3    1.53    0.44
   7  -3   3    1.79    0.40
  -7   3  -3    2.13    0.42
  -7   3  -3    1.80    0.22
  -7  -3  -3    2.07    0.23
  -7  -3  -3    1.56    0.19
  -7  -3  -4   13.34    0.80
  -7   3  -4   13.26    0.86
  -7  -3  -4   14.78    0.88
   7  -3   4   13.00    0.83
  -7   3  -4   13.98    0.87
   7   3   4   12.55    0.84
  -7   3  -4   13.42    0.56
   7  -3   4   12.70    0.47
  -7  -3  -4   13.08    0.51
  -7  -3  -5   73.36    2.01
  -7  -3  -5   72.60    2.10
   7   3   5   70.48    2.08
   7  -3   5   70.58    2.04
  -7   3  -5   72.99    2.10
  -7   3  -5   71.85    1.57
  -7  -3  -5   73.81    1.51
   7   3   5   73.05    1.51
   7  -3   5   72.17    1.45
  -7  -3  -6    1.13    0.37
   7  -3   6    0.29    0.24
  -7  -3  -6    0.35    0.22
   7  -3   6    1.01    0.43
   7   3   6    0.90    0.45
  -7   3  -6    0.16    0.22
   7   3   6    0.30    0.24
  -7  -3  -7    6.50    0.52
   7   3   7    7.24    0.76
   7  -3   7    7.18    0.77
  -7   3  -7    6.26    0.53
   7   3   7    6.67    0.53
   7  -3   7    6.76    0.51
  -7  -3  -8   -0.04    0.28
   7   3   8   -0.23    0.41
   7  -3   8    0.13    0.41
  -7   3  -8   -0.16    0.27
   7  -3   8    0.17    0.31
   7   3   8   -0.55    0.36
  -7  -3  -9    1.20    0.37
   7  -3   9    1.53    0.53
   7   3   9    1.19    0.50
  -7   3  -9    1.47    0.37
   7   3   9    0.96    0.38
   7  -3   9    1.37    0.40
   7   3  10    0.44    0.50
   7  -3  10    0.08    0.49
   7  -3  10    0.07    0.36
   7   3  10   -0.06    0.38
   7   3  11   31.55    1.70
   7  -3  11   33.82    1.75
   7   3  11   33.39    1.43
   7  -3  11   34.39    1.42
   7   3  12    1.40    0.64
   7  -3  12    1.09    0.60
   7  -3  12    1.74    0.56
   7   3  12    0.98    0.50
   7  -3  13   21.36    1.55
   7   3  13   18.22    1.42
   7  -3  13   21.27    1.26
   7   3  13   19.23    1.22
   7  -3  14    0.39    0.51
   7   3  14    0.63    0.60
  -7  -4  14    7.65    0.96
  -7   4  14    6.59    0.90
  -7  -4  13    1.08    0.60
  -7   4  13    1.70    0.68
  -7  -4  12   37.69    1.73
  -7   4  12   37.26    1.74
  -7  -4  11    1.44    0.60
  -7   4  11    2.34    0.62
  -7  -4  10    8.82    0.83
  -7   4  10    9.37    0.85
  -7  -4   9    0.22    0.45
  -7   4   9    0.58    0.44
  -7  -4   8   -0.10    0.44
   7   4  -8    0.44    0.32
  -7   4   8    0.32    0.39
  -7  -4   7    7.79    0.68
   7  -4  -7    9.07    0.67
   7   4  -7    8.44    0.64
  -7   4   7    8.47    0.70
  -7  -4   6   35.96    1.25
   7  -4  -6   35.23    1.21
   7   4  -6   33.82    1.18
  -7   4   6   35.39    1.23
  -7  -4   5    2.38    0.38
   7  -4  -5    1.80    0.33
   7   4  -5    2.04    0.34
  -7   4   5    2.21    0.37
  -7  -4   4   90.00    1.92
   7   4  -4   88.86    1.85
  -7   4   4   90.01    1.90
   7  -4  -4   91.00    1.88
   7  -4  -3   94.45    2.16
  -7  -4   3   92.11    1.85
   7   4  -3   89.92    1.77
   7  -4  -3   92.38    1.79
  -7   4   3   90.23    1.80
   7  -4  -2   15.16    0.79
  -7  -4   2   14.69    0.55
   7  -4  -2   14.58    0.58
   7   4  -2   14.85    0.58
   7  -4  -2   16.50    0.59
  -7   4   2   14.71    0.58
   7  -4  -1    0.49    0.34
   7   4  -1    0.02    0.37
   7  -4  -1    0.74    0.34
   7  -4  -1    0.62    0.24
  -7  -4   1    0.21    0.16
   7  -4  -1    0.53    0.17
   7   4  -1    0.62    0.21
   7  -4   0   92.40    2.20
   7   4   0   90.58    2.23
   7  -4   0   89.90    2.08
   7  -4   0   92.15    1.57
  -7  -4   0   88.67    1.52
   7  -4   0   90.09    1.48
   7  -4   1    0.31    0.33
  -7   4  -1    0.32    0.31
   7   4   1    0.33    0.31
   7   4   1    0.55    0.36
   7  -4   1    0.39    0.33
  -7  -4  -1    0.64    0.19
   7  -4   1    0.80    0.20
  -7  -4  -1    0.47    0.18
   7  -4   1    0.31    0.14
  -7  -4  -2   25.11    1.11
  -7   4  -2   24.56    1.07
   7   4   2   21.78    0.99
   7  -4   2   23.86    1.04
   7   4   2   23.61    1.09
  -7   4  -2   23.11    0.73
   7  -4   2   25.13    0.69
  -7  -4  -2   23.39    0.72
  -7  -4  -2   24.68    0.67
   7  -4   2   24.29    0.63
  -7  -4  -3    4.72    0.53
   7  -4   3    4.72    0.30
  -7   4  -3    5.05    0.57
   7   4   3    4.70    0.54
   7  -4   3    4.82    0.53
  -7   4  -3    4.24    0.48
  -7   4  -3    4.66    0.35
  -7  -4  -3    5.16    0.35
  -7  -4  -3    4.82    0.32
  -7   4  -4    0.70    0.32
   7  -4   4    0.17    0.19
   7   4   4    0.08    0.35
  -7  -4  -4    0.15    0.32
   7  -4   4    0.12    0.34
  -7   4  -4    0.31    0.30
  -7   4  -4    0.23    0.19
  -7  -4  -4   -0.13    0.20
  -7  -4  -5   21.46    1.08
  -7  -4  -5   19.13    0.99
   7  -4   5   21.51    0.74
   7   4   5   21.25    1.11
   7  -4   5   20.28    1.07
  -7   4  -5   20.35    1.08
  -7   4  -5   20.94    0.80
  -7  -4  -5   20.43    0.75
   7   4   5   21.26    0.78
  -7  -4  -6   15.00    0.91
   7   4   6   15.65    1.00
   7  -4   6   16.88    1.02
  -7   4  -6   16.91    0.78
  -7  -4  -6   17.36    0.74
   7   4   6   17.83    0.76
   7  -4   6   17.56    0.73
  -7  -4  -7   13.34    0.71
   7  -4   7   14.74    0.98
   7   4   7   12.28    0.95
  -7   4  -7   12.28    0.72
   7  -4   7   14.31    0.72
   7   4   7   14.86    0.77
   7  -4   8    2.22    0.41
  -7  -4  -8    1.44    0.34
   7   4   8    1.40    0.46
   7  -4   8    2.27    0.55
  -7   4  -8    2.32    0.41
   7   4   8    1.97    0.39
   7  -4   9    6.02    0.58
  -7  -4  -9    6.57    0.60
   7  -4   9    5.82    0.75
   7   4   9    5.42    0.75
  -7   4  -9    6.45    0.63
   7   4   9    6.13    0.60
   7   4  10   11.45    1.03
   7  -4  10   13.99    1.13
   7   4  10   13.73    0.90
   7  -4  10   14.95    0.92
   7   4  11    0.82    0.56
   7  -4  11    1.15    0.60
   7   4  11   -0.14    0.41
   7  -4  11    0.08    0.42
   7  -4  12   30.13    1.73
   7   4  12   25.27    1.59
   7   4  12   30.91    1.47
   7  -4  12   28.76    1.38
   7  -4  13    2.68    0.75
   7   4  13    2.42    0.67
   7   4  13    2.77    0.64
   7  -4  13    0.14    0.48
   7   4  14    2.27    0.64
   7  -4  14    1.20    0.59
  -7  -5  14    1.15    0.60
  -7   5  14    0.80    0.62
  -7  -5  13   21.88    1.42
  -7   5  13   21.17    1.39
  -7  -5  12    3.07    0.71
  -7   5  12    1.48    0.56
  -7  -5  11   56.02    2.07
  -7   5  11   56.39    2.06
  -7  -5  10    0.05    0.49
  -7   5  10   -0.91    0.52
  -7  -5   9    5.70    0.67
  -7   5   9    6.89    0.71
  -7  -5   8   27.82    1.28
   7   5  -8   28.71    1.24
  -7   5   8   28.95    1.27
  -7  -5   7  127.84    2.82
   7   5  -7  131.70    2.83
  -7   5   7  128.47    2.83
   7  -5  -7  134.25    2.83
  -7  -5   6   35.49    1.28
   7   5  -6   35.91    1.25
  -7   5   6   38.01    1.30
   7  -5  -6   37.54    1.27
  -7  -5   5  118.77    2.46
   7   5  -5  118.26    2.40
  -7   5   5  117.12    2.44
   7  -5  -5  116.15    2.38
  -7  -5   4    2.78    0.40
   7  -5  -4    3.37    0.38
   7   5  -4    3.12    0.37
  -7   5   4    2.79    0.40
   7  -5  -3  124.32    2.58
  -7  -5   3  125.28    2.26
   7   5  -3  125.44    2.30
   7  -5  -3  124.75    2.27
   7  -5  -3  125.34    2.33
  -7   5   3  123.58    2.33
   7  -5  -2    2.06    0.37
   7   5  -2    1.80    0.26
  -7  -5   2    2.17    0.29
   7  -5  -2    1.72    0.25
   7  -5  -2    2.31    0.31
   7   5  -1   23.76    1.11
   7  -5  -1   24.34    1.04
   7  -5  -1   23.33    0.95
   7  -5  -1   24.07    0.81
  -7  -5   1   24.34    0.73
   7   5  -1   23.57    0.78
   7  -5  -1   24.90    0.71
   7   5   0   27.88    1.17
   7  -5   0   30.61    1.19
   7  -5   0   29.14    1.08
  -7  -5   0   28.43    0.79
   7  -5   0   27.97    0.81
   7  -5   0   27.27    0.74
   7   5   1   51.57    1.64
   7   5   1   50.74    1.55
   7  -5   1   55.76    1.69
  -7   5  -1   52.47    1.59
   7  -5   1   55.15    1.57
  -7  -5  -1   56.29    1.22
   7  -5   1   56.85    1.19
  -7   5  -1   53.76    1.20
  -7  -5  -1   54.29    1.21
   7  -5   1   54.96    1.12
   7   5   2   -0.25    0.32
  -7  -5  -2    0.65    0.32
   7  -5   2    0.20    0.30
   7   5   2    0.37    0.34
  -7   5  -2    0.29    0.29
  -7  -5  -2    0.04    0.22
   7  -5   2    0.41    0.21
  -7   5  -2    0.35    0.23
  -7  -5  -2    0.39    0.17
  -7  -5  -3    0.56    0.31
  -7   5  -3    0.84    0.33
   7   5   3    0.34    0.37
   7  -5   3    0.21    0.31
  -7   5  -3    0.16    0.32
  -7   5  -3    0.39    0.22
   7  -5   3    0.96    0.24
  -7  -5  -3    0.60    0.21
  -7  -5  -3    0.49    0.21
  -7  -5  -4    8.40    0.68
  -7   5  -4    9.11    0.76
   7  -5   4    8.74    0.47
   7  -5   4    9.13    0.71
  -7   5  -4    7.45    0.66
   7   5   4    8.21    0.69
  -7   5  -4    8.45    0.51
  -7  -5  -4    8.06    0.47
  -7  -5  -4    8.38    0.50
  -7  -5  -5    0.36    0.28
   7  -5   5    1.19    0.30
   7  -5   5    1.51    0.46
   7   5   5    1.22    0.41
  -7  -5  -5    0.54    0.33
  -7   5  -5    0.51    0.23
  -7  -5  -5    1.15    0.28
  -7  -5  -6    7.70    0.64
   7  -5   6    7.73    0.54
   7  -5   6    8.82    0.78
   7   5   6    8.32    0.76
  -7   5  -6    7.92    0.57
  -7  -5  -6    7.70    0.54
   7   5   6    8.41    0.58
  -7  -5  -7   19.85    1.06
   7  -5   7   19.73    0.87
   7   5   7   17.89    1.10
   7  -5   7   21.65    1.21
  -7   5  -7   19.13    0.91
  -7  -5  -7   19.34    0.87
   7   5   7   20.77    0.92
   7  -5   8    1.89    0.41
  -7  -5  -8    2.08    0.39
   7  -5   8    2.16    0.53
   7   5   8    1.50    0.49
  -7   5  -8    2.10    0.40
   7   5   8    1.88    0.42
   7  -5   9    0.77    0.49
   7   5   9    1.01    0.48
   7  -5   9    1.21    0.40
  -7  -5  -9    1.02    0.38
   7   5   9    0.64    0.37
   7   5  10   -0.15    0.55
   7  -5  10    0.60    0.54
   7  -5  10    0.18    0.38
   7   5  10    1.13    0.45
   7  -5  11    7.33    0.89
   7   5  11    8.07    0.91
   7  -5  11    6.72    0.71
   7   5  11    8.15    0.78
   7  -5  12    2.39    0.75
   7   5  12    1.18    0.60
   7   5  12    1.14    0.54
   7  -5  12    0.01    0.45
   7   5  13   10.01    1.11
   7   5  13   12.09    1.02
   7  -5  13   12.08    1.00
   7   5  14    1.81    0.67
  -7  -6  14   12.82    1.19
  -7   6  14   13.83    1.24
  -7  -6  13    0.55    0.53
  -7   6  13    1.50    0.60
  -7  -6  12   27.97    1.53
  -7   6  12   25.49    1.48
  -7  -6  11    4.32    0.74
  -7   6  11    3.20    0.64
  -7  -6  10    3.35    0.60
  -7   6  10    3.05    0.62
  -7  -6   9    0.69    0.44
  -7   6   9    0.76    0.47
  -7  -6   8   18.00    1.04
  -7   6   8   17.99    1.03
  -7  -6   7   10.06    0.75
   7   6  -7   10.02    0.73
   7  -6  -7   10.08    0.72
  -7   6   7    9.97    0.75
  -7  -6   6   71.19    1.92
   7   6  -6   75.76    1.95
  -7   6   6   73.16    1.95
   7  -6  -6   75.20    1.91
  -7  -6   5   11.66    0.73
   7   6  -5   10.98    0.68
  -7   6   5   10.36    0.70
   7  -6  -5   10.40    0.64
   7  -6  -4   69.35    1.78
  -7  -6   4   67.40    1.63
   7   6  -4   67.90    1.66
   7  -6  -4   67.31    1.63
  -7   6   4   66.81    1.70
   7  -6  -3    3.55    0.40
   7   6  -3    3.78    0.39
  -7  -6   3    4.10    0.40
   7  -6  -3    4.50    0.39
   7  -6  -3    4.52    0.41
  -7   6   3    3.23    0.38
   7  -6  -2   44.82    1.46
   7  -6  -2   46.58    1.37
   7   6  -2   45.85    1.27
   7  -6  -2   45.00    1.26
  -7  -6   2   47.92    1.20
   7  -6  -2   44.79    1.15
   7  -6  -1   30.98    1.19
   7   6  -1   29.58    1.24
   7  -6  -1   29.76    1.07
   7   6  -1   29.50    0.94
   7  -6  -1   29.18    0.96
  -7  -6   1   30.07    0.91
   7  -6  -1   30.19    0.87
   7   6   0  198.94    3.85
   7  -6   0  208.63    3.83
   7  -6   0  210.61    3.65
  -7  -6   0  212.26    3.29
   7  -6   0  210.06    3.33
   7  -6   0  204.95    3.18
   7   6   1   22.18    1.06
   7   6   1   22.35    0.98
   7  -6   1   23.90    1.09
  -7   6  -1   22.41    1.01
   7  -6   1   22.77    0.97
   7  -6   1   23.84    0.79
  -7  -6  -1   22.58    0.79
  -7   6  -1   21.93    0.78
  -7  -6  -1   23.14    0.80
   7  -6   1   22.65    0.73
   7   6   2    1.19    0.34
  -7   6  -2    1.16    0.35
   7  -6   2    0.46    0.32
  -7   6  -2    0.62    0.32
   7   6   2    0.73    0.32
   7  -6   2    1.25    0.27
  -7  -6  -2    0.65    0.23
  -7   6  -2    1.19    0.27
  -7  -6  -2    1.28    0.25
  -7  -6  -3    1.70    0.38
  -7   6  -3    1.01    0.36
   7   6   3    1.56    0.38
  -7   6  -3    1.12    0.36
   7  -6   3    2.15    0.42
  -7   6  -3    1.84    0.33
   7  -6   3    2.16    0.32
  -7  -6  -3    1.86    0.28
  -7  -6  -3    1.56    0.31
  -7  -6  -4    0.75    0.36
   7   6   4    1.14    0.39
  -7   6  -4    0.27    0.39
   7  -6   4    0.98    0.37
   7  -6   4    0.49    0.27
  -7   6  -4    1.03    0.27
  -7  -6  -4    0.67    0.26
  -7  -6  -4    0.53    0.24
  -7  -6  -5   15.99    0.96
   7  -6   5   16.51    0.72
   7   6   5   14.58    0.94
   7  -6   5   17.24    1.00
  -7   6  -5   15.71    0.77
  -7  -6  -5   15.81    0.72
   7  -6   6   50.19    1.38
  -7  -6  -6   48.20    1.59
   7   6   6   44.60    1.69
   7  -6   6   49.29    1.73
  -7   6  -6   49.72    1.48
  -7  -6  -6   48.54    1.40
   7  -6   7    6.64    0.55
  -7  -6  -7    5.95    0.62
   7   6   7    6.41    0.72
   7  -6   7    7.29    0.75
  -7   6  -7    6.32    0.58
  -7  -6  -7    7.00    0.58
   7   6   7    7.24    0.61
  -7  -6  -8    5.19    0.54
   7  -6   8    5.17    0.54
   7  -6   8    5.38    0.72
   7   6   8    4.62    0.65
  -7   6  -8    5.41    0.56
   7   6   8    5.33    0.58
   7   6   9    0.92    0.47
   7  -6   9    1.79    0.58
   7  -6   9    0.83    0.36
   7   6   9    2.08    0.46
   7   6  10    4.80    0.74
   7  -6  10    3.86    0.72
   7  -6  10    4.00    0.57
   7   6  10    6.07    0.69
   7   6  11    2.23    0.61
   7  -6  11    4.91    0.81
   7  -6  11    3.18    0.60
   7   6  11    3.86    0.64
   7  -6  12   14.90    1.30
   7   6  12   14.38    1.25
   7  -6  12   16.09    1.08
   7   6  12   16.15    1.12
   7   6  13    5.31    0.90
   7   6  13    5.15    0.79
   7  -6  13    3.43    0.67
   7   6  14    1.65    0.64
  -7  -7  14    2.25    0.65
  -7   7  14    2.50    0.75
  -7  -7  13   20.82    1.40
  -7   7  13   20.06    1.40
  -7  -7  12    7.73    0.90
  -7   7  12    6.21    0.86
  -7  -7  11   13.99    1.10
  -7   7  11   12.64    1.07
  -7  -7  10    0.19    0.48
  -7   7  10   -0.46    0.53
  -7  -7   9   25.66    1.32
  -7   7   9   28.15    1.39
  -7  -7   8   11.37    0.88
  -7   7   8   13.97    0.95
  -7  -7   7   64.70    1.93
   7   7  -7   66.97    1.95
  -7   7   7   66.44    1.96
  -7  -7   6   11.42    0.77
   7   7  -6   10.55    0.73
   7  -7  -6   13.00    0.78
  -7   7   6   11.29    0.78
   7   7  -5   44.98    1.43
  -7  -7   5   44.38    1.38
   7  -7  -5   45.59    1.39
  -7   7   5   44.29    1.44
   7  -7  -4    1.58    0.35
   7   7  -4    1.43    0.35
  -7  -7   4    1.50    0.35
  -7   7   4    1.59    0.36
   7  -7  -4    1.48    0.31
   7  -7  -4    1.64    0.37
   7  -7  -3    0.50    0.25
   7   7  -3    0.38    0.27
  -7  -7   3    0.41    0.25
   7  -7  -3    0.03    0.28
   7  -7  -3    0.32    0.24
   7  -7  -2    6.32    0.56
   7  -7  -2    6.19    0.49
   7  -7  -2    6.44    0.53
   7   7  -2    6.95    0.54
  -7  -7   2    7.48    0.51
   7  -7  -2    7.49    0.48
   7  -7  -1  181.92    3.46
   7   7  -1  174.32    3.53
   7  -7  -1  180.77    3.23
  -7  -7   1  183.57    3.08
   7  -7  -1  180.13    3.15
   7   7  -1  177.51    3.11
   7  -7  -1  179.79    3.00
   7  -7   0    0.42    0.38
   7  -7   0    1.03    0.34
   7   7   0    0.35    0.34
   7  -7   0    0.17    0.28
  -7  -7   0    0.45    0.26
   7  -7   0    0.44    0.23
   7   7   1  116.90    2.67
   7   7   1  117.73    2.50
  -7   7  -1  118.15    2.58
   7  -7   1  122.99    2.51
   7  -7   1  124.80    2.31
  -7  -7  -1  112.80    2.26
  -7   7  -1  110.73    2.25
  -7  -7  -1  122.38    2.33
   7  -7   1  122.23    2.23
  -7   7  -2   22.99    1.11
  -7   7  -2   22.77    1.04
   7   7   2   21.21    0.94
   7  -7   2   22.41    0.98
   7   7   2   20.83    1.04
  -7   7  -2   22.62    0.90
  -7  -7  -2   21.20    0.86
   7  -7   2   23.06    0.86
  -7  -7  -2   22.50    0.84
  -7   7  -3   20.00    1.07
  -7  -7  -3   20.96    1.04
  -7   7  -3   20.55    1.03
   7  -7   3   20.92    1.01
   7   7   3   18.10    1.00
  -7  -7  -3   19.91    0.86
   7  -7   3   21.28    0.84
  -7   7  -3   20.78    0.92
  -7  -7  -3   20.66    0.81
  -7  -7  -4    3.66    0.51
   7  -7   4    3.31    0.50
   7   7   4    2.99    0.52
  -7   7  -4    3.25    0.52
  -7   7  -4    2.94    0.40
   7  -7   4    3.47    0.41
  -7  -7  -4    3.19    0.39
  -7  -7  -4    2.94    0.39
   7  -7   5   14.09    0.70
   7   7   5   12.26    0.88
   7  -7   5   13.32    0.89
   7  -7   5   13.54    0.75
  -7   7  -5   13.46    0.76
  -7  -7  -5   13.40    0.70
  -7  -7  -5   13.75    0.74
   7  -7   6    7.41    0.59
   7  -7   6    7.16    0.72
   7   7   6    6.71    0.74
  -7   7  -6    6.05    0.58
  -7  -7  -6    6.27    0.55
  -7  -7  -7   31.15    1.30
   7  -7   7   32.54    1.19
   7   7   7   31.20    1.43
   7  -7   7   30.32    1.43
  -7   7  -7   32.48    1.27
   7   7   7   31.19    1.23
  -7  -7  -7   32.88    1.22
   7   7   8    0.35    0.41
   7  -7   8    0.15    0.41
  -7  -7  -8    0.67    0.36
   7  -7   8   -0.34    0.36
   7   7   8   -0.02    0.36
   7  -7   9   -0.28    0.45
   7   7   9    0.12    0.44
   7  -7   9    0.10    0.36
   7   7   9    0.89    0.42
   7   7  10    1.42    0.55
   7  -7  10    2.42    0.66
   7  -7  10    2.01    0.52
   7   7  10    1.60    0.52
   7  -7  11   13.77    1.19
   7   7  11   12.88    1.11
   7  -7  11   15.31    1.03
   7   7  11   15.13    1.05
   7  -7  12    8.20    0.99
   7   7  12    9.34    1.06
   7  -7  12    8.40    0.85
   7   7  12    8.33    0.93
   7   7  13   14.24    1.28
   7  -7  13   14.49    1.10
   7   7  13   17.02    1.23
   7   7  14    3.37    0.76
  -7   8  14    1.78    0.73
  -7  -8  13    2.81    0.73
  -7   8  13    2.09    0.72
  -7  -8  12   34.43    1.74
  -7   8  12   34.49    1.75
  -7  -8  11   11.91    1.08
  -7   8  11   12.59    1.08
  -7  -8  10    6.93    0.81
  -7   8  10    7.03    0.82
  -7  -8   9    3.93    0.66
  -7   8   9    3.59    0.64
  -7  -8   8    9.04    0.82
  -7   8   8    9.64    0.87
  -7  -8   7    5.30    0.65
  -7   8   7    4.46    0.64
  -7  -8   6   63.04    1.86
   7   8  -6   61.89    1.83
  -7  -8   6   59.70    1.78
   7  -8  -6   61.49    1.77
  -7   8   6   57.22    1.82
   7  -8  -5    4.01    0.47
   7   8  -5    3.38    0.48
  -7  -8   5    4.36    0.52
  -7   8   5    3.28    0.50
   7  -8  -5    3.88    0.45
   7  -8  -4   51.94    1.47
  -7  -8   4   52.24    1.51
   7   8  -4   49.64    1.53
   7  -8  -4   50.50    1.54
  -7   8   4   52.72    1.58
   7  -8  -4   51.67    1.48
   7  -8  -3    0.93    0.34
   7  -8  -3    0.54    0.26
   7   8  -3    0.36    0.27
  -7  -8   3    0.87    0.31
   7  -8  -3    1.07    0.31
   7  -8  -3    0.74    0.32
   7  -8  -2   98.40    2.32
   7   8  -2   98.86    2.48
   7  -8  -2   97.79    2.10
  -7  -8   2   98.24    2.12
   7  -8  -2   97.48    2.28
   7   8  -2   93.74    2.22
   7  -8  -2   99.58    2.08
   7  -8  -1   10.76    0.73
   7   8  -1   11.71    0.82
   7  -8  -1   12.51    0.68
  -7  -8   1   13.07    0.70
   7  -8  -1   12.07    0.70
   7   8  -1   11.79    0.68
   7  -8  -1   12.52    0.64
   7   8   0   14.32    0.88
   7  -8   0   16.20    0.89
   7  -8   0   16.01    0.79
  -7  -8   0   15.38    0.73
   7  -8   0   14.03    0.73
   7  -8   0   14.54    0.68
   7   8   1    7.93    0.60
   7   8   1    8.41    0.70
  -7   8  -1    8.89    0.65
   7  -8   1    8.44    0.60
   7  -8   1    8.48    0.59
  -7  -8  -1    8.65    0.59
  -7   8  -1    8.17    0.57
  -7  -8  -1    8.52    0.59
   7  -8   1    8.44    0.56
  -7   8  -2    8.87    0.67
   7   8   2    7.54    0.57
   7  -8   2    6.96    0.59
   7   8   2    7.77    0.68
  -7  -8  -2    8.88    0.59
  -7   8  -2    7.94    0.57
   7  -8   2    7.83    0.56
  -7  -8  -2    8.68    0.56
  -7   8  -3   13.31    0.83
   7  -8   3   14.00    0.82
   7   8   3   13.06    0.85
  -7   8  -3   13.79    0.80
   7  -8   3   15.22    0.75
  -7  -8  -3   12.66    0.73
  -7  -8  -3   12.65    0.69
  -7  -8  -4   53.68    1.75
   7  -8   4   53.92    1.71
  -7   8  -4   55.66    1.80
   7   8   4   52.49    1.74
  -7   8  -4   55.11    1.64
   7  -8   4   57.36    1.56
  -7  -8  -4   57.07    1.60
  -7  -8  -4   54.96    1.51
   7   8   5   41.87    1.58
   7  -8   5   42.93    1.57
  -7  -8  -5   44.64    1.42
  -7   8  -5   43.26    1.45
   7  -8   5   44.96    1.42
  -7  -8  -5   44.77    1.38
   7  -8   6   78.48    1.91
   7   8   6   74.64    2.23
   7  -8   6   76.73    2.25
  -7   8  -6   75.97    2.05
  -7  -8  -6   76.05    1.94
  -7  -8  -6   75.49    2.02
   7  -8   7    1.54    0.41
  -7  -8  -7    1.89    0.42
   7   8   7    1.02    0.44
   7  -8   7    2.19    0.51
  -7   8  -7    2.17    0.44
  -7  -8  -7    1.88    0.41
   7   8   8    0.35    0.46
   7  -8   8   -0.57    0.45
   7  -8   8    0.22    0.36
   7   8   8    0.44    0.40
   7  -8   9   -0.41    0.53
   7   8   9    0.70    0.44
   7  -8   9   -0.19    0.39
   7   8   9   -0.15    0.40
   7   8  10    7.01    0.86
   7  -8  10    9.30    0.96
   7  -8  10    9.28    0.83
   7   8  10    9.84    0.88
   7  -8  11    1.99    0.64
   7   8  11    2.28    0.85
   7  -8  11    2.42    0.58
   7   8  11    2.71    0.78
   7  -8  12   28.83    1.75
   7   8  12   26.60    1.64
   7  -8  12   30.26    1.51
   7   8  12   32.80    1.64
   7   8  13    0.91    0.61
   7  -8  13    1.37    0.62
   7   8  13    1.20    0.65
   7   8  14    0.85    0.60
  -7  -9  13    0.47    0.56
  -7   9  13   -0.48    0.64
  -7  -9  12    0.83    0.57
  -7   9  12    1.00    0.61
  -7  -9  11   36.22    1.75
  -7   9  11   35.24    1.74
  -7  -9  10    6.58    0.78
  -7   9  10    5.76    0.80
  -7  -9   9   40.42    1.69
  -7   9   9   41.90    1.74
  -7  -9   8   27.82    1.37
  -7   9   8   30.62    1.44
  -7  -9   7   27.05    1.28
  -7   9   7   27.73    1.32
  -7  -9   6    2.12    0.49
  -7   9   6    1.52    0.48
   7  -9  -5   41.57    1.31
  -7  -9   5   40.39    1.43
   7   9  -5   40.93    1.47
   7  -9  -5   41.44    1.40
   7  -9  -5   40.79    1.49
  -7   9   5   40.83    1.51
   7  -9  -4   10.43    0.64
   7   9  -4   10.22    0.73
  -7  -9   4   10.25    0.73
   7  -9  -4   10.03    0.73
   7  -9  -4   11.28    0.69
   7  -9  -3   24.10    1.08
   7  -9  -3   25.66    0.95
   7   9  -3   22.59    1.06
   7  -9  -3   24.86    1.12
  -7  -9   3   24.78    1.04
   7  -9  -3   24.56    1.00
   7  -9  -2    1.02    0.35
   7   9  -2    1.07    0.41
   7  -9  -2    1.09    0.29
  -7  -9   2    1.09    0.35
   7  -9  -2    0.92    0.41
   7   9  -2    1.17    0.35
   7  -9  -2    0.74    0.26
   7  -9  -1   91.65    2.26
   7   9  -1   92.44    2.36
   7  -9  -1   92.21    2.02
   7  -9  -1   93.97    2.19
  -7  -9   1   94.23    2.15
   7   9  -1   93.12    2.16
   7  -9  -1   91.98    2.05
   7   9   0   32.37    1.31
   7  -9   0   33.44    1.29
   7  -9   0   32.62    1.12
  -7  -9   0   32.21    1.16
   7  -9   0   30.18    1.15
   7  -9   0   31.97    1.11
   7   9   1  157.52    2.96
  -7   9  -1  162.98    3.12
   7   9   1  155.21    3.23
   7  -9   1  158.93    2.98
   7  -9   1  156.86    2.99
  -7  -9  -1  150.18    2.97
  -7   9  -1  151.75    3.00
  -7  -9  -1  149.07    3.00
   7  -9   1  148.63    2.90
   7   9   2    4.35    0.45
  -7   9  -2    4.80    0.52
   7  -9   2    4.29    0.48
   7   9   2    4.04    0.53
  -7  -9  -2    3.95    0.47
   7  -9   2    4.34    0.49
  -7  -9  -2    4.03    0.52
  -7   9  -2    4.06    0.47
  -7   9  -3   11.24    0.77
   7  -9   3   11.17    0.74
   7   9   3   12.01    0.82
  -7   9  -3   11.63    0.78
  -7  -9  -3   11.49    0.76
   7  -9   3   11.37    0.71
  -7  -9  -3   11.96    0.71
  -7  -9  -4    1.85    0.40
   7   9   4    1.68    0.43
   7  -9   4    2.60    0.49
  -7   9  -4    2.05    0.42
  -7   9  -4    2.42    0.44
   7  -9   4    2.49    0.43
  -7  -9  -4    1.98    0.42
  -7  -9  -4    1.79    0.35
   7   9   5   86.58    2.36
   7  -9   5   87.24    2.34
  -7   9  -5   86.14    2.24
   7  -9   5   90.49    2.18
  -7  -9  -5   84.69    2.16
  -7  -9  -5   87.62    2.12
   7  -9   6    6.43    0.72
   7   9   6    7.34    0.74
   7  -9   6    8.01    0.68
  -7   9  -6    6.79    0.66
  -7  -9  -6    7.43    0.64
  -7  -9  -6    8.04    0.71
   7  -9   7   22.18    1.25
   7   9   7   22.15    1.21
   7  -9   7   25.53    1.13
  -7  -9  -7   23.38    1.16
   7  -9   8    6.97    0.80
   7   9   8    7.40    0.76
   7  -9   8    7.39    0.69
  -7  -9  -8    7.05    0.67
   7  -9   9    6.32    0.82
   7   9   9    6.49    0.77
   7  -9   9    6.61    0.70
   7   9   9    6.58    0.73
   7  -9  10    5.84    0.82
   7   9  10    5.06    0.75
   7  -9  10    6.12    0.72
   7   9  10    6.38    0.77
   7   9  11   23.15    1.47
   7  -9  11   24.87    1.56
   7  -9  11   24.19    1.31
   7   9  11   21.87    1.33
   7   9  12    7.84    1.00
   7  -9  12    6.90    0.87
   7   9  12    7.26    0.93
   7   9  13    1.50    0.60
   7  -9  13    3.36    0.73
   7   9  13    2.56    0.71
  -7 -10  13   16.10    1.33
  -7  10  13   16.83    1.35
  -7 -10  12   11.52    1.09
  -7  10  12   11.92    1.11
  -7 -10  11    0.95    0.60
  -7  10  11    1.79    0.68
  -7 -10  10    1.85    0.58
  -7  10  10    2.32    0.62
  -7 -10   9    0.23    0.48
  -7  10   9    0.97    0.55
  -7 -10   8   15.38    1.07
  -7  10   8   15.04    1.07
  -7 -10   7   82.80    2.33
  -7  10   7   84.13    2.45
   7 -10  -6   61.62    1.66
  -7 -10   6   59.84    1.90
   7 -10  -6   60.50    1.98
  -7  10   6   61.67    1.99
   7 -10  -5    4.25    0.44
   7  10  -5    3.26    0.51
  -7 -10   5    3.67    0.53
   7 -10  -5    3.44    0.55
  -7  10   5    3.61    0.57
   7 -10  -4   76.25    2.03
   7 -10  -4   77.83    1.79
   7  10  -4   74.31    2.10
   7 -10  -4   73.93    2.10
  -7 -10   4   73.85    2.02
   7 -10  -4   75.34    2.00
   7 -10  -3    3.06    0.46
   7 -10  -3    2.96    0.37
  -7 -10   3    2.21    0.44
   7  10  -3    3.62    0.53
   7 -10  -3    3.39    0.48
   7 -10  -3    2.71    0.48
   7 -10  -2   39.46    1.40
   7  10  -2   40.52    1.53
   7 -10  -2   41.08    1.21
   7  10  -2   40.11    1.45
   7 -10  -2   40.89    1.51
  -7 -10   2   40.75    1.40
   7 -10  -2   39.23    1.34
   7 -10  -1   20.65    1.00
   7  10  -1   22.81    1.12
   7 -10  -1   21.47    0.86
   7 -10  -1   21.43    1.03
  -7 -10   1   21.80    1.01
   7  10  -1   22.23    1.02
   7 -10  -1   22.51    0.97
   7  10   0   60.31    1.83
   7 -10   0   61.21    1.57
  -7 -10   0   55.80    1.66
   7 -10   0   60.94    1.76
   7 -10   0   61.64    1.68
   7  10   1   12.96    0.84
   7  10   1   13.56    0.74
  -7  10  -1   14.30    0.80
   7 -10   1   14.25    0.77
   7 -10   1   14.00    0.83
  -7 -10  -1   11.77    0.78
  -7  10  -1   14.07    0.82
  -7 -10  -1   13.71    0.81
   7 -10   1   12.04    0.74
  -7  10  -2   28.97    1.18
   7  10   2   28.58    1.05
   7 -10   2   28.93    1.12
   7  10   2   28.98    1.23
   7 -10   2   29.98    1.18
  -7 -10  -2   29.51    1.18
  -7  10  -2   28.34    1.18
   7 -10   2   27.30    1.11
  -7 -10  -2   29.39    1.18
   7  10   3    7.08    0.66
  -7  10  -3    6.92    0.64
   7 -10   3    8.15    0.67
   7 -10   3    7.84    0.66
  -7 -10  -3    6.95    0.64
  -7 -10  -3    8.19    0.63
  -7  10  -3    7.41    0.67
  -7  10  -4   15.17    0.93
   7 -10   4   16.21    0.92
   7  10   4   14.81    0.92
  -7 -10  -4   13.11    0.86
   7 -10   4   14.07    0.84
  -7  10  -4   13.89    0.92
  -7 -10  -4   13.59    0.80
   7 -10   5    1.20    0.46
   7  10   5   -0.02    0.34
   7 -10   5    0.66    0.38
  -7  10  -5    0.31    0.33
  -7 -10  -5    0.50    0.32
  -7 -10  -5    0.38    0.36
   7 -10   6   35.33    1.50
   7  10   6   34.92    1.47
  -7 -10  -6   33.95    1.40
   7 -10   6   36.71    1.43
   7 -10   7    8.12    0.81
   7  10   7    8.12    0.77
   7 -10   7    9.77    0.76
  -7 -10  -7   11.35    0.88
   7 -10   8    2.11    0.53
   7  10   8    2.53    0.56
   7 -10   8    2.65    0.53
  -7 -10  -8    2.60    0.57
   7 -10   9    6.42    0.81
   7  10   9    6.72    0.78
   7 -10   9    6.74    0.74
   7  10  10    9.14    0.93
   7 -10  10    9.50    1.03
   7 -10  10    8.69    0.85
   7 -10  11    0.43    0.55
   7  10  11    0.68    0.53
   7 -10  11    1.63    0.61
   7  10  11    0.84    0.54
   7  10  12   26.57    1.62
   7 -10  12   29.43    1.56
   7  10  12   29.88    1.64
   7  10  13    4.58    0.85
   7  10  13    6.92    0.95
  -7 -11  12    4.02    0.82
  -7  11  12    4.78    0.95
  -7 -11  11   12.63    1.10
  -7  11  11   13.74    1.21
  -7 -11  10    1.41    0.52
  -7  11  10    1.01    0.55
  -7 -11   9    0.44    0.49
  -7  11   9   -0.17    0.57
  -7 -11   8    0.63    0.51
  -7  11   8    0.63    0.52
  -7 -11   7  102.68    2.74
   7 -11  -7  108.91    2.92
  -7  11   7  106.90    2.89
   7 -11  -6   16.95    0.81
  -7 -11   6   17.85    1.07
   7 -11  -6   15.96    1.06
  -7  11   6   17.21    1.11
   7 -11  -5   10.27    0.75
   7 -11  -5    8.63    0.57
  -7 -11   5    9.49    0.79
   7 -11  -5    8.66    0.79
   7 -11  -4    0.78    0.40
   7 -11  -4    0.36    0.28
  -7 -11   4    0.18    0.46
   7 -11  -4    0.65    0.43
   7 -11  -3    6.04    0.58
   7 -11  -3    6.05    0.46
  -7 -11   3    6.16    0.63
   7  11  -3    4.56    0.60
   7 -11  -3    5.09    0.64
   7 -11  -3    6.06    0.58
   7 -11  -2    4.02    0.50
   7  11  -2    3.95    0.58
   7 -11  -2    4.48    0.42
  -7 -11   2    3.76    0.52
   7 -11  -2    4.24    0.59
   7  11  -2    4.42    0.56
   7 -11  -2    4.21    0.52
   7  11  -1   72.06    2.05
   7 -11  -1   71.12    1.67
  -7 -11   1   65.31    1.92
   7 -11  -1   70.97    2.03
   7 -11  -1   71.58    1.92
   7  11  -1   73.40    2.01
   7  11   0   43.73    1.34
   7  11   0   42.80    1.53
   7 -11   0   44.11    1.29
  -7 -11   0   36.99    1.40
   7 -11   0   39.14    1.47
   7 -11   0   39.44    1.40
   7  11   1   81.33    1.89
  -7  11  -1   82.41    2.00
   7 -11   1   81.07    1.93
   7  11   1   81.65    2.15
   7 -11   1   77.77    2.12
  -7 -11  -1   78.39    2.11
  -7 -11  -1   78.23    2.12
   7 -11   1   71.57    1.99
  -7  11  -1   82.25    2.18
  -7  11  -2    0.45    0.29
   7  11   2   -0.03    0.25
   7 -11   2    0.59    0.32
   7  11   2    0.42    0.35
  -7 -11  -2   -0.13    0.36
   7 -11   2    0.61    0.64
  -7 -11  -2    0.11    0.32
  -7  11  -2    0.60    0.38
   7 -11   2    0.30    0.31
   7  11   3    5.25    0.61
  -7  11  -3    5.12    0.55
   7 -11   3    4.60    0.49
   7 -11   3    5.42    0.61
  -7 -11  -3    5.44    0.63
  -7 -11  -3    5.87    0.57
  -7  11  -3    4.94    0.59
   7  11   4    0.75    0.37
  -7  11  -4    1.29    0.40
   7 -11   4    0.54    0.34
   7 -11   4    0.78    0.38
  -7 -11  -4   -0.60    0.48
  -7  11  -4    0.51    0.38
  -7 -11  -4    0.63    0.36
   7 -11   5    2.82    0.51
   7  11   5    1.94    0.44
   7 -11   5    2.79    0.53
  -7 -11  -5    1.90    0.47
   7  11   6    4.28    0.59
   7 -11   6    3.39    0.57
   7 -11   6    3.37    0.56
  -7 -11  -6    3.15    0.57
   7 -11   7   15.33    0.96
   7  11   7   15.72    1.02
   7 -11   7   14.26    1.01
   7 -11   7   14.78    0.99
  -7 -11  -7   15.63    1.04
   7  11   8    0.51    0.41
   7 -11   8    0.02    0.43
   7 -11   8    0.46    0.42
  -7 -11  -8    0.40    0.49
   7  11   9    2.12    0.56
   7 -11   9    2.21    0.60
   7 -11   9    2.40    0.54
  -7 -11  -9    3.91    0.68
   7  11  10   19.85    1.30
   7 -11  10   22.79    1.48
   7 -11  10   22.66    1.30
  -7 -11 -10   21.40    1.38
   7  11  11    8.66    0.95
   7 -11  11    9.36    0.91
   7  11  12    1.78    0.65
   7 -11  12    0.54    0.55
   7  11  13    7.86    1.03
   7  11  13    8.51    1.06
  -7 -12  12   13.04    1.21
  -7  12  12   13.43    1.23
  -7 -12  11    7.70    0.97
  -7  12  11    6.77    0.94
  -7 -12  10    0.75    0.53
  -7  12  10    1.52    0.65
  -7 -12   9    1.45    0.62
  -7  12   9    1.06    0.57
  -7 -12   8    6.87    0.83
  -7 -12   8    7.49    0.83
   7 -12  -8    8.32    0.89
  -7  12   8    7.36    0.87
   7 -12  -7   11.78    0.71
  -7 -12   7   12.83    1.00
   7 -12  -7   11.26    0.99
  -7  12   7   11.92    1.02
   7 -12  -6    5.02    0.57
   7 -12  -6    5.53    0.48
  -7 -12   6    4.38    0.64
   7 -12  -6    5.02    0.69
   7 -12  -5   27.39    1.19
   7 -12  -5   28.46    0.98
   7 -12  -5   26.18    1.35
  -7 -12   5   29.01    1.36
   7 -12  -4    6.06    0.60
   7 -12  -4    5.74    0.45
  -7 -12   4    5.53    0.70
   7 -12  -4    4.75    0.67
   7 -12  -3    0.91    0.37
  -7 -12   3    1.56    0.44
   7 -12  -3    0.75    0.43
   7 -12  -3    1.09    0.27
   7 -12  -2    9.59    0.72
   7  12  -2    9.60    0.77
   7 -12  -2   10.58    0.58
   7 -12  -2    9.79    0.80
  -7 -12   2    8.60    0.75
   7  12  -1    0.28    0.32
   7 -12  -1    0.55    0.21
  -7 -12   1    0.07    0.40
   7 -12  -1    0.74    0.40
   7  12  -1    1.06    0.42
   7 -12  -1    0.44    0.31
   7  12   0   66.63    1.93
   7  12   0   63.85    1.65
   7 -12   0   65.78    1.62
  -7 -12   0   60.30    1.89
   7 -12   0   62.88    1.95
   7 -12   0   59.82    1.86
   7  12   1    2.28    0.35
  -7  12  -1    1.67    0.35
   7 -12   1    1.91    0.38
   7  12   1    1.78    0.43
  -7 -12  -1    1.85    0.47
   7 -12   1    1.27    0.47
   7 -12   1    1.33    0.38
  -7  12  -1    2.39    0.48
  -7  12  -2    1.49    0.35
   7 -12   2    1.52    0.34
   7  12   2    1.76    0.42
  -7 -12  -2    1.51    0.43
   7 -12   2    1.05    0.38
  -7  12  -2    1.61    0.47
   7 -12   2    1.71    0.43
  -7  12  -3   10.16    0.74
   7  12   3   10.30    0.76
   7 -12   3   10.08    0.72
  -7 -12  -3    8.21    0.74
   7 -12   3   10.46    0.83
   7 -12   4    0.76    0.38
   7  12   4    0.94    0.38
  -7  12  -4    0.98    0.37
   7 -12   4    1.11    0.46
  -7 -12  -4    0.11    0.47
   7  12   5    3.59    0.54
   7 -12   5    3.80    0.57
   7 -12   5    4.54    0.62
  -7 -12  -5    2.58    0.58
   7  12   6   10.97    0.85
   7 -12   6   12.87    0.93
   7 -12   6   11.82    0.90
  -7 -12  -6   11.39    0.95
   7  12   7    0.90    0.43
   7 -12   7    0.09    0.44
   7 -12   7   -0.03    0.42
  -7 -12  -7    0.56    0.47
   7 -12   8    0.54    0.50
   7  12   8    0.49    0.41
   7 -12   8    0.02    0.45
  -7 -12  -8    0.72    0.47
   7  12   9   -0.25    0.46
   7 -12   9    0.95    0.57
   7 -12   9    0.44    0.56
  -7 -12  -9    1.49    0.56
   7  12  10   15.58    1.15
   7 -12  10   16.66    1.17
  -7 -12 -10   17.36    1.27
   7  12  11    2.10    0.60
   7 -12  11    2.99    0.69
  -7 -12 -11    4.03    0.81
   7  12  12    1.38    0.61
   7 -12  12    2.01    0.69
  -7 -12 -12    2.08    0.75
  -7 -13  11   12.18    1.15
  -7  13  11   10.90    1.15
  -7 -13  10    2.40    0.69
  -7  13  10    1.22    0.65
  -7 -13   9    0.69    0.59
   7 -13  -9    1.41    0.65
  -7  13   9    0.83    0.58
  -7 -13   8    4.15    0.69
   7 -13  -8    3.16    0.70
  -7  13   8    1.75    0.65
   7 -13  -7   26.42    0.98
  -7 -13   7   25.66    1.40
   7 -13  -7   23.53    1.40
   7 -13  -6   12.54    0.64
   7 -13  -6   13.10    0.84
  -7 -13   6   12.94    1.02
   7 -13  -6   12.70    1.01
   7 -13  -5   77.86    2.07
  -7 -13   5   72.61    2.28
   7 -13  -5   72.51    2.39
   7 -13  -5   75.79    1.64
   7 -13  -4  103.23    2.48
   7 -13  -4   98.92    2.89
  -7 -13   4  108.30    2.82
   7 -13  -4  108.60    2.03
   7 -13  -3   24.31    1.10
   7 -13  -3   23.21    1.29
  -7 -13   3   21.65    1.20
   7 -13  -3   23.83    0.81
   7  13  -2   10.79    0.84
  -7 -13   2    9.71    0.83
   7 -13  -2   11.11    0.88
   7 -13  -2   11.11    0.57
   7 -13  -1    1.25    0.43
  -7 -13   1    0.77    0.39
   7  13  -1    1.56    0.43
   7 -13  -1    1.15    0.25
   7  13   0    3.84    0.42
   7 -13   0    3.58    0.59
  -7 -13   0    3.22    0.54
   7 -13   0    3.96    0.44
   7  13   0    3.69    0.53
   7  13   1    0.06    0.23
  -7 -13  -1    0.73    0.43
   7 -13   1    0.53    0.41
   7 -13   1    0.55    0.29
   7  13   1    0.25    0.31
  -7  13  -2    5.29    0.53
   7 -13   2    4.57    0.60
  -7 -13  -2    5.26    0.66
   7  13   2    5.32    0.57
   7 -13   2    5.80    0.53
  -7 -13  -3    0.83    0.44
   7 -13   3    1.38    0.45
   7  13   3    1.45    0.39
   7 -13   3    1.40    0.38
  -7  13  -3    1.89    0.42
  -7  13  -4    7.92    0.71
   7  13   4    7.91    0.70
   7 -13   4    8.64    0.72
   7 -13   4    8.46    0.79
  -7 -13  -4    8.00    0.79
   7  13   5   22.72    1.15
   7 -13   5   24.58    1.21
   7 -13   5   22.82    1.23
  -7 -13  -5   19.26    1.23
   7  13   6   10.05    0.81
   7 -13   6    9.37    0.83
   7 -13   6   10.58    0.90
  -7 -13  -6    7.78    0.86
   7  13   7    1.92    0.47
   7 -13   7    1.55    0.52
   7 -13   7    2.04    0.54
  -7 -13  -7    2.05    0.59
   7 -13   8    3.54    0.75
   7 -13   8    4.69    0.74
   7  13   8    4.73    0.66
   7 -13   8    5.43    0.77
  -7 -13  -8    3.65    0.71
   7  13   9    1.14    0.51
   7 -13   9    0.47    0.48
  -7 -13  -9    0.30    0.50
   7  13  10    0.51    0.46
   7 -13  10    0.45    0.56
  -7 -13 -10    0.57    0.52
   7 -13  11    8.08    0.96
  -7 -13 -11    8.98    1.04
  -7 -13 -12   13.73    1.29
   7 -14 -11    5.52    0.98
  -7  14  11    4.02    0.82
  -7 -14  10   -0.22    0.57
   7 -14 -10    0.26    0.64
  -7  14  10    0.13    0.58
  -7 -14   9    1.79    0.65
   7 -14  -9    0.74    0.62
  -7  14   9    0.81    0.58
   7 -14  -8    4.24    0.58
  -7 -14   8    5.23    0.80
   7 -14  -8    4.44    0.81
   7 -14  -7   27.30    1.22
   7 -14  -7   27.38    1.56
  -7 -14   7   24.80    1.46
   7 -14  -6   16.92    0.95
   7 -14  -6   16.00    1.20
  -7 -14   6   16.47    1.14
   7 -14  -5    4.27    0.53
  -7 -14   5    5.51    0.77
   7 -14  -5    4.11    0.72
   7 -14  -4   55.10    1.70
  -7 -14   4   55.46    2.02
   7 -14  -4   47.30    2.03
   7 -14  -4   55.08    1.22
   7  14  -3    1.08    0.42
  -7 -14   3    0.33    0.45
   7 -14  -3    0.47    0.47
   7 -14  -3    1.05    0.23
   7  14  -2   53.33    1.81
  -7 -14   2   49.96    1.87
   7 -14  -2   53.82    1.97
   7 -14  -2   55.43    1.28
   7  14  -1   23.66    1.14
  -7 -14   1   17.35    1.09
   7 -14  -1   23.21    1.28
   7 -14  -1   23.27    0.81
   7  14   0    5.10    0.44
   7 -14   0    3.86    0.61
  -7 -14   0    4.85    0.64
   7  14   0    4.65    0.54
   7 -14   0    5.08    0.43
   7  14   1   98.53    2.01
   7 -14   1   92.38    2.64
  -7 -14  -1   94.94    2.64
   7 -14   1  103.61    2.19
   7  14   1  100.48    2.45
  -7  14  -2   10.88    0.70
   7 -14   2   10.55    0.68
   7  14   2    9.90    0.73
   7 -14   2    9.80    0.85
  -7 -14  -2   10.52    0.87
   7 -14   3    0.49    0.34
   7  14   3   -0.10    0.32
  -7  14  -3    0.37    0.32
   7 -14   3    0.47    0.45
  -7 -14  -3    0.87    0.47
   7  14   4   10.28    0.77
   7 -14   4   10.24    0.77
   7 -14   4    9.19    0.85
  -7 -14  -4    8.89    0.87
   7 -14   5   13.28    0.91
   7  14   5   12.78    0.86
  -7 -14  -5   11.45    1.00
   7 -14   5   12.29    0.99
   7  14   6    6.60    0.68
   7 -14   6    5.19    0.67
  -7 -14  -6    5.07    0.79
   7 -14   6    5.67    0.76
   7  14   7   18.01    1.07
   7 -14   7   16.61    1.14
  -7 -14  -7   16.03    1.22
   7 -14   7   17.43    1.19
   7  14   8    7.61    0.78
   7 -14   8    9.77    0.97
  -7 -14  -8    7.07    0.91
   7 -14   9    0.14    0.50
  -7 -14  -9    0.50    0.57
   7 -14  10    0.33    0.53
  -7 -14 -10    0.90    0.61
   7 -14  11    4.47    0.84
  -7 -14 -11    4.65    0.88
  -7 -15  10    5.79    0.92
   7 -15 -10    7.37    1.02
  -7 -15   9    0.30    0.59
  -7 -15   9    0.92    0.58
   7 -15  -9    0.13    0.56
  -7 -15   8    5.99    0.86
   7 -15  -8    5.43    0.83
  -7 -15   7   13.99    1.14
   7 -15  -7   11.65    1.13
   7 -15  -6    6.30    0.61
  -7 -15   6    5.19    0.83
   7 -15  -6    4.61    0.81
   7 -15  -5   25.25    1.12
   7 -15  -5   21.56    1.44
  -7 -15   5   26.15    1.47
  -7 -15   4    3.82    0.69
   7 -15  -4    4.02    0.75
   7  15  -3   -0.06    0.36
  -7 -15   3    0.01    0.49
   7 -15  -3   -0.32    0.52
   7  15  -2   -0.04    0.33
  -7 -15   2    0.27    0.47
   7 -15  -2    0.12    0.49
   7  15  -1   21.23    1.09
  -7 -15   1   18.40    1.19
   7 -15  -1   19.54    1.21
   7 -15  -1   22.16    0.74
   7  15   0   28.52    0.97
   7  15   0   28.39    1.23
  -7 -15   0   26.81    1.38
   7 -15   0   28.37    1.45
   7 -15   0   29.88    0.95
   7  15   1   48.62    1.23
   7 -15   1   52.11    1.40
   7  15   1   49.90    1.65
   7 -15   1   46.38    1.85
  -7 -15  -1   50.52    1.90
   7  15   2    0.37    0.30
   7 -15   2   -0.06    0.29
  -7 -15  -2   -0.24    0.43
   7 -15   2    0.24    0.46
   7  15   3    1.04    0.35
   7 -15   3    1.63    0.40
   7 -15   3    1.49    0.50
  -7 -15  -3    1.03    0.49
   7  15   4   -0.05    0.31
   7 -15   4    0.45    0.37
   7 -15   4    0.91    0.52
  -7 -15  -4    0.63    0.47
   7  15   5   53.05    1.74
   7 -15   5   54.32    1.82
  -7 -15  -5   48.49    2.04
   7 -15   5   49.39    1.97
   7  15   6    2.24    0.47
   7 -15   6    2.90    0.66
  -7 -15  -6    1.48    0.61
  -7 -15  -7    1.29    0.61
   7 -15   7    2.19    0.64
   7 -15   8    0.34    0.52
  -7 -15  -8   -1.14    0.66
   7 -15   9    0.11    0.54
  -7 -15  -9    0.56    0.57
   7 -15  10    3.39    0.72
  -7 -15 -10    2.93    0.78
  -7 -16   9    0.81    0.59
   7 -16  -9    0.38    0.61
  -7 -16   8    9.11    1.00
   7 -16  -8    7.76    1.01
   7 -16  -7   33.31    1.87
  -7 -16   7   34.14    1.76
  -7 -16   6   18.93    1.30
   7 -16  -6   17.38    1.47
   7 -16  -5    0.02    0.65
  -7 -16   5   -0.16    0.49
  -7 -16   4    4.93    0.75
   7 -16  -4    5.29    0.83
   7  16  -3    0.02    0.35
   7 -16  -3   -0.41    0.56
  -7 -16   3   -0.59    0.55
   7  16  -2   13.73    0.92
  -7 -16   2   11.38    0.97
   7 -16  -2   14.19    1.14
   7  16  -1   13.07    0.86
  -7 -16   1   12.90    1.02
   7 -16  -1   12.32    1.05
   7  16   0   63.95    1.88
  -7 -16   0   56.92    2.11
   7 -16   0   63.06    2.24
   7  16   1   16.74    0.93
   7 -16   1   13.88    1.07
  -7 -16  -1   15.17    1.09
   7  16   2    6.19    0.59
  -7 -16  -2    6.23    0.80
   7 -16   2    4.79    0.72
   7  16   3    3.46    0.50
   7 -16   3    3.75    0.49
   7 -16   3    2.71    0.60
  -7 -16  -3    2.28    0.60
   7  16   4    1.75    0.41
  -7 -16  -4    2.13    0.56
   7 -16   4    3.13    0.68
  -7 -16  -5    0.87    0.55
   7 -16   5    0.61    0.49
  -7 -16  -6    2.15    0.69
   7 -16   6    2.71    0.70
   7 -16   7   16.95    1.26
  -7 -16  -7   15.60    1.33
  -7 -16  -8    3.34    0.81
   7 -16   8    3.44    0.73
   7 -16   9   -0.70    0.57
  -7 -16  -9    1.60    0.76
   7 -16  10    2.25    0.70
  -7 -17   8    6.58    0.94
   7 -17  -8    5.76    1.02
  -7 -17   7   11.07    1.09
   7 -17  -7    9.76    1.14
   7 -17  -6   13.94    1.31
  -7 -17   6   15.68    1.25
   7 -17  -5    1.13    0.82
  -7 -17   5    0.83    0.52
   7  17  -4    0.90    0.44
  -7 -17   4    0.00    0.49
   7 -17  -4    0.56    0.55
   7  17  -3   -0.22    0.37
  -7 -17   3    0.28    0.52
   7 -17  -3   -0.03    0.53
   7  17  -2   11.37    0.84
  -7 -17   2   10.33    1.01
   7 -17  -2   10.80    1.04
   7  17  -1   15.91    0.92
  -7 -17   1   14.58    1.13
   7 -17  -1   14.90    1.16
  -7 -17   0   13.10    1.07
   7 -17   0   16.32    1.23
   7  17   0   15.70    0.91
   7 -17   1    5.74    0.82
  -7 -17  -1    7.48    0.88
   7  17   1    7.87    0.64
  -7 -17  -2    0.76    0.56
   7 -17   2    0.94    0.55
   7 -17   3    4.70    0.78
  -7 -17  -3    4.94    0.78
   7 -17   4    1.66    0.61
  -7 -17  -4    2.57    0.65
  -7 -17  -5    9.54    1.00
   7 -17   5    8.92    0.95
   7 -17   6   15.07    1.23
  -7 -17  -6   14.38    1.24
  -7 -17  -7    5.58    0.93
   7 -17   7    5.19    0.84
  -7 -17  -8   -1.37    0.76
   7 -17   8   -0.03    0.56
   7 -17   9    0.47    0.61
   7 -18  -7    7.90    1.11
  -7 -18   7    8.43    1.04
  -7 -18   6   27.19    1.64
   7 -18  -6   20.98    1.64
   7 -18  -5    2.78    0.76
  -7 -18   5    2.61    0.71
   7  18  -4    3.40    0.59
  -7 -18   4    2.53    0.66
   7 -18  -4    2.63    0.73
  -7 -18   3    1.34    0.60
   7 -18  -3    1.98    0.67
  -7 -18   2    8.45    0.97
   7 -18  -2    9.16    1.00
   7 -18  -1    7.40    0.92
  -7 -18   1    8.70    0.98
  -7 -18   0   24.14    1.46
   7 -18   0   25.91    1.53
   7 -18   1   23.13    1.47
  -7 -18  -1   23.04    1.42
  -7 -18  -2   -0.10    0.51
   7 -18   2   -0.47    0.54
   7 -18   3    0.92    0.56
  -7 -18  -3   -0.21    0.55
   7 -18   4   -0.23    0.59
  -7 -18  -4    1.10    0.61
  -7 -18  -5    5.88    0.86
   7 -18   5    6.07    0.90
  -7 -18  -6    6.95    0.96
   7 -18   6    8.08    1.02
   7 -18   7    7.59    1.01
  -7 -18  -7    9.21    1.15
   7 -19  -6    7.01    1.10
  -7 -19   6    5.53    0.88
   7 -19  -5    6.36    0.95
  -7 -19   5    6.12    0.89
   7 -19  -4    9.54    1.10
  -7 -19   4    7.03    0.97
  -7 -19   3    9.45    1.04
   7 -19  -3   10.18    1.07
   7 -19  -2   13.09    1.20
  -7 -19   2   11.55    1.11
   7 -19  -1   12.01    1.14
  -7 -19   1   10.06    1.05
  -7 -19   0    5.67    0.86
   7 -19   0    5.81    0.85
   7 -19   1    8.96    1.01
  -7 -19  -1   10.09    1.03
  -7 -19  -2   12.49    1.14
   7 -19   2   11.92    1.16
   7 -19   3    0.47    0.56
  -7 -19  -3    1.19    0.66
   7 -19   4    3.98    0.80
  -7 -19  -4    2.91    0.70
  -7 -19  -5   10.10    1.11
   7 -19   5    9.37    1.07
  -7 -19  -6    7.04    0.98
   7 -19   6    5.62    0.91
  -7 -20   4    4.69    0.89
  -7 -20   3    5.59    0.92
   7 -20  -3    5.36    0.91
   7 -20  -2    9.70    1.07
  -7 -20   2    9.75    1.11
  -7 -20   1    3.72    0.78
   7 -20  -1    2.79    0.69
  -7 -20   0    1.98    0.71
   7 -20   0    1.80    0.66
   7 -20   1    9.55    1.07
  -7 -20  -1   10.67    1.13
   7 -20   2    9.38    1.09
  -7 -20  -2    8.13    0.97
  -7 -20  -3    0.53    0.56
   7 -20   3   -0.57    0.55
  -7 -20  -4    1.66    0.72
  -8   0  14    1.14    0.58
  -8   0  13   -0.47    0.56
  -8   0  12   -0.46    0.59
  -8   0  11   -0.77    0.55
  -8   0  10    6.94    0.72
  -8   0   9    0.44    0.44
   8   0  -8   18.01    0.97
  -8   0   8   18.59    0.99
   8   0  -7   -0.12    0.32
  -8   0   7   -0.18    0.38
   8   0  -6   35.13    1.14
  -8   0   6   37.17    1.23
   8   0  -5    0.06    0.23
  -8   0   5    0.17    0.27
   8   0  -4  192.61    3.05
  -8   0   4  197.96    3.17
   8   0  -3   -0.41    0.40
   8   0  -3    0.02    0.16
  -8   0   3   -0.60    0.23
   8   0  -2   28.95    1.24
   8   0  -2   29.45    0.61
  -8   0   2   30.97    0.72
   8   0  -1    0.58    0.43
  -8   0   1   -0.10    0.11
   8   0   0  110.07    2.60
   8   0   0  116.04    2.64
   8   0   1    1.13    0.41
  -8   0  -1    1.03    0.41
   8   0   1    1.54    0.49
   8   0   2    0.48    0.40
  -8   0  -2    0.99    0.40
   8   0   2    0.33    0.40
   8   0   3    0.11    0.36
  -8   0  -3   -0.04    0.31
  -8   0  -3   -0.26    0.12
  -8   0  -4    6.89    0.67
   8   0   4    6.41    0.65
  -8   0  -4    6.12    0.32
   8   0   4    6.57    0.25
   8   0   5    0.18    0.40
  -8   0  -5    0.55    0.20
   8   0   5   -0.13    0.16
   8   0   6  187.64    3.98
  -8   0  -6  184.25    3.09
   8   0   6  185.33    2.91
   8   0   7    0.46    0.49
  -8   0  -7   -0.22    0.30
   8   0   7   -0.95    0.34
   8   0   8    3.73    0.63
  -8   0  -8    2.89    0.40
   8   0   8    3.52    0.42
   8   0   9    0.51    0.47
  -8   0  -9   -0.99    0.39
   8   0   9   -0.92    0.40
   8   0  10    2.05    0.62
   8   0  10    2.56    0.46
   8   0  11   -0.41    0.54
   8   0  11   -1.05    0.46
   8   0  12   33.04    1.85
   8   0  12   34.62    1.48
  -8   1  14    0.65    0.62
  -8  -1  14   -0.79    0.58
  -8   1  13    1.88    0.66
  -8  -1  13    0.19    0.56
  -8  -1  12   12.44    1.06
  -8   1  12   14.14    1.09
  -8   1  11   33.98    1.59
  -8  -1  11   33.35    1.56
  -8   1  10   -0.55    0.47
  -8  -1  10    0.73    0.50
  -8  -1   9   11.48    0.88
  -8   1   9   10.61    0.84
   8  -1  -8   23.59    1.10
   8   1  -8   23.73    1.07
  -8  -1   8   22.96    1.10
  -8   1   8   24.98    1.16
   8  -1  -7   10.15    0.70
   8   1  -7    9.85    0.65
  -8   1   7   10.02    0.71
  -8  -1   7    9.80    0.69
   8  -1  -6   21.64    0.92
   8   1  -6   19.73    0.85
  -8   1   6   19.57    0.89
  -8  -1   6   21.11    0.92
   8  -1  -5   72.51    1.70
   8   1  -5   72.88    1.63
  -8   1   5   73.10    1.70
  -8  -1   5   73.39    1.70
  -8  -1   4    5.21    0.39
   8  -1  -4    5.40    0.42
   8   1  -4    5.72    0.39
  -8   1   4    5.83    0.42
   8  -1  -3   45.59    1.57
   8   1  -3   45.38    1.00
  -8  -1   3   48.18    1.10
  -8   1   3   46.45    1.07
   8   1  -2    9.03    0.72
   8  -1  -2    8.99    0.73
   8   1  -2    8.74    0.32
   8  -1  -2    9.11    0.33
  -8   1   2    8.72    0.37
  -8  -1   2    9.26    0.39
   8   1  -1  236.78    4.45
   8  -1  -1  236.84    4.39
  -8  -1   1  255.73    3.31
   8   1   0    6.25    0.63
   8  -1   0    5.33    0.59
   8  -1   0    6.18    0.62
   8   1   0    5.94    0.62
   8   1   1  160.54    3.34
   8  -1   1  161.33    3.35
  -8   1  -1  168.97    3.42
   8  -1   1  166.08    3.34
   8   1   1  163.21    3.35
  -8  -1  -2    3.87    0.54
   8   1   2    4.00    0.53
   8  -1   2    4.14    0.58
  -8   1  -2    3.81    0.51
   8   1   2    4.61    0.58
   8  -1   2    4.75    0.57
  -8  -1  -3   39.99    1.50
  -8   1  -3   40.90    1.51
   8   1   3   39.94    1.50
   8  -1   3   41.53    1.52
  -8   1  -3   40.99    0.77
  -8  -1  -3   38.90    0.72
  -8  -1  -4   35.46    1.41
   8  -1   4   34.67    1.43
   8   1   4   34.47    1.43
  -8   1  -4   34.56    0.82
  -8  -1  -4   34.49    0.81
   8  -1   4   34.43    0.64
   8   1   5   29.83    1.36
   8  -1   5   30.12    1.37
  -8  -1  -5   27.79    0.82
  -8   1  -5   27.96    0.83
   8  -1   5   29.40    0.72
   8   1   5   28.87    0.75
   8   1   6    4.86    0.70
   8  -1   6    5.15    0.71
  -8   1  -6    3.85    0.38
  -8  -1  -6    2.35    0.32
   8   1   6    4.21    0.36
   8   1   7   38.90    1.68
   8  -1   7   41.64    1.73
  -8  -1  -7   40.39    1.23
  -8   1  -7   40.17    1.22
   8   1   7   40.70    1.14
   8  -1   7   41.09    1.13
   8   1   8   -0.31    0.48
   8  -1   8    0.26    0.44
  -8  -1  -8   -0.70    0.35
  -8   1  -8   -0.04    0.28
   8  -1   8   -0.13    0.29
   8   1   8    0.27    0.28
   8   1   9   19.35    1.31
   8  -1   9   22.32    1.39
  -8  -1  -9   20.86    1.00
  -8   1  -9   20.73    1.00
   8   1   9   22.13    0.97
   8  -1   9   20.91    0.94
   8   1  10   -0.66    0.60
   8  -1  10    0.23    0.53
   8  -1  10    0.08    0.34
   8   1  10    0.22    0.35
   8   1  11    3.16    0.70
   8  -1  11    2.07    0.65
   8  -1  11    2.42    0.47
   8   1  11    2.75    0.51
   8   1  12    1.08    0.61
   8  -1  12    1.89    0.70
   8  -1  12   -0.74    0.49
   8   1  12   -0.94    0.51
  -8   2  14    1.43    0.63
  -8  -2  14    2.36    0.69
  -8  -2  13    4.05    0.76
  -8   2  13    4.50    0.77
  -8  -2  12   55.74    2.12
  -8   2  12   54.08    2.08
  -8  -2  11   -0.93    0.54
  -8   2  11   -0.57    0.49
  -8  -2  10    8.35    0.80
  -8   2  10    7.78    0.79
  -8   2   9   30.42    1.37
  -8  -2   9   30.00    1.33
   8  -2  -8   41.59    1.50
   8   2  -8   41.17    1.43
  -8   2   8   42.02    1.51
  -8  -2   8   42.82    1.50
   8  -2  -7    1.52    0.35
  -8  -2   7    1.76    0.40
   8   2  -7    1.63    0.36
  -8   2   7    1.69    0.39
   8  -2  -6  133.86    2.68
   8   2  -6  132.95    2.61
  -8   2   6  133.89    2.68
  -8  -2   6  131.72    2.68
   8  -2  -5   20.54    0.83
   8   2  -5   20.40    0.80
  -8   2   5   19.66    0.82
  -8  -2   5   19.83    0.84
   8  -2  -4   92.48    1.84
   8   2  -4   87.99    1.75
  -8  -2   4   90.86    1.86
  -8   2   4   90.74    1.85
  -8  -2   3   72.51    1.47
   8  -2  -3   70.30    1.97
   8  -2  -3   70.33    1.43
   8   2  -3   66.40    1.33
  -8   2   3   68.78    1.42
  -8  -2   2   86.73    1.52
   8   2  -2   82.54    2.22
   8  -2  -2   84.92    1.46
   8  -2  -2   85.34    2.17
   8   2  -2   80.17    1.38
   8  -2  -2   81.78    1.40
  -8   2   2   82.86    1.46
   8   2  -1    0.49    0.42
  -8  -2   1    0.36    0.15
   8  -2  -1    0.59    0.39
   8  -2  -1    0.52    0.35
   8  -2  -1    0.44    0.10
   8  -2   0  123.43    2.69
   8   2   0  123.03    2.78
   8   2   0  121.13    2.70
   8  -2   0  128.02    2.78
  -8  -2   0  121.96    1.64
  -8  -2   0  112.38    1.61
   8  -2   1   19.34    1.02
  -8   2  -1   20.89    1.06
   8   2   1   20.03    1.02
   8  -2   1   19.81    1.01
   8   2   1   19.14    1.03
   8   2   2   82.19    2.21
   8  -2   2   85.86    2.29
  -8  -2  -2   86.04    2.28
  -8   2  -2   86.81    2.28
   8   2   2   84.65    2.26
   8  -2   2   87.15    2.24
  -8  -2  -3    3.09    0.49
   8   2   3    2.96    0.54
  -8  -2  -3    2.66    0.17
   8   2   3    2.58    0.50
   8  -2   3    3.10    0.56
  -8   2  -3    4.00    0.55
  -8  -2  -3    3.16    0.22
  -8   2  -3    2.67    0.22
  -8  -2  -4    5.25    0.28
   8   2   4    5.43    0.65
   8  -2   4    5.86    0.66
  -8   2  -4    5.37    0.34
   8  -2   4    4.79    0.24
  -8  -2  -5    0.05    0.16
   8   2   5    0.02    0.40
   8  -2   5   -0.18    0.40
  -8   2  -5   -0.28    0.20
   8  -2   5   -0.24    0.19
   8   2   5    0.16    0.19
  -8  -2  -6   58.36    1.32
   8   2   6   61.87    2.06
   8  -2   6   59.11    2.00
  -8   2  -6   57.96    1.42
   8   2   6   60.05    1.35
   8  -2   6   55.98    1.26
  -8  -2  -7   10.79    0.59
   8  -2   7    9.16    0.87
   8   2   7   10.65    0.93
  -8   2  -7    9.56    0.60
   8  -2   7    8.45    0.53
   8   2   7    9.86    0.58
  -8  -2  -8   12.17    0.68
   8   2   8   11.57    0.99
   8  -2   8   13.16    1.02
  -8   2  -8   12.79    0.75
   8  -2   8   12.62    0.69
   8   2   8   14.06    0.73
  -8  -2  -9    0.89    0.33
   8   2   9    0.49    0.51
   8  -2   9    1.20    0.57
  -8   2  -9    0.79    0.33
  -8  -2  -9   -0.08    0.36
   8  -2   9    0.19    0.35
   8   2   9    0.33    0.33
   8   2  10    0.26    0.53
   8  -2  10    0.40    0.52
   8   2  10    0.19    0.34
   8  -2  10    0.58    0.38
   8   2  11    3.16    0.75
   8  -2  11    4.34    0.76
   8   2  11    2.59    0.54
   8  -2  11    2.52    0.50
   8  -2  12   13.57    1.24
   8   2  12   11.48    1.27
   8   2  12   10.29    0.88
   8  -2  12   10.86    0.85
  -8   3  14    0.38    0.56
  -8  -3  14   -0.92    0.64
  -8  -3  13   26.82    1.55
  -8   3  13   28.00    1.57
  -8  -3  12   -0.34    0.54
  -8   3  12   -0.53    0.56
  -8  -3  11   36.87    1.64
  -8   3  11   37.91    1.68
  -8  -3  10   15.01    1.03
  -8   3  10   13.45    1.01
  -8  -3   9    9.72    0.81
  -8   3   9    9.56    0.81
   8  -3  -8    1.44    0.40
  -8  -3   8    1.44    0.42
   8   3  -8    2.17    0.43
  -8   3   8    2.06    0.49
  -8  -3   7   14.59    0.86
   8  -3  -7   14.48    0.84
   8   3  -7   13.90    0.80
  -8   3   7   14.34    0.84
  -8  -3   6    1.94    0.38
   8  -3  -6    1.72    0.36
   8   3  -6    1.30    0.29
  -8   3   6    1.60    0.36
   8  -3  -5  148.14    2.77
  -8  -3   5  147.72    2.80
   8   3  -5  148.10    2.71
  -8   3   5  149.60    2.79
   8  -3  -4    4.70    0.41
  -8  -3   4    4.09    0.42
   8   3  -4    4.49    0.38
  -8   3   4    4.45    0.42
   8  -3  -3   12.28    0.80
  -8  -3   3   12.27    0.58
   8  -3  -3   11.10    0.51
   8   3  -3   11.80    0.51
  -8   3   3   12.12    0.55
   8  -3  -2   12.08    0.79
   8  -3  -2   11.98    0.47
   8   3  -2   11.04    0.82
  -8  -3   2   12.40    0.52
   8   3  -2   10.76    0.45
   8  -3  -2   12.02    0.48
  -8   3   2   12.08    0.49
   8   3  -1   99.03    2.49
   8  -3  -1  102.97    2.40
   8  -3  -1  102.96    1.58
   8  -3  -1  100.19    2.44
  -8  -3   1  101.88    1.69
   8  -3  -1   98.91    1.58
   8   3  -1   97.20    1.54
   8   3   0    9.94    0.76
   8  -3   0   12.14    0.83
   8  -3   0    9.57    0.27
   8   3   0   11.22    0.82
   8  -3   0   10.68    0.74
   8  -3   0    9.62    0.28
  -8  -3   0   10.92    0.39
   8   3   1  159.33    3.22
   8  -3   1  166.60    3.32
  -8   3  -1  165.29    3.29
   8   3   1  164.74    3.34
   8  -3   1  160.89    3.19
  -8  -3  -1  146.71    2.03
  -8  -3  -1  151.86    2.13
   8   3   2    0.06    0.34
  -8   3  -2   -0.03    0.30
   8  -3   2   -0.01    0.37
  -8  -3  -2    0.35    0.32
   8  -3   2   -0.04    0.35
   8   3   2   -0.01    0.36
  -8  -3  -2    0.18    0.13
  -8  -3  -2    0.15    0.12
  -8   3  -2    0.52    0.15
  -8   3  -3   39.30    1.48
   8   3   3   37.43    1.42
  -8  -3  -3   41.55    1.51
   8   3   3   39.92    1.53
   8  -3   3   39.74    1.45
  -8   3  -3   41.77    0.94
  -8  -3  -3   41.29    0.88
  -8  -3  -3   37.54    0.78
  -8  -3  -4    7.85    0.37
   8  -3   4    8.27    0.74
   8   3   4    8.09    0.75
  -8   3  -4    7.50    0.42
   8  -3   4    8.08    0.34
  -8  -3  -5    9.44    0.75
  -8  -3  -5    8.07    0.43
   8   3   5   10.35    0.84
   8  -3   5    8.22    0.76
  -8   3  -5    8.32    0.49
   8  -3   5    8.40    0.41
  -8  -3  -6    3.22    0.34
   8   3   6    4.55    0.66
   8  -3   6    4.47    0.65
  -8   3  -6    3.63    0.38
   8   3   6    3.45    0.37
   8  -3   6    3.92    0.37
  -8  -3  -7   31.25    1.03
   8   3   7   31.15    1.51
   8  -3   7   31.55    1.49
  -8   3  -7   30.57    1.09
   8  -3   7   30.73    0.99
   8   3   7   33.17    1.07
  -8  -3  -8    8.99    0.61
   8   3   8   10.88    0.98
   8  -3   8   11.64    1.00
  -8   3  -8   10.01    0.68
   8  -3   8   10.34    0.65
   8   3   8   10.50    0.66
  -8  -3  -9    4.36    0.49
   8   3   9    3.64    0.66
   8  -3   9    3.65    0.68
  -8   3  -9    3.91    0.51
   8   3   9    4.54    0.52
   8  -3   9    4.05    0.49
   8  -3  10    0.16    0.50
   8   3  10   -0.41    0.52
   8   3  10    0.93    0.41
   8  -3  10    0.36    0.35
   8   3  11   26.37    1.62
   8  -3  11   26.65    1.63
   8   3  11   30.13    1.34
   8  -3  11   28.72    1.28
   8   3  12    2.51    0.69
   8  -3  12    3.58    0.84
   8  -3  12    3.24    0.56
   8   3  12    3.81    0.61
  -8  -4  14    1.18    0.75
  -8   4  14    0.02    0.62
  -8  -4  13    1.46    0.62
  -8   4  13    0.41    0.55
  -8   4  12   40.06    1.80
  -8  -4  12   40.38    1.80
  -8  -4  11    8.59    0.91
  -8   4  11    7.88    0.82
  -8  -4  10   35.98    1.56
  -8   4  10   35.21    1.58
  -8  -4   9   11.36    0.88
  -8   4   9   11.76    0.89
  -8  -4   8    6.54    0.65
   8   4  -8    6.77    0.62
  -8   4   8    6.91    0.68
  -8  -4   7   32.74    1.29
   8  -4  -7   34.29    1.27
   8   4  -7   34.42    1.27
  -8   4   7   32.96    1.30
   8  -4  -6   81.59    1.97
  -8  -4   6   80.69    2.01
   8   4  -6   79.73    1.94
  -8   4   6   79.98    1.99
   8  -4  -5    5.40    0.48
  -8  -4   5    5.19    0.49
   8   4  -5    4.67    0.44
  -8   4   5    5.23    0.48
   8  -4  -4  133.06    2.90
  -8  -4   4  133.19    2.53
   8   4  -4  129.58    2.40
  -8   4   4  131.65    2.48
   8  -4  -4  139.26    2.50
  -8  -4   3   16.45    0.69
   8  -4  -3   16.31    0.91
   8   4  -3   16.98    0.66
   8  -4  -3   16.04    0.64
  -8   4   3   16.24    0.66
   8  -4  -2   11.69    0.76
   8   4  -2   11.41    0.83
  -8  -4   2   12.64    0.56
   8   4  -2   11.94    0.53
   8  -4  -2   12.60    0.55
   8  -4  -2   12.26    0.50
  -8   4   2   12.19    0.54
   8   4  -1    0.77    0.40
   8  -4  -1    0.94    0.19
   8  -4  -1    0.74    0.39
   8  -4  -1    0.78    0.34
  -8  -4   1    0.79    0.17
   8  -4  -1    0.95    0.22
   8   4  -1    1.28    0.21
   8   4   0  113.62    2.62
   8  -4   0  112.97    2.65
   8   4   0  112.99    2.71
   8  -4   0  117.32    2.58
   8  -4   0  114.51    1.80
  -8  -4   0  106.44    1.74
   8  -4   0  121.57    1.75
   8   4   1    1.86    0.46
   8  -4   1    1.61    0.44
  -8   4  -1    1.94    0.44
   8   4   1    1.74    0.52
   8  -4   1    1.98    0.44
  -8  -4  -1    1.52    0.18
   8  -4   1    1.93    0.22
   8  -4   1    1.44    0.15
  -8  -4  -1    1.71    0.20
  -8   4  -2   56.76    1.77
  -8  -4  -2   58.45    1.83
   8   4   2   52.06    1.67
   8  -4   2   53.34    0.91
   8  -4   2   56.96    1.80
   8   4   2   54.20    1.77
   8  -4   2   54.79    1.70
  -8   4  -2   51.14    1.09
  -8  -4  -2   55.18    1.10
  -8  -4  -2   53.36    1.05
   8  -4   2   53.18    0.92
   8  -4   3    9.83    0.37
  -8   4  -3   12.02    0.83
   8   4   3    9.24    0.72
  -8  -4  -3   12.14    0.84
   8   4   3    9.35    0.78
   8  -4   3   11.59    0.80
  -8  -4  -3   11.98    0.51
  -8   4  -3   10.97    0.53
  -8  -4  -3   10.67    0.44
   8  -4   4    0.09    0.17
  -8  -4  -4    0.19    0.18
   8   4   4    0.12    0.39
   8  -4   4    0.23    0.35
  -8   4  -4    0.44    0.21
  -8  -4  -4    0.26    0.20
  -8  -4  -5    1.65    0.27
   8  -4   5    1.47    0.24
   8   4   5    1.14    0.44
   8  -4   5    1.44    0.49
  -8   4  -5    1.36    0.27
  -8  -4  -6   51.83    1.33
   8   4   6   52.07    1.91
   8  -4   6   53.65    1.88
  -8   4  -6   53.45    1.42
   8  -4   6   53.12    1.29
   8   4   6   55.05    1.40
  -8  -4  -7    8.59    0.57
   8  -4   7    9.12    0.86
   8   4   7    9.34    0.90
  -8   4  -7    8.42    0.60
   8  -4   7    9.62    0.58
   8   4   7    9.19    0.60
   8  -4   8    0.81    0.33
  -8  -4  -8    1.07    0.35
   8   4   8    0.83    0.48
   8  -4   8    0.27    0.43
  -8   4  -8    0.86    0.32
   8   4   8    1.32    0.35
   8  -4   9   -0.42    0.49
   8   4   9   -0.33    0.52
  -8  -4  -9    0.11    0.33
   8   4   9   -0.29    0.35
   8  -4   9    0.62    0.36
   8  -4  10   -0.28    0.51
   8   4  10    0.03    0.53
   8   4  10    0.33    0.38
   8  -4  10    0.78    0.40
   8  -4  11    3.75    0.75
   8   4  11    3.58    0.78
   8  -4  11    4.10    0.58
   8   4  11    3.34    0.56
   8   4  12    9.02    1.06
   8  -4  12    9.43    1.04
   8  -4  12   11.28    0.89
   8   4  12    9.87    0.86
  -8  -5  14   -0.46    0.69
  -8   5  14   -0.06    0.55
  -8  -5  13    4.24    0.78
  -8   5  13    2.85    0.74
  -8  -5  12    1.49    0.57
  -8   5  12    1.37    0.54
  -8  -5  11   47.00    1.90
  -8   5  11   44.05    1.85
  -8  -5  10    3.58    0.64
  -8   5  10    2.45    0.59
  -8  -5   9    1.83    0.52
  -8   5   9    1.25    0.45
  -8  -5   8   -0.17    0.41
  -8   5   8   -0.29    0.46
  -8  -5   7   11.48    0.81
   8  -5  -7   11.83    0.77
   8   5  -7   11.46    0.76
  -8   5   7   11.28    0.78
  -8  -5   6    0.92    0.39
   8  -5  -6    0.40    0.32
   8   5  -6    0.77    0.30
  -8   5   6    1.09    0.37
  -8  -5   5   87.83    2.05
   8   5  -5   85.02    1.96
  -8   5   5   86.72    2.03
   8  -5  -5   88.85    2.00
  -8  -5   4    2.01    0.35
   8  -5  -4    2.36    0.45
   8  -5  -4    2.44    0.34
   8   5  -4    2.12    0.35
  -8   5   4    2.19    0.37
  -8  -5   3  122.93    2.33
   8  -5  -3  120.72    2.67
   8   5  -3  119.94    2.26
   8  -5  -3  124.85    2.26
   8  -5  -3  120.23    2.27
  -8   5   3  122.71    2.31
   8   5  -2    5.00    0.61
   8  -5  -2    6.03    0.63
   8  -5  -2    5.47    0.55
  -8  -5   2    5.49    0.37
   8   5  -2    5.42    0.42
   8  -5  -2    5.56    0.43
   8  -5  -2    7.04    0.42
   8   5  -1   75.13    2.16
   8  -5  -1   76.21    1.97
   8  -5  -1   78.09    2.12
  -8  -5   1   79.69    1.49
   8   5  -1   75.15    1.51
   8  -5  -1   74.54    1.54
   8  -5  -1   82.00    1.48
   8  -5   0   -0.05    0.35
   8   5   0    0.41    0.35
   8   5   0    0.08    0.38
   8  -5   0   -0.27    0.33
  -8  -5   0   -0.18    0.16
   8  -5   0   -0.30    0.22
   8  -5   0    0.15    0.16
   8   5   1   76.42    2.06
   8   5   1   75.80    2.16
   8  -5   1   79.99    2.20
  -8   5  -1   73.86    2.08
   8  -5   1   79.16    2.05
  -8  -5  -1   82.04    1.49
   8  -5   1   80.33    1.48
   8  -5   1   77.44    1.37
  -8  -5  -1   78.27    1.52
  -8   5  -2    6.36    0.62
   8   5   2    5.67    0.58
   8   5   2    6.35    0.68
   8  -5   2    7.45    0.66
  -8   5  -2    5.70    0.37
   8  -5   2    6.19    0.37
  -8  -5  -2    5.55    0.38
  -8  -5  -2    6.01    0.37
   8  -5   2    5.79    0.33
  -8  -5  -3   32.12    1.35
  -8   5  -3   30.41    1.30
   8   5   3   27.60    1.20
   8  -5   3   30.41    0.77
   8  -5   3   29.62    1.25
   8   5   3   27.60    1.29
  -8  -5  -3   30.25    0.92
  -8   5  -3   29.77    0.96
  -8  -5  -3   29.99    0.84
   8  -5   4    1.29    0.25
   8   5   4    0.34    0.38
   8  -5   4    1.10    0.41
  -8   5  -4    1.21    0.25
  -8  -5  -4    1.43    0.26
  -8  -5  -4    1.52    0.28
   8  -5   5   17.93    0.70
   8   5   5   17.66    1.08
   8  -5   5   18.24    1.07
  -8   5  -5   18.97    0.81
  -8  -5  -5   18.49    0.74
  -8  -5  -5   20.52    0.81
  -8  -5  -6    3.05    0.39
   8  -5   6    2.83    0.36
   8  -5   6    3.30    0.62
   8   5   6    3.47    0.60
  -8   5  -6    2.52    0.39
  -8  -5  -7   32.58    1.12
   8   5   7   31.40    1.52
   8  -5   7   32.01    1.49
  -8   5  -7   30.48    1.15
   8  -5   7   32.42    1.08
   8   5   7   31.45    1.14
   8  -5   8    0.89    0.34
  -8  -5  -8    0.76    0.38
   8   5   8    1.34    0.50
   8  -5   8    1.50    0.52
  -8   5  -8    0.48    0.30
   8   5   8    0.98    0.39
   8  -5   9    0.72    0.48
   8   5   9    0.95    0.47
   8  -5   9    1.25    0.37
   8   5   9    1.93    0.45
   8  -5  10    0.38    0.51
   8   5  10   -0.52    0.56
   8  -5  10    0.39    0.38
   8   5  10    0.87    0.43
   8  -5  11    0.46    0.50
   8   5  11    1.04    0.61
   8   5  11   -0.06    0.44
   8  -5  11   -0.10    0.39
   8   5  12    4.32    0.81
   8  -5  12    4.09    0.81
   8   5  12    5.69    0.71
  -8  -6  14    0.24    0.55
  -8   6  14    0.02    0.58
  -8  -6  13    0.66    0.56
  -8   6  13    1.00    0.60
  -8  -6  12   10.47    1.00
  -8   6  12   10.84    1.01
  -8  -6  11   11.13    0.98
  -8   6  11    8.89    0.91
  -8  -6  10   34.09    1.57
  -8   6  10   33.44    1.54
  -8  -6   9    2.16    0.51
  -8   6   9    1.98    0.52
  -8  -6   8   31.23    1.38
  -8   6   8   31.18    1.35
  -8  -6   7    1.97    0.48
   8  -6  -7    1.88    0.37
   8   6  -7    2.39    0.44
  -8   6   7    2.39    0.48
  -8  -6   6   12.10    0.79
   8   6  -6   11.73    0.75
   8  -6  -6   12.90    0.77
  -8   6   6   11.82    0.78
  -8  -6   5   33.05    1.21
   8   6  -5   32.57    1.16
   8  -6  -5   31.48    1.13
  -8   6   5   32.21    1.20
  -8  -6   4   50.78    1.45
   8  -6  -4   49.21    1.57
   8   6  -4   52.07    1.43
  -8   6   4   49.41    1.43
   8  -6  -4   53.65    1.42
   8  -6  -3    8.29    0.63
   8   6  -3    8.53    0.54
   8  -6  -3    8.23    0.54
  -8  -6   3    8.58    0.52
   8  -6  -3    7.86    0.49
  -8   6   3    7.02    0.52
   8   6  -2    0.01    0.37
   8  -6  -2    0.19    0.36
   8  -6  -2   -0.07    0.31
   8  -6  -2   -0.60    0.36
  -8  -6   2    0.06    0.21
   8   6  -2    0.00    0.25
   8  -6  -2   -0.03    0.20
   8  -6  -1    2.84    0.49
   8   6  -1    3.29    0.55
   8  -6  -1    2.34    0.40
  -8  -6   1    2.89    0.31
   8  -6  -1    2.98    0.35
   8  -6  -1    3.20    0.31
   8   6  -1    2.89    0.34
   8   6   0   26.49    1.15
   8  -6   0   26.29    1.18
   8   6   0   24.34    1.20
   8  -6   0   26.64    1.11
  -8  -6   0   27.23    0.83
   8  -6   0   27.00    0.84
   8  -6   0   25.61    0.76
   8   6   1   13.78    0.84
   8   6   1   14.57    0.94
  -8   6  -1   14.88    0.89
   8  -6   1   15.08    0.94
   8  -6   1   15.00    0.86
  -8  -6  -1   16.06    0.64
   8  -6   1   14.88    0.62
   8  -6   1   14.57    0.56
  -8  -6  -1   15.14    0.64
  -8   6  -2   51.87    1.71
   8   6   2   51.06    1.62
   8   6   2   49.08    1.72
   8  -6   2   53.94    1.66
  -8   6  -2   47.56    1.24
   8  -6   2   57.74    1.28
  -8  -6  -2   48.52    1.24
  -8  -6  -2   53.26    1.25
   8  -6   2   53.51    1.18
  -8   6  -3    9.56    0.76
   8   6   3    8.38    0.68
   8  -6   3   10.82    0.78
   8   6   3    9.40    0.78
  -8   6  -3    9.76    0.60
   8  -6   3    9.82    0.53
  -8  -6  -3    9.29    0.56
  -8  -6  -3   10.04    0.53
   8  -6   4    4.15    0.37
   8   6   4    2.78    0.53
   8  -6   4    3.87    0.54
  -8   6  -4    3.46    0.38
  -8  -6  -4    4.09    0.37
  -8  -6  -4    4.24    0.41
   8  -6   5    0.41    0.26
   8  -6   5   -0.06    0.37
   8   6   5    0.08    0.41
  -8   6  -5   -0.05    0.26
  -8  -6  -5    0.58    0.29
  -8  -6  -5    0.10    0.24
   8  -6   6   70.33    1.65
   8   6   6   62.37    2.14
   8  -6   6   72.05    2.21
  -8   6  -6   68.22    1.78
  -8  -6  -6   67.77    1.68
   8  -6   7   14.31    0.77
   8   6   7   12.84    1.01
   8  -6   7   14.50    1.05
  -8   6  -7   13.91    0.82
  -8  -6  -7   13.01    0.74
   8  -6   8    6.74    0.58
  -8  -6  -8    6.36    0.59
   8  -6   8    6.45    0.80
   8   6   8    5.17    0.70
  -8   6  -8    6.15    0.61
   8   6   8    6.61    0.63
   8   6   9    0.68    0.48
   8  -6   9    1.08    0.53
   8  -6   9    0.80    0.39
   8   6   9    0.59    0.39
   8  -6  10    1.68    0.59
   8   6  10    0.32    0.50
   8  -6  10    0.33    0.38
   8   6  10    0.20    0.39
   8   6  11    1.41    0.57
   8  -6  11    4.14    0.82
   8  -6  11    2.98    0.54
   8   6  11    3.47    0.60
   8  -6  12   11.60    1.19
   8   6  12   10.75    1.10
   8   6  12   11.64    0.97
  -8   7  14   -0.78    0.65
  -8  -7  13    2.86    0.72
  -8   7  13    2.80    0.69
  -8  -7  12    2.46    0.64
  -8   7  12    2.65    0.65
  -8  -7  11   29.67    1.55
  -8   7  11   29.44    1.58
  -8  -7  10    2.37    0.60
  -8   7  10    2.22    0.56
  -8  -7   9   -0.10    0.44
  -8   7   9   -0.03    0.44
  -8  -7   8   23.24    1.20
  -8   7   8   24.25    1.23
  -8  -7   7    8.96    0.75
   8   7  -7    8.40    0.70
  -8   7   7    8.18    0.74
  -8  -7   6   35.62    1.37
   8   7  -6   38.02    1.36
   8  -7  -6   38.83    1.35
  -8   7   6   35.93    1.38
   8  -7  -5   85.49    2.17
  -8  -7   5   82.88    2.09
   8   7  -5   84.19    2.07
  -8   7   5   84.03    2.11
   8  -7  -5   89.82    2.09
   8  -7  -4    2.28    0.42
   8   7  -4    1.44    0.34
  -8  -7   4    2.54    0.39
   8  -7  -4    1.67    0.29
   8  -7  -4    1.92    0.35
  -8   7   4    1.09    0.32
   8  -7  -3   10.29    0.74
   8  -7  -3   10.32    0.68
   8  -7  -3   11.35    0.67
   8   7  -3    9.91    0.63
  -8  -7   3    9.90    0.60
   8  -7  -3    9.97    0.58
   8   7  -2    4.28    0.59
   8  -7  -2    4.97    0.56
   8  -7  -2    3.81    0.43
   8  -7  -2    3.78    0.41
  -8  -7   2    4.94    0.43
   8   7  -2    4.54    0.44
   8  -7  -2    5.02    0.40
   8   7  -1  104.23    2.64
   8  -7  -1  109.01    2.59
   8  -7  -1  104.69    2.37
  -8  -7   1  109.80    2.10
   8  -7  -1  103.49    2.15
   8   7  -1  103.23    2.10
   8  -7  -1  105.59    2.02
   8   7   0   45.47    1.52
   8  -7   0   46.37    1.61
   8   7   0   43.81    1.61
   8  -7   0   44.75    1.46
  -8  -7   0   45.84    1.22
   8  -7   0   46.80    1.26
   8  -7   0   46.45    1.17
   8   7   1   70.52    1.93
   8   7   1   69.11    2.07
  -8   7  -1   71.12    2.00
   8  -7   1   71.00    2.06
   8  -7   1   71.39    1.93
   8  -7   1   74.50    1.62
  -8  -7  -1   72.17    1.62
  -8  -7  -1   70.95    1.64
   8  -7   1   69.78    1.51
  -8   7  -2   28.47    1.25
   8   7   2   27.55    1.16
   8  -7   2   29.09    1.22
   8   7   2   27.94    1.28
  -8   7  -2   27.93    0.98
   8  -7   2   29.64    0.96
  -8  -7  -2   27.04    0.95
  -8  -7  -2   29.48    0.96
   8  -7   2   28.76    0.91
  -8   7  -3   12.15    0.85
   8  -7   3   13.89    0.88
   8   7   3   11.98    0.85
  -8   7  -3   13.05    0.71
   8  -7   3   12.90    0.65
  -8  -7  -3   13.60    0.71
  -8  -7  -3   12.91    0.63
   8   7   4    1.41    0.41
   8  -7   4    1.40    0.43
  -8   7  -4    1.96    0.38
   8  -7   4    1.78    0.33
  -8  -7  -4    2.27    0.36
  -8  -7  -4    2.38    0.34
   8  -7   5   21.42    0.83
   8   7   5   19.17    1.13
   8  -7   5   23.16    1.21
  -8   7  -5   21.59    0.95
  -8  -7  -5   21.78    0.92
  -8  -7  -5   20.44    0.86
   8  -7   6    0.55    0.31
   8  -7   6    1.40    0.51
   8   7   6    0.51    0.41
  -8   7  -6    0.31    0.33
  -8  -7  -6    1.08    0.33
  -8  -7  -6    1.00    0.36
   8  -7   7   57.35    1.59
   8   7   7   52.28    1.99
   8  -7   7   55.31    2.01
  -8   7  -7   55.91    1.71
  -8  -7  -7   57.63    1.64
   8   7   8    3.08    0.60
   8  -7   8    2.25    0.57
  -8  -7  -8    3.34    0.52
   8  -7   8    2.48    0.46
   8   7   9    0.21    0.48
   8  -7   9    0.81    0.50
   8  -7   9    0.48    0.37
   8   7   9    0.88    0.42
   8  -7  10    3.75    0.71
   8   7  10    2.19    0.62
   8  -7  10    3.65    0.56
   8   7  10    3.25    0.56
   8   7  11    4.87    0.83
   8  -7  11    5.84    0.85
   8  -7  11    5.56    0.66
   8   7  11    5.51    0.71
   8   7  12    0.87    0.62
   8   7  12    1.96    0.60
  -8  -8  13    5.72    0.95
  -8   8  13    6.71    0.92
  -8  -8  12   27.92    1.57
  -8   8  12   26.72    1.58
  -8  -8  11    0.93    0.57
  -8   8  11    0.51    0.52
  -8  -8  10    0.15    0.54
  -8   8  10    0.27    0.46
  -8  -8   9    2.04    0.53
  -8   8   9    1.90    0.55
  -8  -8   8   12.47    0.92
  -8   8   8   12.13    0.94
  -8  -8   7    5.04    0.61
  -8   8   7    4.23    0.60
  -8  -8   6   62.14    1.89
   8   8  -6   65.09    1.90
  -8   8   6   63.69    1.92
   8  -8  -6   65.14    1.86
   8  -8  -5   64.13    1.81
  -8  -8   5   63.95    1.78
   8   8  -5   63.72    1.82
   8  -8  -5   63.32    1.84
   8  -8  -5   63.93    1.77
  -8   8   5   64.77    1.88
   8  -8  -4   22.58    1.00
   8   8  -4   19.90    0.95
  -8  -8   4   22.78    0.97
   8  -8  -4   23.73    1.02
   8  -8  -4   22.02    0.94
  -8   8   4   22.30    1.01
   8  -8  -3    0.05    0.35
   8  -8  -3    0.29    0.26
   8   8  -3   -0.18    0.34
  -8  -8   3    0.07    0.27
   8  -8  -3    0.20    0.29
   8  -8  -3    0.55    0.25
   8  -8  -2   11.98    0.79
   8   8  -2   10.33    0.84
   8  -8  -2   10.64    0.68
   8   8  -2   10.99    0.68
   8  -8  -2   11.39    0.70
  -8  -8   2   10.97    0.64
   8  -8  -2   10.68    0.60
   8  -8  -1    1.48    0.40
   8   8  -1    1.61    0.50
   8  -8  -1    1.28    0.34
  -8  -8   1    1.51    0.34
   8  -8  -1    1.33    0.34
   8   8  -1    1.13    0.32
   8  -8  -1    1.63    0.33
   8   8   0   76.25    2.03
   8  -8   0   76.12    2.15
   8   8   0   75.62    2.20
   8  -8   0   78.95    1.98
  -8  -8   0   74.93    1.76
   8  -8   0   78.94    1.83
   8  -8   0   77.26    1.71
   8   8   1   26.58    1.13
  -8   8  -1   27.76    1.19
   8   8   1   28.07    1.28
   8  -8   1   27.92    1.14
   8  -8   1   27.05    0.98
  -8  -8  -1   26.29    0.98
  -8  -8  -1   26.35    0.99
   8  -8   1   27.40    0.94
   8   8   2   84.04    2.11
  -8   8  -2   82.80    2.24
   8  -8   2   81.41    2.13
   8   8   2   80.66    2.28
   8  -8   2   85.97    1.90
  -8  -8  -2   78.87    1.88
  -8  -8  -2   81.88    1.87
  -8   8  -2   79.04    1.89
   8  -8   2   79.92    1.79
   8   8   3    1.26    0.45
  -8   8  -3    1.82    0.42
   8  -8   3    1.41    0.42
  -8  -8  -3    1.08    0.33
   8  -8   3    1.41    0.33
  -8   8  -3    1.29    0.36
  -8  -8  -3    1.46    0.33
   8  -8   4    6.80    0.69
   8   8   4    6.40    0.67
  -8  -8  -4    7.01    0.58
   8  -8   4    7.29    0.56
  -8   8  -4    7.59    0.63
  -8  -8  -4    6.17    0.51
   8  -8   5    8.30    0.59
   8  -8   5    7.22    0.73
   8   8   5    8.39    0.80
  -8  -8  -5    7.41    0.61
  -8   8  -5    7.38    0.64
   8  -8   5    8.19    0.63
  -8  -8  -5    7.69    0.58
   8  -8   6   40.71    1.29
   8   8   6   38.95    1.65
   8  -8   6   40.72    1.64
  -8   8  -6   38.08    1.40
  -8  -8  -6   37.51    1.29
  -8  -8  -6   38.19    1.38
   8  -8   7    1.08    0.39
   8  -8   7    0.66    0.50
   8   8   7    0.01    0.44
  -8   8  -7   -0.27    0.36
  -8  -8  -7   -0.08    0.33
  -8  -8  -7    0.14    0.37
   8  -8   8   41.90    1.83
   8   8   8   44.08    1.87
   8  -8   8   47.21    1.55
   8  -8   9    3.43    0.67
   8   8   9    2.95    0.65
   8  -8   9    3.09    0.52
   8   8  10   -0.02    0.56
   8  -8  10   -1.18    0.58
   8  -8  10   -0.26    0.40
   8   8  10    0.94    0.47
   8  -8  11    2.24    0.65
   8   8  11    0.89    0.57
   8  -8  11    1.92    0.51
   8   8  11    2.08    0.60
   8   8  12    6.84    0.95
   8   8  12    5.32    0.78
  -8  -9  13   17.04    1.34
  -8   9  13   18.48    1.42
  -8  -9  12    0.55    0.56
  -8   9  12    1.23    0.61
  -8  -9  11    7.85    0.89
  -8   9  11    8.10    0.95
  -8  -9  10    2.05    0.61
  -8   9  10    1.98    0.57
  -8  -9   9    0.56    0.49
  -8   9   9    0.78    0.54
  -8  -9   8    3.31    0.62
  -8   9   8    3.02    0.61
  -8  -9   7    0.22    0.42
  -8   9   7    0.61    0.45
  -8  -9   6    9.21    0.77
   8  -9  -6    9.71    0.71
  -8  -9   6    8.80    0.73
  -8   9   6    9.03    0.79
   8  -9  -6    9.69    0.80
   8  -9  -5  235.84    4.14
  -8  -9   5  234.94    4.22
   8   9  -5  231.54    4.29
   8  -9  -5  237.89    4.20
   8  -9  -5  229.94    4.29
  -8   9   5  229.46    4.34
   8  -9  -4    6.43    0.66
   8  -9  -4    5.96    0.52
   8   9  -4    6.04    0.59
  -8  -9   4    7.26    0.62
   8  -9  -4    7.09    0.60
   8  -9  -4    5.85    0.57
   8  -9  -3    2.38    0.45
   8  -9  -3    2.73    0.40
   8   9  -3    1.75    0.40
  -8  -9   3    3.05    0.44
   8  -9  -3    2.73    0.45
   8  -9  -3    2.56    0.38
   8  -9  -2   12.73    0.84
   8   9  -2   12.94    0.92
   8  -9  -2   12.31    0.71
   8  -9  -2   12.11    0.76
   8   9  -2   11.93    0.77
  -8  -9   2   13.41    0.76
   8  -9  -2   13.73    0.72
   8   9  -1  110.18    2.74
   8  -9  -1  105.10    2.58
   8  -9  -1  106.07    2.34
   8  -9  -1  105.21    2.37
  -8  -9   1  108.66    2.32
   8  -9  -1  102.90    2.21
   8   9  -1  102.48    2.30
   8  -9   0    4.54    0.62
   8   9   0    3.50    0.49
   8   9   0    3.66    0.56
   8  -9   0    5.25    0.56
   8  -9   0    4.29    0.49
  -8  -9   0    3.63    0.43
   8  -9   0    3.59    0.41
  -8   9  -1  100.39    2.41
   8   9   1   96.85    2.31
   8  -9   1   96.00    2.28
   8   9   1   97.24    2.52
   8  -9   1   98.04    2.17
  -8  -9  -1   91.68    2.13
  -8  -9  -1   92.45    2.18
   8  -9   1   95.15    2.09
  -8   9  -2    0.54    0.33
   8   9   2    0.55    0.34
   8  -9   2    0.48    0.37
   8   9   2    0.65    0.42
   8  -9   2    0.28    0.30
  -8  -9  -2    0.08    0.29
  -8  -9  -2    0.81    0.32
  -8   9  -2    0.74    0.33
   8  -9   2    0.11    0.27
   8   9   3    1.35    0.43
  -8   9  -3    1.97    0.44
   8  -9   3    1.88    0.42
  -8  -9  -3    2.20    0.41
   8  -9   3    2.86    0.43
  -8   9  -3    2.22    0.40
  -8  -9  -3    1.63    0.35
   8  -9   4    4.24    0.58
   8   9   4    3.78    0.57
  -8  -9  -4    3.35    0.48
  -8   9  -4    3.40    0.50
   8  -9   4    4.05    0.49
  -8  -9  -4    4.13    0.48
   8   9   5   22.77    1.22
   8  -9   5   23.03    1.20
   8  -9   5   25.48    1.09
  -8   9  -5   21.95    1.10
  -8  -9  -5   22.76    1.08
  -8  -9  -5   21.99    0.98
   8  -9   6   12.52    0.76
   8   9   6   11.92    0.97
   8  -9   6   12.37    0.95
  -8   9  -6    9.49    0.76
  -8  -9  -6   11.22    0.79
  -8  -9  -6   11.53    0.76
   8  -9   7    7.12    0.81
   8   9   7    6.23    0.74
   8  -9   7    6.26    0.62
  -8  -9  -7    5.23    0.59
   8   9   8    0.63    0.49
   8  -9   8    0.20    0.48
   8  -9   8    1.04    0.42
  -8  -9  -8    0.93    0.48
   8  -9   9    3.06    0.63
   8   9   9    4.03    0.71
   8  -9   9    3.85    0.57
   8   9  10   -0.76    0.60
   8  -9  10    0.41    0.52
   8  -9  10   -0.24    0.42
   8   9  11    2.69    0.68
   8  -9  11    3.64    0.75
   8  -9  11    3.67    0.63
   8   9  11    3.64    0.67
   8   9  12    0.49    0.58
  -8  10  13   -0.93    0.68
  -8 -10  12   10.39    1.08
  -8  10  12   11.19    1.21
  -8 -10  11    4.86    0.82
  -8  10  11    4.64    0.81
  -8 -10  10    8.71    0.94
  -8  10  10    7.74    0.92
  -8 -10   9    0.34    0.49
  -8  10   9   -0.19    0.53
  -8 -10   8    1.51    0.56
  -8  10   8    1.76    0.55
  -8 -10   7   10.20    0.87
  -8  10   7   10.39    0.91
   8 -10  -6   10.56    0.73
  -8 -10   6   11.25    0.83
   8 -10  -6   10.15    0.84
  -8  10   6   11.29    0.90
   8 -10  -5    1.33    0.37
  -8 -10   5    1.06    0.43
   8 -10  -5    1.41    0.49
   8 -10  -4   25.09    1.03
   8 -10  -4   25.69    1.20
   8  10  -4   23.65    1.16
  -8 -10   4   24.07    1.11
   8 -10  -4   23.15    1.16
   8 -10  -4   25.56    1.10
   8 -10  -3    4.42    0.57
   8 -10  -3    4.43    0.46
   8 -10  -3    3.53    0.52
   8  10  -3    4.18    0.58
  -8 -10   3    4.25    0.53
   8 -10  -3    4.94    0.52
   8 -10  -2   40.59    1.50
   8  10  -2   40.66    1.62
   8 -10  -2   42.28    1.33
   8  10  -2   41.05    1.44
   8 -10  -2   41.82    1.49
  -8 -10   2   42.49    1.43
   8 -10  -2   40.68    1.35
   8  10  -1   46.47    1.70
   8 -10  -1   47.33    1.65
   8 -10  -1   48.90    1.46
  -8 -10   1   46.47    1.49
   8 -10  -1   47.68    1.56
   8 -10  -1   47.54    1.44
   8  10  -1   46.02    1.49
   8  10   0   56.68    1.87
   8  10   0   55.30    1.67
   8 -10   0   55.82    1.60
  -8 -10   0   55.12    1.62
   8 -10   0   56.10    1.67
   8 -10   0   56.13    1.57
   8  10   1    5.37    0.53
  -8  10  -1    7.13    0.64
   8 -10   1    6.48    0.58
   8  10   1    6.25    0.67
  -8 -10  -1    5.85    0.56
   8 -10   1    5.66    0.56
  -8 -10  -1    5.24    0.54
   8 -10   1    5.49    0.52
   8  10   2   48.93    1.51
  -8  10  -2   48.98    1.65
   8 -10   2   48.88    1.57
   8  10   2   46.22    1.67
  -8 -10  -2   45.64    1.49
   8 -10   2   49.03    1.52
  -8  10  -2   45.87    1.51
   8 -10   2   44.18    1.41
  -8 -10  -2   45.39    1.48
  -8  10  -3   16.79    0.99
   8 -10   3   18.67    1.00
   8  10   3   17.91    1.06
  -8 -10  -3   16.54    0.91
  -8  10  -3   18.97    0.99
   8 -10   3   17.95    0.94
  -8 -10  -3   17.83    0.91
   8  10   4    3.31    0.53
   8 -10   4    2.42    0.50
  -8 -10  -4    1.90    0.41
   8 -10   4    2.84    0.48
  -8  10  -4    2.97    0.47
  -8 -10  -4    2.20    0.39
   8  10   5   20.37    1.16
   8 -10   5   19.14    1.11
  -8 -10  -5   19.77    1.08
   8 -10   5   22.23    1.06
  -8  10  -5   20.02    1.11
  -8 -10  -5   20.74    1.01
   8 -10   6   34.83    1.28
  -8 -10  -6   30.19    1.33
   8 -10   6   34.61    1.36
   8 -10   6   31.07    1.47
   8  10   6   32.20    1.51
   8 -10   7   11.24    0.80
   8 -10   7   10.09    0.93
   8  10   7   10.40    0.91
  -8 -10  -7    9.45    0.80
   8 -10   8   12.19    1.03
   8  10   8   13.59    1.06
   8 -10   8   13.18    0.89
  -8 -10  -8   12.30    0.93
   8 -10   9   -0.14    0.48
   8  10   9   -1.04    0.56
   8 -10   9    0.05    0.41
  -8 -10  -9    0.03    0.45
   8  10  10    0.46    0.54
   8 -10  10    1.98    0.61
   8 -10  10    1.13    0.49
  -8 -10 -10    1.13    0.55
   8 -10  11    4.10    0.80
   8  10  11    2.59    0.65
   8  10  12    2.14    0.70
  -8 -11  12    5.29    0.88
  -8  11  12    6.75    0.98
  -8 -11  11   13.10    1.16
  -8  11  11   13.33    1.19
  -8 -11  10    1.45    0.58
  -8  11  10    1.15    0.61
  -8 -11   9    3.71    0.66
  -8  11   9    3.28    0.64
  -8 -11   8    0.45    0.47
  -8  11   8    1.31    0.57
   8 -11  -7    8.92    0.68
  -8 -11   7    8.22    0.78
   8 -11  -7   10.29    0.91
  -8  11   7    8.45    0.87
   8 -11  -6    7.98    0.63
  -8 -11   6    7.81    0.77
   8 -11  -6    8.87    0.84
   8 -11  -5    1.92    0.48
   8 -11  -5    1.67    0.35
  -8 -11   5    1.06    0.44
   8 -11  -5    1.16    0.46
   8 -11  -4    8.54    0.63
   8 -11  -4    8.33    0.75
  -8 -11   4    8.88    0.75
   8 -11  -4    7.18    0.74
   8 -11  -3   11.70    0.82
   8  11  -3   10.44    0.87
   8 -11  -3   10.18    0.65
   8  11  -3   10.27    0.81
  -8 -11   3   11.84    0.81
   8 -11  -3   10.43    0.84
   8 -11  -3   11.00    0.75
   8  11  -2    0.41    0.40
   8 -11  -2    1.24    0.38
   8 -11  -2    1.07    0.27
  -8 -11   2    1.38    0.43
   8 -11  -2    0.96    0.42
   8  11  -2    0.77    0.35
   8 -11  -2    1.34    0.36
   8  11  -1  163.27    3.54
   8 -11  -1  157.51    3.38
   8 -11  -1  161.45    3.05
  -8 -11   1  159.59    3.28
   8 -11  -1  159.99    3.34
   8 -11  -1  157.36    3.18
   8  11  -1  162.00    3.30
   8  11   0   39.01    1.56
   8  11   0   40.19    1.38
   8 -11   0   40.42    1.33
  -8 -11   0   36.46    1.37
   8 -11   0   39.44    1.45
   8 -11   0   38.45    1.34
  -8 -11   0   39.54    1.49
   8  11   1    7.85    0.61
   8 -11   1    8.29    0.64
   8  11   1    7.62    0.72
  -8 -11  -1    6.64    0.62
   8 -11   1    7.82    0.66
  -8 -11  -1    6.96    0.65
   8 -11   1    6.54    0.57
   8  11   2   11.60    0.72
  -8  11  -2   12.49    0.83
   8 -11   2   12.56    0.80
   8  11   2   11.00    0.83
  -8 -11  -2   11.37    0.81
   8 -11   2   10.74    0.78
  -8  11  -2   11.09    0.79
   8 -11   2   10.95    0.74
  -8 -11  -2   11.18    0.79
  -8  11  -3   14.79    0.93
   8 -11   3   14.00    0.88
   8  11   3   14.19    0.94
  -8 -11  -3   13.76    0.87
  -8  11  -3   14.46    0.91
   8 -11   3   14.22    0.88
  -8 -11  -3   13.97    0.85
   8  11   4    2.66    0.52
   8 -11   4    2.34    0.49
   8 -11   4    2.69    0.48
  -8 -11  -4    1.63    0.44
  -8  11  -4    1.98    0.47
  -8 -11  -4    2.65    0.47
  -8 -11  -5    4.84    0.63
   8 -11   5    7.17    0.69
   8 -11   5    7.82    0.77
   8  11   5    7.22    0.73
   8 -11   6   20.23    1.10
  -8 -11  -6   18.76    1.13
   8 -11   6   20.08    1.21
   8  11   6   19.75    1.16
   8 -11   7   18.86    1.04
   8 -11   7   17.92    1.18
   8  11   7   20.09    1.21
  -8 -11  -7   17.76    1.10
   8  11   8    0.21    0.43
   8 -11   8    0.32    0.48
   8 -11   8   -0.18    0.39
  -8 -11  -8    0.31    0.46
   8  11   9   -0.42    0.49
   8 -11   9    0.51    0.52
   8 -11   9    0.29    0.44
  -8 -11  -9    0.72    0.53
   8  11  10    0.87    0.51
   8 -11  10    0.75    0.56
   8 -11  10    1.00    0.50
  -8 -11 -10    0.97    0.64
   8 -11  11    7.49    0.98
   8  11  11    4.30    0.79
  -8 -11 -11    5.24    0.82
   8  11  12    5.02    0.85
  -8 -11 -12    4.70    0.87
  -8  12  12    6.36    0.98
  -8 -12  11    2.73    0.69
  -8  12  11    3.36    0.77
  -8 -12  10   19.03    1.34
  -8  12  10   18.91    1.37
  -8 -12   9    3.74    0.70
   8 -12  -9    5.12    0.82
  -8  12   9    4.30    0.75
  -8 -12   8   17.46    1.22
   8 -12  -8   19.09    0.97
   8 -12  -8   20.89    1.34
  -8  12   8   17.60    1.26
   8 -12  -7    0.39    0.31
  -8 -12   7    0.20    0.50
   8 -12  -7    0.05    0.45
  -8  12   7    0.25    0.50
   8 -12  -6   19.47    1.10
   8 -12  -6   21.30    0.94
   8 -12  -6   19.34    1.20
  -8 -12   6   20.69    1.17
   8 -12  -5   19.24    1.07
   8 -12  -5   20.40    0.90
  -8 -12   5   22.31    1.20
   8 -12  -5   18.61    1.17
   8 -12  -4   73.34    2.12
   8 -12  -4   66.42    2.25
  -8 -12   4   74.33    2.19
   8 -12  -4   75.66    1.81
   8 -12  -3    0.34    0.36
   8  12  -3    1.27    0.48
  -8 -12   3    0.71    0.40
   8 -12  -3    1.30    0.47
   8 -12  -3    0.68    0.28
   8 -12  -2    6.01    0.62
   8  12  -2    6.27    0.71
   8 -12  -2    6.34    0.49
   8 -12  -2    6.92    0.70
  -8 -12   2    7.03    0.70
   8  12  -1    3.82    0.58
   8 -12  -1    3.46    0.39
  -8 -12   1    3.68    0.54
   8 -12  -1    3.41    0.55
   8 -12  -1    3.23    0.46
   8  12  -1    4.15    0.56
   8  12   0   75.96    1.97
   8  12   0   77.48    2.25
   8 -12   0   81.76    1.96
  -8 -12   0   71.79    2.07
   8 -12   0   74.96    2.15
   8 -12   0   72.95    2.03
   8  12   1   51.45    1.51
   8 -12   1   53.67    1.58
   8  12   1   48.70    1.72
   8 -12   1   49.22    1.69
  -8 -12  -1   48.87    1.67
   8 -12   1   44.65    1.56
   8  12   2   20.55    0.92
  -8  12  -2   21.35    1.06
   8 -12   2   21.14    1.02
   8  12   2   19.72    1.10
   8 -12   2   20.42    1.08
  -8 -12  -2   20.58    1.09
   8 -12   2   18.44    0.98
  -8  12  -3    1.51    0.37
   8  12   3    1.16    0.40
   8 -12   3    1.39    0.40
   8 -12   3    1.08    0.43
  -8 -12  -3    0.89    0.38
   8 -12   3    0.97    0.33
   8  12   4    4.35    0.59
   8 -12   4    3.98    0.54
  -8 -12  -4    4.88    0.65
   8 -12   4    5.17    0.63
   8 -12   5    8.12    0.79
   8  12   5    6.62    0.69
   8 -12   5    6.10    0.69
  -8 -12  -5    6.05    0.72
   8  12   6   40.59    1.66
   8 -12   6   39.38    1.66
  -8 -12  -6   34.41    1.60
   8 -12   6   40.09    1.60
   8 -12   7    1.12    0.46
   8  12   7    1.04    0.46
   8 -12   7    0.25    0.46
   8 -12   7    1.46    0.50
  -8 -12  -7    1.61    0.54
   8  12   8    3.76    0.63
   8 -12   8    4.21    0.70
   8 -12   8    3.71    0.63
  -8 -12  -8    3.68    0.67
   8 -12   9   10.98    1.09
   8  12   9   10.94    1.00
   8 -12   9   12.10    0.96
  -8 -12  -9   10.06    0.99
   8  12  10    0.55    0.53
   8 -12  10    1.20    0.60
   8 -12  10    1.09    0.53
  -8 -12 -10    1.87    0.61
   8  12  11    0.45    0.66
  -8 -12 -11    1.21    0.60
  -8 -13  11   10.00    1.13
  -8  13  11   10.03    1.13
  -8 -13  10    1.97    0.79
   8 -13 -10    1.46    0.69
  -8  13  10   -0.49    0.63
  -8 -13   9    7.72    0.94
   8 -13  -9    6.95    0.88
  -8  13   9    6.10    0.90
  -8 -13   8    3.35    0.71
  -8 -13   8    4.37    0.71
   8 -13  -8    4.36    0.74
  -8  13   8    4.11    0.73
   8 -13  -7   12.04    0.89
  -8 -13   7   11.98    1.01
   8 -13  -7   11.10    1.01
   8 -13  -6   17.65    0.83
   8 -13  -6   16.94    1.02
   8 -13  -6   17.56    1.22
  -8 -13   6   17.50    1.13
   8 -13  -5   39.51    1.53
   8 -13  -5   38.13    1.75
  -8 -13   5   42.35    1.71
   8 -13  -5   41.40    1.25
   8 -13  -4    1.28    0.43
   8 -13  -4    0.52    0.50
  -8 -13   4    2.81    0.62
   8 -13  -4    0.89    0.28
   8  13  -3   49.39    1.86
   8 -13  -3   50.13    1.72
   8 -13  -3   51.31    1.92
  -8 -13   3   49.43    1.80
   8 -13  -3   50.42    1.39
   8  13  -2    0.44    0.38
  -8 -13   2    0.60    0.40
   8 -13  -2    1.04    0.45
   8 -13  -2    0.78    0.26
   8 -13  -1    1.74    0.51
  -8 -13   1    1.19    0.42
   8  13  -1    1.38    0.46
   8 -13  -1    1.79    0.32
   8  13   0   -0.28    0.30
  -8 -13   0   -0.39    0.46
   8 -13   0    0.13    0.40
   8  13   0   -0.10    0.35
   8 -13   0    0.68    0.33
   8  13   1   24.00    1.00
   8 -13   1   22.36    1.19
  -8 -13  -1   23.66    1.20
   8 -13   1   26.86    1.10
   8  13   1   24.26    1.21
  -8  13  -2   18.90    1.00
   8  13   2   18.81    1.07
   8 -13   2   18.18    0.96
   8 -13   2   18.58    1.08
  -8 -13  -2   18.59    1.09
   8  13   3    3.34    0.51
   8 -13   3    2.94    0.46
   8 -13   3    2.70    0.55
  -8 -13  -3    2.91    0.54
   8  13   4    2.42    0.49
   8 -13   4    1.83    0.47
  -8 -13  -4    1.52    0.49
   8 -13   4    1.63    0.51
   8  13   5   10.70    0.86
   8 -13   5    9.90    0.83
  -8 -13  -5   10.18    0.92
   8 -13   5   10.93    0.91
   8 -13   6    5.65    0.72
   8  13   6    5.89    0.72
   8 -13   6    5.24    0.71
  -8 -13  -6    4.85    0.71
   8  13   7   14.61    1.05
   8 -13   7   14.99    1.11
  -8 -13  -7   13.26    1.10
   8 -13   7   15.37    1.09
   8 -13   8    9.03    0.95
   8  13   8    9.39    0.91
   8 -13   8    9.00    0.88
  -8 -13  -8    9.89    0.99
   8 -13   9   21.44    1.26
   8 -13   9   18.62    1.35
   8  13   9   20.19    1.29
  -8 -13  -9   19.38    1.37
   8  13  10   -0.11    0.51
  -8 -13 -10    1.90    0.65
  -8 -13 -11    0.86    0.62
   8 -14 -11    2.20    0.75
  -8 -14  10    1.25    0.60
   8 -14 -10    1.40    0.63
  -8  14  10    1.50    0.71
  -8 -14   9    3.11    0.77
   8 -14  -9    3.26    0.73
   8 -14  -8    1.50    0.47
  -8 -14   8    0.76    0.59
   8 -14  -8    1.67    0.67
   8 -14  -7    1.45    0.48
  -8 -14   7    1.59    0.58
   8 -14  -7    1.42    0.66
   8 -14  -6   18.86    1.06
  -8 -14   6   16.63    1.17
   8 -14  -6   18.17    1.30
   8 -14  -5   30.65    1.34
   8 -14  -5   27.37    1.56
  -8 -14   5   33.80    1.59
   8 -14  -4   10.51    0.80
   8 -14  -4   10.99    0.99
  -8 -14   4   12.32    0.99
   8 -14  -4   12.71    0.64
   8  14  -3    2.53    0.54
  -8 -14   3    1.78    0.52
   8 -14  -3    2.01    0.60
   8 -14  -3    3.37    0.39
   8  14  -2    2.59    0.54
  -8 -14   2    1.92    0.51
   8 -14  -2    2.51    0.60
   8 -14  -2    2.41    0.35
   8  14  -1   12.49    0.92
  -8 -14   1   10.43    0.88
   8 -14  -1   12.78    0.97
   8 -14  -1   12.66    0.67
   8  14   0    5.80    0.52
  -8 -14   0    5.29    0.69
   8 -14   0    5.07    0.68
   8 -14   0    6.80    0.57
   8  14   0    4.64    0.59
   8  14   1   15.33    0.77
   8  14   1   14.75    0.96
   8 -14   1   15.63    0.83
   8 -14   1   14.02    0.99
  -8 -14  -1   14.88    1.01
   8  14   2   10.37    0.82
   8 -14   2   10.00    0.73
  -8 -14  -2    9.44    0.85
   8 -14   2    9.17    0.85
   8  14   3    0.40    0.36
   8 -14   3   -0.05    0.33
   8 -14   3    0.44    0.43
  -8 -14  -3    0.00    0.42
   8 -14   4    5.59    0.63
   8  14   4    5.39    0.64
   8 -14   4    4.86    0.70
  -8 -14  -4    4.26    0.66
   8  14   5   14.30    0.98
   8 -14   5   13.40    0.95
  -8 -14  -5   12.88    1.03
   8 -14   5   16.80    1.12
   8  14   6    9.97    0.85
   8 -14   6    9.53    0.86
  -8 -14  -6    7.68    0.87
   8 -14   6    9.27    0.89
   8  14   7    0.47    0.44
   8 -14   7    1.49    0.55
   8 -14   7    1.53    0.58
  -8 -14  -7   -0.93    0.68
   8  14   8    7.51    0.81
   8 -14   8    7.59    0.89
   8 -14   8    6.58    0.77
  -8 -14  -8    5.83    0.86
   8 -14   9    1.19    0.58
  -8 -14  -9    1.94    0.71
  -8 -14 -10    2.93    0.72
   8 -15 -10    4.38    0.86
  -8 -15   9    0.27    0.59
   8 -15  -9    0.98    0.63
  -8 -15   8    1.75    0.66
   8 -15  -8    1.68    0.66
  -8 -15   7   18.51    1.29
   8 -15  -7   17.33    1.30
   8 -15  -6   -0.01    0.37
  -8 -15   6    0.39    0.51
   8 -15  -6    0.23    0.56
   8 -15  -5    8.93    0.76
   8 -15  -5    6.37    0.88
  -8 -15   5    8.77    0.92
   8  15  -4   12.75    1.00
   8 -15  -4   12.44    0.87
   8 -15  -4   12.40    1.08
  -8 -15   4   12.34    1.02
   8  15  -3    4.93    0.65
  -8 -15   3    4.20    0.66
   8 -15  -3    3.72    0.68
  -8 -15   2    0.35    0.43
   8 -15  -2   -0.14    0.50
   8  15  -2    0.66    0.43
   8  15  -1   24.03    1.23
   8  15  -1   22.92    1.01
  -8 -15   1   21.44    1.24
   8 -15  -1   23.76    1.33
   8  15   0    9.94    0.64
  -8 -15   0    9.57    0.87
   8 -15   0   10.03    0.91
   8  15   0   10.49    0.83
   8 -15   0   10.61    0.65
   8 -15   1   15.34    1.08
  -8 -15  -1   15.29    1.06
   8 -15   1   15.88    0.82
   8  15   1   14.11    0.93
   8 -15   2   23.33    1.33
  -8 -15  -2   25.79    1.35
   8 -15   2   27.96    1.15
   8  15   2   25.40    1.22
   8 -15   3   -0.33    0.48
  -8 -15  -3   -0.75    0.50
   8 -15   3   -0.30    0.36
   8  15   3    0.34    0.37
   8 -15   4    8.88    0.85
  -8 -15  -4    8.05    0.85
   8  15   4    9.01    0.77
   8 -15   4   10.01    0.81
  -8 -15  -5    4.46    0.83
   8 -15   5    6.09    0.78
   8 -15   5    6.29    0.72
   8  15   5    5.77    0.67
  -8 -15  -6   12.78    1.12
   8 -15   6   14.61    1.13
   8  15   6   14.12    0.98
   8 -15   6   14.97    1.06
  -8 -15  -7   -0.31    0.64
   8 -15   7    1.38    0.56
   8 -15   7   -0.05    0.52
   8 -15   8    2.28    0.64
  -8 -15  -8    1.68    0.62
   8 -15   8    3.91    0.76
  -8 -15  -9   -0.25    0.60
  -8 -15 -10    0.54    0.68
  -8 -16   9    1.96    0.66
   8 -16  -9    0.62    0.63
  -8 -16   8    1.18    0.59
   8 -16  -8   -0.35    0.68
  -8 -16   7    0.33    0.58
   8 -16  -7   -0.04    0.61
   8 -16  -6    1.60    0.60
  -8 -16   6    3.29    0.70
   8 -16  -5   11.53    1.33
  -8 -16   5   10.80    1.01
   8  16  -4   20.93    1.26
   8 -16  -4   20.74    1.39
  -8 -16   4   19.13    1.30
   8  16  -3    6.96    0.76
  -8 -16   3    4.94    0.72
   8 -16  -3    7.11    0.86
  -8 -16   2    4.42    0.71
   8 -16  -2    5.65    0.81
   8  16  -2    4.42    0.63
   8  16  -1   15.31    1.00
  -8 -16   1   14.72    1.10
   8 -16  -1   15.06    1.14
  -8 -16   0   21.78    1.29
   8 -16   0   21.05    1.30
   8  16   0   22.19    1.16
   8 -16   1   16.22    1.18
  -8 -16  -1   18.45    1.21
   8  16   1   17.32    1.02
   8 -16   2   14.72    1.11
  -8 -16  -2   15.78    1.12
   8  16   2   14.83    0.93
   8 -16   3   11.25    0.99
  -8 -16  -3   13.65    1.05
   8  16   3   11.79    0.84
   8 -16   4    3.93    0.75
  -8 -16  -4    4.38    0.74
   8  16   4    4.56    0.60
  -8 -16  -5    3.20    0.66
   8 -16   5    4.09    0.72
  -8 -16  -6   15.11    1.25
   8 -16   6   15.09    1.17
   8 -16   7   15.33    1.21
  -8 -16  -7   14.09    1.25
   8 -16   8    1.91    0.61
  -8 -16  -8    0.31    0.63
   8 -16   8    2.10    0.69
  -8 -16  -9    2.03    0.71
  -8 -17   8    2.25    0.70
   8 -17  -8    2.33    0.86
   8 -17  -7    7.53    1.07
  -8 -17   7    7.35    0.95
  -8 -17   6    9.90    1.05
   8 -17  -6    7.94    1.02
   8  17  -5    2.76    0.65
  -8 -17   5    0.56    0.53
   8 -17  -5    2.32    0.66
   8  17  -4    5.69    0.73
  -8 -17   4    5.58    0.81
   8 -17  -4    6.07    0.90
   8  17  -3    9.58    0.87
  -8 -17   3    7.77    0.89
   8 -17  -3    9.22    1.00
  -8 -17   2    0.87    0.53
   8 -17  -2    1.50    0.60
   8  17  -2    2.34    0.51
   8  17  -1   28.28    1.32
  -8 -17   1   27.37    1.51
   8 -17  -1   26.05    1.52
  -8 -17   0   30.47    1.59
   8 -17   0   31.55    1.64
   8  17   0   33.02    1.40
   8 -17   1    7.07    0.87
  -8 -17  -1    6.57    0.82
   8  17   1    7.85    0.71
   8 -17   2   19.21    1.31
  -8 -17  -2   20.93    1.32
   8 -17   3    6.66    0.86
  -8 -17  -3    5.90    0.80
   8 -17   4    3.25    0.69
  -8 -17  -4    4.01    0.74
   8 -17   5    3.30    0.74
  -8 -17  -5    3.83    0.74
  -8 -17  -6   10.57    1.07
   8 -17   6   10.76    1.07
  -8 -17  -7   24.29    1.61
   8 -17   7   21.97    1.45
  -8 -17  -8    2.99    0.78
   8 -17   8    3.19    0.73
   8 -18  -7    1.91    0.70
  -8 -18   7    1.14    0.59
   8 -18  -6    4.01    0.82
  -8 -18   6    3.58    0.81
   8  18  -5   12.38    1.02
   8 -18  -5   10.87    1.10
  -8 -18   5    9.83    1.05
   8  18  -4   14.85    1.08
  -8 -18   4   11.23    1.09
   8 -18  -4   14.10    1.23
  -8 -18   3   -0.46    0.57
   8 -18  -3    0.92    0.59
  -8 -18   2    4.67    0.77
   8 -18  -2    5.86    0.88
   8 -18  -1    4.49    0.77
  -8 -18   1    4.35    0.74
  -8 -18   0   26.27    1.51
   8 -18   0   25.50    1.52
   8 -18   1   23.24    1.47
  -8 -18  -1   20.26    1.36
  -8 -18  -2    3.86    0.75
   8 -18   2    2.78    0.69
  -8 -18  -3    0.12    0.57
   8 -18   3    0.80    0.58
   8 -18   4   -0.53    0.56
  -8 -18  -4    1.55    0.63
  -8 -18  -5    1.33    0.59
   8 -18   5    2.79    0.70
  -8 -18  -6   13.61    1.19
   8 -18   6   14.84    1.25
  -8 -18  -7    3.63    0.82
   8 -18   7    4.71    0.88
   8 -19  -5    0.86    0.60
  -8 -19   5   -0.93    0.66
  -8 -19   4   -0.23    0.59
   8 -19  -4    0.58    0.56
  -8 -19   3   -0.69    0.61
   8 -19  -3   -0.41    0.57
   8 -19  -2    4.65    0.82
  -8 -19   2    4.03    0.78
  -8 -19   1    9.20    1.00
   8 -19  -1    8.37    0.98
  -8 -19   0    6.87    0.91
   8 -19   0    7.01    0.95
   8 -19   1   15.70    1.27
  -8 -19  -1   15.40    1.24
   8 -19   2   18.41    1.38
  -8 -19  -2   18.12    1.33
  -8 -19  -3    0.54    0.58
   8 -19   3    0.10    0.56
   8 -19   4    6.92    0.96
  -8 -19  -4    7.62    0.95
  -8 -19  -5    2.62    0.80
   8 -19   5    1.01    0.57
  -8 -20   3    2.87    0.74
   8 -20  -3    2.72    0.76
   8 -20  -2    4.97    0.86
  -8 -20   2    5.75    0.87
  -8 -20   1    5.46    0.84
   8 -20  -1    6.87    0.98
  -8 -20   0    5.36    0.86
   8 -20   0    5.69    0.93
   8 -20   1    6.74    0.95
  -8 -20  -1    8.31    1.03
   8 -20   2    6.01    0.91
  -8 -20  -2    5.40    0.87
  -8 -20  -3    2.04    0.67
   8 -20   3    2.80    0.75
  -9   0  14   -0.25    0.53
  -9   0  13   -0.54    0.58
  -9   0  12   18.86    1.27
  -9   0  11   -0.42    0.57
  -9   0  10    6.36    0.69
  -9   0   9   -0.08    0.44
   9   0  -8   21.90    1.02
  -9   0   8   21.87    1.07
   9   0  -7   -0.20    0.28
  -9   0   7    0.26    0.37
   9   0  -6   20.90    0.87
  -9   0   6   20.41    0.91
   9   0  -5   -0.09    0.27
  -9   0   5   -0.30    0.29
   9   0  -4  141.10    2.37
  -9   0   4  141.68    2.49
   9   0  -3   -0.20    0.40
   9   0  -3   -0.12    0.16
  -9   0   3   -0.39    0.21
   9   0  -2   11.66    0.87
  -9   0   2   11.85    0.42
   9   0  -1    0.12    0.42
   9   0  -1    0.49    0.42
   9   0   0   14.92    0.95
   9   0   0   17.24    1.00
   9   0   1    0.58    0.43
   9   0   1    0.61    0.44
   9   0   2  107.78    2.74
   9   0   2  108.38    2.73
   9   0   3   -0.14    0.41
   9   0   4   72.12    2.21
  -9   0  -4   68.82    1.20
   9   0   5   -0.27    0.44
  -9   0  -5    0.41    0.19
   9   0   6  366.15    6.52
  -9   0  -6  363.66    5.25
   9   0   6  368.41    5.01
   9   0   7    1.84    0.66
  -9   0  -7    0.24    0.26
   9   0   7    0.71    0.27
   9   0   8   46.65    1.96
  -9   0  -8   44.94    1.37
   9   0   8   44.50    1.24
   9   0   9    0.40    0.53
   9   0   9    0.12    0.30
   9   0  10    6.71    0.88
   9   0  10    7.18    0.62
   9   0  11   -0.92    0.60
  -9  -1  14    0.01    0.54
  -9   1  14    1.41    0.65
  -9   1  13   -0.68    0.59
  -9  -1  13   -0.91    0.56
  -9   1  12    2.94    0.66
  -9  -1  12    2.94    0.66
  -9   1  11   12.56    1.01
  -9  -1  11   11.98    0.99
  -9   1  10    3.00    0.59
  -9  -1  10    1.58    0.49
  -9   1   9   13.48    0.97
  -9  -1   9   14.35    0.94
   9  -1  -8   11.29    0.80
   9   1  -8   11.50    0.77
  -9   1   8   12.04    0.84
  -9  -1   8   12.62    0.85
   9  -1  -7   17.39    0.90
   9   1  -7   16.63    0.84
  -9   1   7   18.43    0.94
  -9  -1   7   18.72    0.94
   9  -1  -6   -0.14    0.30
  -9  -1   6   -0.37    0.34
   9   1  -6   -0.32    0.30
  -9   1   6    0.27    0.30
   9   1  -5  102.40    2.06
  -9   1   5  107.88    2.18
  -9  -1   5  109.17    2.21
   9  -1  -4   10.09    0.48
   9   1  -4    9.89    0.49
  -9   1   4   10.97    0.55
  -9  -1   4   11.13    0.57
   9   1  -3   31.23    1.39
   9  -1  -3   31.38    1.36
   9   1  -3   30.82    0.76
   9  -1  -3   31.32    0.77
  -9   1   3   32.31    0.87
  -9  -1   3   34.45    0.89
   9  -1  -2   21.19    1.11
   9   1  -2   20.96    1.14
   9  -1  -2   19.91    0.45
   9  -1  -2   19.81    0.44
   9   1  -2   19.48    0.43
  -9   1   2   21.85    0.57
  -9  -1   2   23.90    0.61
   9  -1  -1  134.58    3.02
   9   1  -1  135.47    3.04
   9  -1  -1  136.19    3.00
   9   1   0    0.77    0.39
   9  -1   0    1.14    0.44
   9   1   0    0.77    0.41
   9  -1   0    0.71    0.43
   9   1   1  129.61    3.00
   9  -1   1  125.91    2.98
   9   1   1  129.45    3.02
   9  -1   1  128.53    2.97
   9   1   2    1.90    0.51
   9  -1   2    2.62    0.55
   9   1   2    2.61    0.56
   9  -1   2    2.25    0.52
   9   1   3    6.63    0.73
   9  -1   3    5.17    0.64
   9   1   4   26.64    1.33
   9  -1   4   27.54    1.33
  -9   1  -4   27.61    0.67
  -9  -1  -4   26.27    0.63
   9   1   5    0.08    0.44
   9  -1   5    0.30    0.42
  -9   1  -5   -0.17    0.19
  -9  -1  -5    0.14    0.17
   9  -1   5    0.01    0.13
   9   1   6   94.27    2.75
   9  -1   6   96.97    2.74
  -9  -1  -6   94.38    1.86
  -9   1  -6   92.74    1.87
   9  -1   6   96.67    1.66
   9   1   6   91.40    1.69
   9   1   7   42.83    1.84
   9  -1   7   42.56    1.82
  -9  -1  -7   41.31    1.21
  -9   1  -7   41.20    1.21
   9  -1   7   41.68    1.08
   9   1   7   44.98    1.14
   9   1   8    3.42    0.71
   9  -1   8    3.15    0.68
  -9   1  -8    1.19    0.34
   9   1   8    2.39    0.38
   9  -1   8    0.91    0.29
   9   1   9   17.61    1.27
   9  -1   9   17.88    1.27
   9   1   9   18.22    0.86
   9  -1   9   18.27    0.85
   9  -1  10    0.36    0.55
   9   1  10    0.02    0.52
   9  -1  10    0.17    0.35
   9   1  10    0.10    0.34
   9  -1  11    0.48    0.51
   9   1  11    0.12    0.56
   9   1  12    1.48    0.68
  -9  -2  14    0.92    0.60
  -9   2  14    1.02    0.58
  -9  -2  13    1.94    0.63
  -9   2  13    1.70    0.61
  -9  -2  12    4.21    0.75
  -9   2  12    4.84    0.77
  -9  -2  11   -0.20    0.48
  -9   2  11    0.17    0.51
  -9  -2  10   49.99    1.85
  -9   2  10   50.94    1.85
  -9  -2   9   39.08    1.57
  -9   2   9   42.89    1.62
   9   2  -8   52.63    1.65
  -9  -2   8   51.29    1.68
  -9   2   8   49.95    1.67
   9  -2  -7    1.33    0.36
  -9  -2   7    0.79    0.37
   9   2  -7    0.91    0.32
  -9   2   7    0.85    0.37
   9  -2  -6   13.22    0.74
   9   2  -6   12.58    0.69
  -9   2   6   12.58    0.73
  -9  -2   6   12.93    0.75
   9  -2  -5   -0.05    0.25
  -9  -2   5   -0.18    0.28
   9   2  -5   -0.04    0.24
  -9   2   5    0.04    0.30
   9  -2  -4   34.12    1.42
   9  -2  -4   35.72    1.03
   9   2  -4   33.05    0.94
  -9  -2   4   35.23    1.04
  -9   2   4   34.46    1.02
   9  -2  -3    1.27    0.26
   9  -2  -3    1.32    0.47
   9   2  -3    0.42    0.43
  -9  -2   3    0.59    0.22
   9   2  -3    0.40    0.18
  -9   2   3    0.86    0.23
   9  -2  -2   33.38    1.37
   9   2  -2   31.74    1.41
   9   2  -2   30.64    0.68
   9  -2  -2   30.41    0.69
  -9  -2   2   34.01    0.81
  -9   2   2   32.67    0.77
   9   2  -1    5.57    0.66
   9  -2  -1    5.59    0.64
   9  -2  -1    5.22    0.62
  -9  -2   1    5.55    0.26
   9   2   0  126.65    2.95
   9  -2   0  125.14    2.96
   9   2   0  125.59    2.98
   9  -2   0  126.60    2.91
   9   2   1    5.28    0.64
  -9   2  -1    5.72    0.65
   9  -2   1    5.13    0.65
   9   2   1    5.18    0.65
   9  -2   1    5.16    0.61
   9   2   2  111.03    2.77
   9  -2   2  113.84    2.84
   9   2   2  116.19    2.86
   9  -2   2  114.65    2.78
   9   2   3   26.72    1.27
   9   2   3   28.81    1.37
   9  -2   3   28.31    1.32
   9  -2   4   11.20    0.88
   9   2   4   10.58    0.87
  -9  -2  -4   10.55    0.40
  -9   2  -4   11.92    0.45
  -9  -2  -4   12.73    0.44
   9   2   5    0.07    0.43
   9  -2   5    0.65    0.44
  -9  -2  -5    0.57    0.19
  -9   2  -5    0.32    0.20
   9  -2   5    0.52    0.14
   9   2   6    0.91    0.49
   9  -2   6    0.32    0.44
  -9   2  -6   -1.44    0.36
  -9  -2  -6   -1.44    0.33
   9  -2   6   -0.10    0.21
   9   2   6   -1.91    0.41
   9  -2   7    6.21    0.81
   9   2   7    6.93    0.83
  -9   2  -7    3.98    0.42
  -9  -2  -7    3.85    0.41
   9   2   7    4.85    0.43
   9  -2   7    4.31    0.39
   9   2   8   37.98    1.80
   9  -2   8   37.41    1.76
  -9  -2  -8   35.51    1.22
  -9   2  -8   35.99    1.24
   9  -2   8   36.52    1.12
   9   2   8   39.72    1.21
   9  -2   9    0.51    0.56
   9   2   9    1.00    0.57
   9   2   9    0.63    0.34
   9  -2   9   -0.68    0.36
   9  -2  10    0.98    0.54
   9   2  10    1.38    0.59
   9  -2  10    1.74    0.40
   9   2  10    1.31    0.39
   9   2  11   -0.87    0.59
   9  -2  11    0.09    0.54
   9   2  12    1.47    0.68
  -9   3  14   -0.52    0.59
  -9  -3  14   -0.93    0.61
  -9  -3  13    9.86    1.03
  -9   3  13    8.39    0.94
  -9  -3  12    0.33    0.53
  -9   3  12    0.63    0.50
  -9  -3  11   16.46    1.15
  -9   3  11   14.47    1.10
  -9  -3  10    0.44    0.46
  -9   3  10    0.46    0.46
  -9   3   9  131.93    3.09
  -9  -3   9  130.10    3.09
   9   3  -8   28.59    1.21
  -9  -3   8   28.82    1.25
  -9   3   8   28.54    1.26
   9  -3  -7    2.26    0.44
  -9  -3   7    1.78    0.43
   9   3  -7    2.65    0.43
  -9   3   7    2.17    0.43
   9  -3  -6    0.49    0.30
  -9  -3   6    0.82    0.35
   9   3  -6    0.59    0.27
  -9   3   6    0.71    0.34
  -9  -3   5   11.54    0.66
   9  -3  -5   11.45    0.65
   9   3  -5   11.36    0.61
  -9   3   5   11.65    0.66
   9  -3  -4   15.38    0.96
  -9  -3   4   14.35    0.69
   9  -3  -4   15.50    0.68
   9   3  -4   14.44    0.63
  -9   3   4   14.75    0.69
  -9  -3   3   64.95    1.42
   9   3  -3   62.66    2.05
   9  -3  -3   63.40    1.36
   9  -3  -3   60.52    1.91
   9   3  -3   63.91    1.32
   9  -3  -3   63.83    1.34
  -9   3   3   62.79    1.38
   9  -3  -2    9.44    0.40
   9  -3  -2    8.54    0.71
  -9  -3   2   10.30    0.47
   9   3  -2   10.00    0.84
   9   3  -2    8.94    0.40
   9  -3  -2    9.25    0.42
  -9   3   2   10.71    0.45
   9   3  -1   13.13    0.92
   9  -3  -1   12.53    0.89
  -9  -3   1   12.88    0.45
   9  -3  -1   11.33    0.35
   9  -3  -1   12.50    0.83
   9  -3  -1   13.14    0.34
   9   3   0    0.72    0.44
   9  -3   0    0.88    0.38
   9  -3   0    1.22    0.47
   9   3   0    0.43    0.38
  -9  -3   0    0.87    0.14
  -9  -3   0    1.11    0.16
   9   3   1  116.00    2.85
   9  -3   1  114.82    2.75
   9   3   1  112.13    2.77
  -9   3  -1  114.76    2.84
   9  -3   1  117.03    2.84
   9   3   2   24.99    1.27
   9  -3   2   25.10    1.23
   9   3   2   23.82    1.20
   9  -3   2   24.77    1.24
   9   3   3    0.70    0.37
  -9  -3  -3    0.91    0.13
   9   3   3    1.31    0.46
   9  -3   3    0.92    0.41
  -9  -3  -3    0.77    0.14
  -9   3  -3    0.89    0.16
  -9  -3  -4    1.24    0.17
   9   3   4    1.27    0.40
   9  -3   4    1.26    0.44
  -9   3  -4    1.30    0.20
  -9  -3  -4    1.73    0.22
  -9  -3  -5   11.58    0.47
   9   3   5   11.45    0.92
   9  -3   5   10.02    0.88
  -9   3  -5   12.16    0.57
   9  -3   5   11.35    0.41
  -9  -3  -6    2.95    0.32
   9   3   6    2.34    0.57
   9  -3   6    2.33    0.55
  -9   3  -6    3.82    0.40
   9  -3   6    2.66    0.27
  -9  -3  -7   53.80    1.35
   9  -3   7   54.64    2.08
   9   3   7   55.97    2.12
  -9   3  -7   53.90    1.48
   9   3   7   55.44    1.41
   9  -3   7   55.63    1.32
   9   3   8    7.67    0.92
   9  -3   8    7.86    0.86
  -9   3  -8    6.27    0.57
   9   3   8    6.79    0.56
   9  -3   8    6.92    0.53
   9   3   9   13.70    1.15
   9  -3   9   13.44    1.13
   9   3   9   14.40    0.80
   9  -3   9   14.56    0.77
   9  -3  10    0.08    0.54
   9   3  10   -0.93    0.67
   9   3  10    0.67    0.38
   9   3  11    0.08    0.55
   9  -3  11   -0.07    0.56
   9   3  12    1.63    0.72
  -9  -4  14    1.27    0.60
  -9   4  14   -0.29    0.60
  -9  -4  13    5.29    0.80
  -9   4  13    4.88    0.79
  -9  -4  12    6.33    0.82
  -9   4  12    7.34    0.87
  -9  -4  11    2.43    0.58
  -9   4  11    3.86    0.70
  -9  -4  10   72.31    2.27
  -9   4  10   71.17    2.28
  -9  -4   9    6.87    0.75
  -9   4   9    5.34    0.69
  -9  -4   8    1.36    0.44
   9   4  -8    1.08    0.36
  -9   4   8    0.44    0.39
  -9  -4   7    1.80    0.40
   9  -4  -7    2.87    0.45
   9   4  -7    2.38    0.43
  -9   4   7    2.53    0.45
  -9  -4   6   37.02    1.31
   9  -4  -6   38.59    1.29
   9   4  -6   38.93    1.27
  -9   4   6   36.03    1.29
   9  -4  -5   45.72    1.33
  -9  -4   5   45.41    1.37
   9   4  -5   43.46    1.27
  -9   4   5   43.86    1.33
  -9  -4   4   66.54    1.62
   9  -4  -4   66.66    2.01
   9  -4  -4   65.78    1.54
   9   4  -4   64.55    1.50
  -9   4   4   65.98    1.57
   9  -4  -3   12.20    0.85
   9  -4  -3   10.78    0.52
   9   4  -3   12.01    0.92
  -9  -4   3   13.14    0.62
   9  -4  -3   11.72    0.56
   9   4  -3   12.03    0.55
  -9   4   3   11.94    0.58
   9   4  -2    6.06    0.67
   9  -4  -2    6.74    0.37
  -9  -4   2    6.23    0.41
   9  -4  -2    6.19    0.66
   9  -4  -2    6.53    0.64
   9  -4  -2    5.84    0.39
   9   4  -2    5.67    0.36
  -9  -4   1    2.42    0.25
   9  -4  -1    2.85    0.53
   9   4  -1    2.17    0.49
   9  -4  -1    2.30    0.43
   9  -4  -1    2.70    0.24
   9  -4  -1    3.01    0.24
   9   4   0   36.10    1.51
   9   4   0   36.12    1.45
   9  -4   0   35.69    1.45
   9  -4   0   37.86    1.42
   9  -4   0   34.44    0.71
   9  -4   0   36.89    0.66
  -9  -4   0   36.13    0.84
   9   4   1    1.39    0.45
  -9   4  -1    1.23    0.40
   9  -4   1    1.48    0.49
   9   4   1    1.55    0.48
   9  -4   1    1.54    0.43
  -9  -4  -1    1.19    0.14
  -9  -4  -1    0.86    0.16
   9   4   2   47.89    1.70
   9  -4   2   52.95    1.84
   9   4   2   50.40    1.80
   9  -4   2   50.95    1.73
  -9  -4  -2   52.17    0.95
  -9  -4  -2   47.64    0.93
   9   4   3   -0.23    0.41
  -9  -4  -3    0.27    0.16
   9   4   3    0.38    0.39
   9  -4   3    0.07    0.39
  -9  -4  -3   -0.26    0.20
  -9   4  -3    0.20    0.16
  -9  -4  -4    0.90    0.19
   9   4   4    0.65    0.43
   9  -4   4    0.92    0.44
  -9   4  -4    0.90    0.19
   9  -4   4    0.78    0.16
  -9  -4  -4    1.20    0.23
  -9  -4  -5    1.75    0.26
   9   4   5    0.73    0.42
   9  -4   5    1.33    0.45
  -9   4  -5    1.05    0.26
  -9  -4  -5    1.15    0.26
   9  -4   5    1.63    0.23
  -9  -4  -6    5.61    0.42
   9   4   6    6.23    0.76
   9  -4   6    5.56    0.71
  -9   4  -6    6.28    0.49
   9  -4   6    6.29    0.41
  -9  -4  -7    0.89    0.30
   9  -4   7    0.54    0.50
   9   4   7    0.36    0.48
  -9   4  -7    1.51    0.36
   9  -4   7    0.43    0.28
   9   4   8   38.32    1.82
   9  -4   8   39.65    1.82
   9  -4   8   42.99    1.25
   9   4   8   41.77    1.33
   9   4   9    1.61    0.58
   9  -4   9    0.71    0.54
   9   4   9    2.20    0.45
   9  -4   9    0.00    0.33
   9  -4  10    1.79    0.64
   9   4  10    1.10    0.58
   9   4  10    1.66    0.44
   9   4  11   -1.14    0.63
   9  -4  11    0.01    0.52
   9   4  12    3.39    0.76
  -9  -5  14   -0.37    0.61
  -9   5  14   -0.95    0.67
  -9  -5  13   -0.19    0.55
  -9   5  13   -1.14    0.66
  -9  -5  12   -0.19    0.52
  -9   5  12   -0.46    0.59
  -9   5  11   24.21    1.39
  -9  -5  11   25.00    1.39
  -9  -5  10    0.45    0.54
  -9   5  10   -0.58    0.53
  -9  -5   9   48.15    1.78
  -9   5   9   46.77    1.76
  -9  -5   8    4.29    0.62
  -9   5   8    3.99    0.59
   9  -5  -7    2.10    0.41
  -9  -5   7    1.68    0.41
   9   5  -7    2.10    0.44
  -9   5   7    2.27    0.45
  -9  -5   6   18.87    0.95
   9  -5  -6   18.57    0.90
   9   5  -6   18.59    0.89
  -9   5   6   19.02    0.95
   9  -5  -5  151.43    2.86
   9  -5  -5  149.67    3.28
  -9  -5   5  148.42    2.92
   9   5  -5  148.03    2.82
  -9   5   5  148.74    2.90
  -9  -5   4   31.72    1.10
   9  -5  -4   31.79    1.33
   9   5  -4   32.65    1.05
   9  -5  -4   33.98    1.08
  -9   5   4   33.51    1.10
   9  -5  -3   43.40    1.55
   9   5  -3   43.94    1.73
  -9  -5   3   43.41    1.23
   9   5  -3   42.63    1.17
   9  -5  -3   45.38    1.21
   9  -5  -3   45.72    1.18
  -9   5   3   45.19    1.23
  -9  -5   2    4.37    0.37
   9   5  -2    4.69    0.65
   9  -5  -2    4.25    0.58
   9  -5  -2    4.53    0.58
   9  -5  -2    4.23    0.40
   9  -5  -2    4.33    0.34
   9   5  -2    4.19    0.37
   9   5  -1   19.05    1.12
   9  -5  -1   20.86    1.12
   9  -5  -1   20.10    1.03
  -9  -5   1   20.87    0.64
   9  -5  -1   20.66    0.68
   9  -5  -1   21.30    0.64
   9  -5   0   -0.05    0.43
   9   5   0    0.51    0.39
   9   5   0    0.28    0.38
   9  -5   0    0.67    0.37
   9  -5   0    0.05    0.16
  -9  -5   0    0.65    0.18
   9  -5   0    0.69    0.17
  -9  -5   0    0.25    0.19
   9   5   1   29.31    1.29
  -9   5  -1   27.64    1.29
   9  -5   1   27.59    1.32
   9   5   1   26.90    1.32
   9  -5   1   28.49    1.25
   9  -5   1   28.50    0.74
  -9  -5  -1   29.38    0.73
  -9  -5  -1   27.54    0.76
   9  -5   1   28.27    0.63
   9   5   2   40.57    1.55
   9  -5   2   41.10    0.79
   9   5   2   42.13    1.67
   9  -5   2   43.88    1.59
  -9  -5  -2   45.03    0.99
   9  -5   2   41.64    0.80
  -9  -5  -2   42.19    0.97
   9  -5   3   26.84    0.65
   9   5   3   26.36    1.25
   9  -5   3   28.36    1.29
   9   5   3   26.93    1.35
  -9   5  -3   28.75    0.86
  -9  -5  -3   26.80    0.81
  -9  -5  -3   29.58    0.79
   9  -5   3   29.30    0.68
  -9  -5  -4    2.74    0.29
   9  -5   4    2.86    0.26
   9   5   4    2.90    0.54
   9  -5   4    2.32    0.52
  -9   5  -4    2.73    0.34
  -9  -5  -4    2.98    0.33
  -9  -5  -5    3.79    0.35
   9  -5   5    3.34    0.32
   9   5   5    2.75    0.56
   9  -5   5    4.24    0.64
  -9   5  -5    3.78    0.39
  -9  -5  -5    3.93    0.38
   9  -5   6    0.57    0.25
  -9  -5  -6    0.67    0.27
   9  -5   6    0.89    0.48
   9   5   6    0.36    0.43
  -9   5  -6    0.52    0.26
  -9  -5  -6    0.74    0.29
  -9  -5  -7   55.39    1.48
   9   5   7   52.29    2.07
   9  -5   7   55.08    2.06
  -9   5  -7   56.25    1.59
   9  -5   7   57.08    1.41
   9   5   8    2.46    0.66
   9  -5   8    1.44    0.54
   9  -5   8    2.10    0.39
   9   5   8    2.25    0.44
   9   5   9   16.55    1.24
   9  -5   9   16.68    1.27
   9  -5   9   17.81    0.88
   9   5   9   16.58    0.94
   9  -5  10    0.79    0.59
   9   5  10   -0.80    0.63
   9   5  10   -0.75    0.41
   9  -5  11    1.42    0.59
   9   5  11   -0.11    0.57
   9   5  12    0.30    0.56
  -9   6  14    8.65    1.03
  -9  -6  13    1.64    0.66
  -9   6  13    0.75    0.57
  -9  -6  12   13.63    1.13
  -9   6  12   14.10    1.15
  -9  -6  11   -0.33    0.53
  -9   6  11    0.28    0.55
  -9  -6  10   62.41    2.15
  -9   6  10   60.03    2.13
  -9  -6   9   14.17    1.02
  -9   6   9   13.01    0.97
  -9  -6   8   20.13    1.12
  -9   6   8   18.51    1.07
   9  -6  -7    5.43    0.57
  -9  -6   7    5.50    0.62
   9   6  -7    5.16    0.57
  -9   6   7    5.51    0.62
  -9  -6   6    0.97    0.37
   9  -6  -6    0.93    0.34
   9   6  -6    1.06    0.34
  -9   6   6    0.54    0.34
  -9  -6   5    3.38    0.48
   9  -6  -5    4.29    0.59
   9  -6  -5    4.31    0.47
   9   6  -5    3.93    0.48
  -9   6   5    3.64    0.50
  -9  -6   4  137.40    2.71
   9  -6  -4  132.21    2.99
   9   6  -4  134.31    2.63
   9  -6  -4  134.32    2.64
   9  -6  -4  141.67    2.63
  -9   6   4  135.68    2.69
  -9  -6   3    2.80    0.37
   9   6  -3    2.92    0.61
   9  -6  -3    2.77    0.34
   9  -6  -3    2.71    0.49
   9  -6  -3    3.09    0.48
   9   6  -3    2.57    0.36
   9  -6  -3    2.95    0.39
   9   6  -2    2.22    0.54
   9  -6  -2    3.12    0.54
   9  -6  -2    2.44    0.42
  -9  -6   2    2.63    0.30
   9  -6  -2    3.32    0.41
   9  -6  -2    2.87    0.32
   9   6  -2    2.98    0.37
   9  -6  -1    1.24    0.41
   9   6  -1    1.35    0.45
   9  -6  -1    1.18    0.36
   9  -6  -1    1.62    0.27
  -9  -6   1    1.44    0.25
   9  -6  -1    1.60    0.25
   9   6   0   42.45    1.69
   9   6   0   41.29    1.55
   9  -6   0   44.60    1.66
   9  -6   0   43.32    1.53
   9  -6   0   44.84    1.08
  -9  -6   0   46.40    1.08
  -9  -6   0   45.01    1.18
   9  -6   0   45.61    1.02
   9   6   1    5.86    0.64
  -9   6  -1    5.99    0.65
   9  -6   1    6.12    0.72
   9  -6   1    6.50    0.67
   9   6   1    5.50    0.68
  -9  -6  -1    6.26    0.39
   9  -6   1    6.06    0.40
   9  -6   1    6.00    0.35
  -9  -6  -1    5.65    0.40
   9   6   2   45.43    1.63
   9   6   2   46.50    1.76
   9  -6   2   50.28    1.69
   9  -6   2   48.81    1.15
  -9  -6  -2   50.13    1.19
   9  -6   2   48.63    1.03
  -9  -6  -2   46.78    1.15
   9  -6   3    3.14    0.29
   9   6   3    3.94    0.54
   9   6   3    2.20    0.51
   9  -6   3    3.35    0.56
  -9  -6  -3    3.48    0.36
   9  -6   3    3.43    0.30
  -9   6  -3    3.08    0.35
  -9  -6  -3    2.85    0.32
   9  -6   4    0.54    0.23
   9   6   4    0.14    0.41
   9  -6   4    0.29    0.41
  -9   6  -4    0.18    0.25
  -9  -6  -4   -0.09    0.27
  -9  -6  -4    0.37    0.21
  -9  -6  -5    3.68    0.38
   9  -6   5    2.94    0.34
   9   6   5    3.14    0.57
   9  -6   5    3.28    0.57
  -9   6  -5    3.57    0.40
  -9  -6  -5    4.13    0.41
  -9  -6  -6    3.46    0.38
   9  -6   6    2.98    0.36
   9  -6   6    3.69    0.64
   9   6   6    3.43    0.63
  -9   6  -6    3.46    0.43
  -9  -6  -6    3.73    0.44
   9  -6   7    0.65    0.31
   9  -6   7    1.62    0.59
   9   6   7    1.58    0.58
  -9   6  -7    0.99    0.39
   9   6   8   19.70    1.32
   9  -6   8   18.65    1.29
   9  -6   8   21.81    0.93
   9  -6   9    0.98    0.54
   9   6   9    0.39    0.54
   9  -6   9   -0.15    0.33
   9   6   9    0.50    0.40
   9   6  10    0.14    0.51
   9  -6  10    1.81    0.61
   9   6  10    1.74    0.47
   9   6  11   -0.09    0.55
   9  -6  11    0.85    0.56
  -9  -7  13   -0.70    0.57
  -9   7  13    0.93    0.56
  -9  -7  12    1.01    0.57
  -9   7  12    2.58    0.72
  -9  -7  11    3.62    0.67
  -9   7  11    4.81    0.78
  -9  -7  10    2.24    0.62
  -9   7  10    1.31    0.60
  -9  -7   9    9.02    0.85
  -9   7   9    9.78    0.92
  -9  -7   8    0.77    0.43
  -9   7   8    1.18    0.48
  -9  -7   7   -0.44    0.43
   9   7  -7    0.41    0.33
  -9   7   7   -0.09    0.42
  -9  -7   6    4.98    0.58
   9  -7  -6    4.22    0.52
   9  -7  -6    4.17    0.50
   9   7  -6    4.67    0.55
  -9   7   6    4.70    0.59
   9  -7  -5   75.83    2.13
  -9  -7   5   76.62    2.01
   9   7  -5   76.28    1.97
   9  -7  -5   75.37    1.91
   9  -7  -5   76.97    1.99
  -9   7   5   79.17    2.04
   9  -7  -4   -0.05    0.33
  -9  -7   4   -0.06    0.35
   9   7  -4    0.10    0.28
   9  -7  -4    0.67    0.33
  -9   7   4    0.05    0.31
   9  -7  -4    0.23    0.25
   9  -7  -3   29.45    1.33
   9   7  -3   27.96    1.39
   9  -7  -3   27.74    1.20
   9  -7  -3   26.98    1.06
  -9  -7   3   30.48    1.02
   9   7  -3   28.17    1.08
   9  -7  -3   29.26    0.99
   9  -7  -2   12.46    0.79
   9  -7  -2   10.57    0.83
   9   7  -2   12.06    0.93
   9  -7  -2   11.35    0.66
  -9  -7   2   11.97    0.62
   9   7  -2   11.92    0.66
   9  -7  -2   12.74    0.61
   9   7  -1   30.83    1.42
   9  -7  -1   32.00    1.38
   9  -7  -1   32.38    1.29
  -9  -7   1   33.29    0.99
   9  -7  -1   32.47    1.03
   9   7  -1   31.06    1.00
   9  -7  -1   32.63    0.95
   9   7   0   13.56    0.98
   9   7   0   14.32    0.91
   9  -7   0   15.10    0.99
   9  -7   0   13.86    0.85
   9  -7   0   12.01    0.60
  -9  -7   0   13.63    0.63
   9  -7   0   14.06    0.59
  -9  -7   0   12.78    0.67
   9   7   1   36.62    1.44
  -9   7  -1   39.19    1.52
   9  -7   1   37.89    1.56
   9   7   1   37.06    1.55
   9  -7   1   38.76    1.45
  -9  -7  -1   37.64    1.07
   9  -7   1   37.32    1.07
   9  -7   1   37.48    0.98
  -9  -7  -1   38.28    1.12
   9   7   2   16.18    0.97
   9   7   2   16.76    1.09
   9  -7   2   17.34    0.99
  -9  -7  -2   17.66    0.74
   9  -7   2   19.56    0.75
  -9  -7  -2   17.58    0.72
   9  -7   2   17.79    0.65
   9   7   3   50.58    1.71
   9  -7   3   49.83    1.73
   9   7   3   47.72    1.82
  -9  -7  -3   48.93    1.34
   9  -7   3   52.48    1.33
  -9   7  -3   50.71    1.37
  -9  -7  -3   51.55    1.31
   9  -7   3   48.99    1.21
   9  -7   4    5.75    0.43
   9   7   4    5.17    0.68
   9  -7   4    5.78    0.67
  -9  -7  -4    4.92    0.48
  -9  -7  -4    5.67    0.45
  -9   7  -4    5.80    0.54
   9  -7   5    5.66    0.45
   9  -7   5    5.45    0.68
   9   7   5    5.56    0.69
  -9   7  -5    5.63    0.55
  -9  -7  -5    5.50    0.47
  -9  -7  -5    6.05    0.54
  -9  -7  -6    3.39    0.43
   9  -7   6    3.71    0.42
   9  -7   6    3.89    0.65
   9   7   6    4.05    0.66
  -9   7  -6    3.66    0.48
  -9  -7  -6    3.79    0.48
   9  -7   7   35.82    1.18
   9   7   7   31.76    1.62
   9  -7   7   34.86    1.63
  -9   7  -7   34.08    1.34
  -9  -7  -7   37.31    1.33
   9   7   8   16.60    1.22
   9  -7   8   18.07    1.27
   9  -7   8   18.32    0.90
   9   7   9    9.79    0.99
   9  -7   9    8.39    0.98
   9  -7   9   10.76    0.75
   9   7  10    0.28    0.58
   9  -7  10   -0.26    0.58
   9   7  11    0.09    0.54
   9  -7  11    0.28    0.53
  -9  -8  13    5.19    0.88
  -9   8  13    5.30    0.90
  -9  -8  12   -0.74    0.62
  -9   8  12   -0.09    0.54
  -9  -8  11    0.15    0.53
  -9   8  11   -0.52    0.58
  -9  -8  10   42.51    1.82
  -9   8  10   40.00    1.78
  -9  -8   9   14.20    1.05
  -9   8   9   13.83    1.10
  -9  -8   8    0.59    0.43
  -9   8   8    0.52    0.45
  -9  -8   7   21.81    1.15
  -9   8   7   21.57    1.18
   9  -8  -6   49.00    1.68
  -9  -8   6   48.99    1.67
   9   8  -6   48.27    1.63
   9  -8  -6   49.51    1.59
  -9   8   6   49.86    1.69
  -9  -8   5    0.25    0.35
   9  -8  -5    0.93    0.37
   9   8  -5    0.32    0.33
   9  -8  -5    0.96    0.36
   9  -8  -5    0.61    0.34
  -9   8   5    0.43    0.42
   9  -8  -4   34.10    1.44
   9  -8  -4   31.67    1.28
   9   8  -4   29.49    1.18
   9  -8  -4   32.89    1.22
  -9  -8   4   33.17    1.17
   9  -8  -4   33.12    1.16
   9   8  -3    0.31    0.44
   9  -8  -3   -0.74    0.42
   9  -8  -3   -0.69    0.38
   9  -8  -3   -0.30    0.37
   9   8  -3    0.10    0.33
  -9  -8   3   -0.21    0.27
   9  -8  -3   -0.32    0.29
   9  -8  -2    6.27    0.66
   9   8  -2    6.32    0.74
   9  -8  -2    5.67    0.56
   9  -8  -2    5.30    0.47
  -9  -8   2    6.09    0.49
   9   8  -2    5.70    0.51
   9  -8  -2    5.63    0.45
   9  -8  -1    0.13    0.36
   9   8  -1    0.81    0.49
   9  -8  -1    0.28    0.33
  -9  -8   1    0.15    0.24
   9  -8  -1    0.08    0.27
   9  -8  -1    0.00    0.22
   9   8  -1   -0.01    0.26
   9   8   0   81.66    2.42
   9   8   0   81.68    2.24
   9  -8   0   82.40    2.37
   9  -8   0   82.46    2.17
   9  -8   0   86.61    1.88
  -9  -8   0   84.57    1.84
   9  -8   0   81.57    1.74
  -9  -8   0   78.63    1.92
   9   8   1   47.40    1.64
  -9   8  -1   49.23    1.73
   9  -8   1   48.72    1.62
   9   8   1   46.68    1.78
  -9  -8  -1   48.35    1.32
   9  -8   1   48.32    1.33
   9  -8   1   46.44    1.22
  -9  -8  -1   46.03    1.35
   9   8   2    0.91    0.36
   9  -8   2    1.27    0.41
   9   8   2    1.13    0.43
  -9  -8  -2    0.75    0.29
   9  -8   2    2.10    0.36
   9  -8   2    1.43    0.31
  -9  -8  -2    0.74    0.27
   9   8   3    8.31    0.80
   9  -8   3    9.67    0.79
  -9  -8  -3    9.09    0.60
  -9   8  -3   10.80    0.67
   9  -8   3   10.08    0.61
  -9  -8  -3   10.28    0.61
   9  -8   3    9.04    0.55
   9  -8   4   13.97    0.99
   9   8   4   13.80    1.00
  -9   8  -4   13.82    0.81
   9  -8   4   13.78    0.73
  -9  -8  -4   15.16    0.82
  -9  -8  -4   15.03    0.75
   9  -8   5    1.51    0.33
   9  -8   5    2.45    0.53
   9   8   5    2.05    0.53
  -9   8  -5    1.91    0.42
  -9  -8  -5    1.80    0.40
  -9  -8  -5    1.52    0.35
   9  -8   6   17.04    0.81
   9   8   6   16.13    1.14
   9  -8   6   16.79    1.12
  -9  -8  -6   17.04    0.90
  -9   8  -6   16.64    0.94
  -9  -8  -6   16.94    0.85
   9   8   7   15.57    1.16
   9  -8   7   15.01    1.13
   9  -8   7   17.15    0.87
  -9  -8  -7   16.22    0.94
   9  -8   8   59.26    2.26
   9   8   8   54.95    2.20
   9  -8   8   64.57    1.77
  -9  -8  -8   62.18    1.93
   9   8   9    3.16    0.69
   9  -8   9    3.68    0.71
   9  -8  10    1.11    0.59
   9   8  10    0.26    0.55
   9   8  11    0.49    0.59
   9  -8  11    0.68    0.54
  -9   9  13   10.33    1.10
  -9  -9  12    7.31    0.94
  -9   9  12    7.34    0.94
  -9  -9  11    1.15    0.57
  -9   9  11    1.94    0.60
  -9  -9  10    4.14    0.76
  -9   9  10    4.05    0.72
  -9  -9   9   10.34    0.95
  -9   9   9   11.05    1.00
  -9  -9   8    2.76    0.55
  -9   9   8    3.14    0.61
   9  -9  -7   42.06    1.56
  -9  -9   7   40.69    1.63
  -9   9   7   40.78    1.63
   9  -9  -6    0.00    0.35
  -9  -9   6    0.91    0.46
   9  -9  -6   -0.16    0.45
  -9   9   6    0.47    0.41
   9  -9  -5   22.81    1.07
   9   9  -5   20.38    1.05
  -9  -9   5   23.10    1.06
   9  -9  -5   22.10    1.08
   9  -9  -5   23.20    1.06
  -9   9   5   23.30    1.15
   9  -9  -4    0.34    0.37
   9  -9  -4    0.55    0.34
  -9  -9   4    0.51    0.35
   9   9  -4    0.54    0.36
   9  -9  -4    1.05    0.40
   9  -9  -4    0.04    0.31
   9   9  -3    0.94    0.47
   9  -9  -3    1.26    0.38
   9  -9  -3    0.54    0.28
   9  -9  -3    0.51    0.32
  -9  -9   3    1.08    0.33
   9  -9  -3    1.18    0.30
   9   9  -3    0.86    0.32
   9  -9  -2    0.04    0.34
   9   9  -2    0.48    0.46
   9  -9  -2   -0.05    0.28
   9  -9  -2   -0.45    0.38
  -9  -9   2    0.29    0.28
   9  -9  -2   -0.05    0.26
   9   9  -2    0.16    0.30
   9   9  -1   28.24    1.39
   9  -9  -1   26.86    1.30
   9  -9  -1   27.85    1.16
   9  -9  -1   26.49    1.06
  -9  -9   1   26.90    1.04
   9  -9  -1   26.58    0.99
   9   9  -1   26.03    1.04
   9  -9   0    2.72    0.55
   9   9   0    2.02    0.48
   9  -9   0    3.60    0.53
   9   9   0    2.27    0.56
  -9  -9   0    1.81    0.37
   9  -9   0    3.69    0.49
   9  -9   0    1.95    0.36
  -9  -9   0    0.88    0.33
   9   9   1   92.94    2.37
   9   9   1   92.26    2.56
   9  -9   1   90.53    2.31
   9  -9   1   93.94    2.09
  -9  -9  -1   88.98    2.05
   9  -9   1   88.77    1.94
  -9  -9  -1   89.24    2.10
   9   9   2   44.76    1.56
   9  -9   2   43.78    1.58
   9   9   2   41.76    1.70
  -9  -9  -2   41.48    1.33
   9  -9   2   44.17    1.34
  -9  -9  -2   43.25    1.35
   9  -9   2   41.58    1.24
   9  -9   3   16.92    1.03
   9   9   3   16.13    1.07
   9  -9   3   17.07    0.84
  -9   9  -3   16.62    0.86
  -9  -9  -3   15.28    0.81
  -9  -9  -3   16.89    0.82
   9  -9   3   12.78    0.71
   9  -9   4    0.08    0.40
   9   9   4    0.14    0.41
   9  -9   4   -0.13    0.30
  -9  -9  -4   -0.21    0.32
  -9  -9  -4   -0.13    0.30
  -9   9  -4    0.19    0.35
   9  -9   5    0.18    0.29
   9  -9   5   -0.10    0.40
   9   9   5    0.27    0.48
  -9   9  -5   -0.16    0.35
  -9  -9  -5   -0.29    0.39
  -9  -9  -5   -0.09    0.42
   9  -9   6    0.11    0.44
   9   9   6   -0.07    0.45
   9  -9   6    0.01    0.33
  -9  -9  -6   -0.18    0.38
   9  -9   7   71.14    1.88
   9   9   7   68.63    2.39
   9  -9   7   68.68    2.36
  -9  -9  -7   68.19    2.01
   9   9   8    0.54    0.52
   9  -9   8    1.04    0.59
   9  -9   8    1.24    0.45
  -9  -9  -8    1.17    0.46
   9  -9   9    8.91    0.97
   9   9   9    6.76    0.99
  -9  -9  -9    8.97    0.84
   9  -9  10    1.90    0.66
   9   9  10    0.61    0.59
  -9  -9 -10    2.04    0.58
   9   9  11    0.88    0.62
  -9 -10  12   17.16    1.32
  -9  10  12   17.93    1.38
  -9 -10  11    2.85    0.67
  -9  10  11    2.55    0.72
  -9 -10  10   34.77    1.71
  -9  10  10   35.07    1.78
  -9 -10   9    0.14    0.52
  -9  10   9    0.05    0.55
  -9 -10   8    0.99    0.46
  -9  10   8    1.23    0.55
  -9 -10   7    8.33    0.85
   9 -10  -7    9.57    0.76
   9 -10  -7    9.56    0.84
  -9  10   7    8.65    0.85
  -9 -10   6    6.62    0.72
   9 -10  -6    7.52    0.67
   9 -10  -6    7.77    0.74
  -9  10   6    7.03    0.75
   9 -10  -5   15.99    1.04
   9 -10  -5   15.51    0.89
  -9 -10   5   15.54    0.94
   9 -10  -5   13.49    0.94
   9 -10  -4    8.34    0.67
   9 -10  -4    9.39    0.81
  -9 -10   4    9.26    0.71
   9  10  -4    9.88    0.80
   9 -10  -4   10.22    0.72
   9 -10  -4    8.95    0.76
   9 -10  -3   27.85    1.31
   9  10  -3   26.30    1.40
   9 -10  -3   24.81    1.08
   9  10  -3   25.83    1.19
  -9 -10   3   26.33    1.12
   9 -10  -3   27.27    1.24
   9 -10  -3   25.88    1.07
   9 -10  -2    6.62    0.68
   9  10  -2    6.58    0.76
   9 -10  -2    6.53    0.58
  -9 -10   2    6.81    0.58
   9 -10  -2    5.46    0.57
   9 -10  -2    5.44    0.49
   9  10  -2    6.51    0.59
   9  10  -1   10.13    0.87
   9 -10  -1   10.27    0.84
   9 -10  -1   11.23    0.76
   9 -10  -1    9.47    0.71
  -9 -10   1    9.95    0.70
   9 -10  -1    9.69    0.65
   9  10  -1   10.19    0.73
   9  10   0   80.46    2.20
   9  10   0   84.50    2.44
   9 -10   0   77.70    2.07
  -9 -10   0   81.44    2.02
   9 -10   0   84.01    2.06
   9 -10   0   79.23    1.92
  -9 -10   0   77.85    2.09
   9  10   1   22.60    1.08
   9 -10   1   22.35    1.09
   9  10   1   22.77    1.24
   9 -10   1   21.88    1.01
  -9 -10  -1   21.34    0.98
   9 -10   1   21.69    0.93
  -9 -10  -1   20.77    1.00
   9  10   2   32.32    1.31
   9 -10   2   33.88    1.37
   9  10   2   31.21    1.46
  -9 -10  -2   30.53    1.19
   9 -10   2   32.23    1.20
  -9 -10  -2   30.96    1.19
   9 -10   2   30.82    1.12
   9 -10   3   12.00    0.87
   9  10   3   12.05    0.98
   9 -10   3   12.10    0.78
  -9 -10  -3   11.29    0.76
  -9 -10  -3   10.99    0.74
  -9  10  -3   12.47    0.80
   9 -10   3    8.45    0.65
   9 -10   4    0.54    0.42
   9  10   4    1.47    0.47
  -9 -10  -4   -0.09    0.37
   9 -10   4    0.01    0.36
  -9 -10  -4    0.44    0.34
  -9  10  -4    0.14    0.34
   9  10   5   11.08    0.94
   9 -10   5   10.99    0.91
   9 -10   5   11.17    0.77
  -9 -10  -5    9.67    0.78
   9  10   6    3.18    0.61
   9 -10   6    4.74    0.70
   9 -10   6    3.94    0.51
  -9 -10  -6    3.33    0.54
   9 -10   7    2.60    0.63
   9  10   7    2.04    0.57
   9 -10   7    2.43    0.47
  -9 -10  -7    1.81    0.48
   9 -10   8   17.41    0.98
   9 -10   8   14.41    1.17
   9  10   8   16.38    1.20
  -9 -10  -8   14.29    1.00
   9 -10   9    2.68    0.69
   9  10   9    4.20    0.75
  -9 -10  -9    4.84    0.71
   9 -10  10    0.13    0.51
   9  10  10    0.00    0.54
  -9 -10 -10    0.85    0.52
   9  10  11   -0.20    0.56
  -9 -11  12    1.51    0.70
  -9  11  12    1.14    0.69
  -9 -11  11   14.69    1.23
  -9  11  11   15.56    1.30
  -9 -11  10   10.38    1.03
  -9  11  10    9.59    1.04
  -9 -11   9   -0.49    0.56
  -9  11   9   -0.18    0.52
   9 -11  -8   16.45    0.98
  -9 -11   8   14.43    1.13
   9 -11  -8   17.46    1.20
  -9  11   8   16.24    1.15
   9 -11  -7   11.80    0.83
  -9 -11   7   12.34    0.99
   9 -11  -7   12.21    0.96
  -9  11   7   13.37    1.06
   9 -11  -6   15.26    1.03
   9 -11  -6   14.95    0.88
   9 -11  -6   13.57    1.00
  -9 -11   6   13.58    0.96
   9 -11  -5   31.28    1.24
   9 -11  -5   31.96    1.45
  -9 -11   5   29.75    1.33
   9 -11  -5   31.57    1.45
   9 -11  -4   21.28    1.18
   9 -11  -4   22.60    1.04
   9 -11  -4   19.06    1.15
  -9 -11   4   22.04    1.10
   9 -11  -3   24.92    1.26
   9  11  -3   24.82    1.37
   9 -11  -3   23.69    1.05
   9 -11  -3   25.00    1.24
  -9 -11   3   26.75    1.19
   9  11  -3   24.98    1.21
   9 -11  -3   24.00    1.08
   9 -11  -2    1.78    0.42
   9  11  -2    1.81    0.53
   9 -11  -2    1.15    0.30
  -9 -11   2    1.58    0.43
   9 -11  -2    2.56    0.50
   9 -11  -2    2.40    0.39
   9  11  -2    2.17    0.47
   9  11  -1   52.86    1.93
   9 -11  -1   49.42    1.79
   9 -11  -1   49.86    1.57
   9 -11  -1   53.36    1.71
  -9 -11   1   52.70    1.65
   9 -11  -1   48.71    1.53
   9  11   0    4.93    0.61
   9 -11   0    4.28    0.53
   9  11   0    5.10    0.67
  -9 -11   0    3.79    0.50
   9 -11   0    5.33    0.60
   9 -11   0    4.82    0.51
  -9 -11   0    4.56    0.59
   9  11   1   27.11    1.18
   9 -11   1   27.27    1.19
   9  11   1   26.44    1.32
   9 -11   1   26.37    1.15
  -9 -11  -1   24.05    1.09
  -9 -11  -1   23.63    1.12
   9 -11   1   26.20    1.08
   9  11   2    5.42    0.57
   9 -11   2    5.13    0.60
   9  11   2    4.94    0.65
  -9 -11  -2    4.63    0.55
   9 -11   2    4.44    0.53
   9 -11   2    3.89    0.47
  -9 -11  -2    5.04    0.57
   9 -11   3   61.49    1.94
   9  11   3   60.15    2.07
   9 -11   3   65.52    1.86
  -9 -11  -3   59.81    1.82
  -9 -11  -3   59.88    1.81
  -9  11  -3   61.14    1.87
   9 -11   3   55.93    1.69
  -9 -11  -4    3.35    0.49
   9 -11   4    3.01    0.51
   9  11   4    3.28    0.59
   9 -11   4    3.54    0.55
   9 -11   5   15.37    0.93
  -9 -11  -5   13.66    0.95
   9  11   5   14.46    1.05
   9 -11   5   13.76    0.99
   9 -11   6    1.69    0.44
   9 -11   6    1.59    0.51
   9  11   6    2.08    0.56
   9 -11   6    1.50    0.46
  -9 -11  -6    0.74    0.43
   9 -11   7    7.37    0.86
   9  11   7    7.95    0.86
   9 -11   7    6.97    0.66
  -9 -11  -7    6.02    0.71
   9 -11   8    0.87    0.58
   9  11   8    0.10    0.48
  -9 -11  -8    0.05    0.47
   9  11   9    3.83    0.73
   9 -11   9    5.22    0.81
  -9 -11  -9    4.09    0.67
   9  11  10    2.28    0.66
   9 -11  10    1.89    0.69
   9  11  11   -0.11    0.53
  -9 -12  11    0.05    0.55
  -9  12  11    0.12    0.59
  -9 -12  10   25.12    1.56
  -9  12  10   29.81    1.68
  -9 -12   9   21.06    1.40
   9 -12  -9   22.57    1.43
  -9  12   9   20.59    1.43
  -9 -12   8    5.28    0.79
   9 -12  -8    6.30    0.63
   9 -12  -8    6.03    0.81
  -9  12   8    5.34    0.79
  -9 -12   7    0.18    0.47
   9 -12  -7    0.88    0.38
  -9 -12   7    0.59    0.46
   9 -12  -7    0.50    0.49
   9 -12  -6   20.76    1.00
   9 -12  -6   18.66    1.14
   9 -12  -6   17.54    1.17
  -9 -12   6   20.94    1.21
   9 -12  -5    0.50    0.39
   9 -12  -5    0.63    0.35
  -9 -12   5   -0.07    0.43
   9 -12  -5    0.82    0.47
   9 -12  -4   63.33    2.06
   9  12  -4   64.97    2.28
  -9 -12   4   67.64    2.06
   9 -12  -4   61.93    2.15
   9 -12  -4   65.36    1.79
   9 -12  -3    7.52    0.71
   9  12  -3    8.87    0.88
   9 -12  -3    7.24    0.76
  -9 -12   3    8.46    0.76
   9 -12  -3    7.61    0.60
   9  12  -2    0.22    0.44
   9 -12  -2   -0.82    0.48
   9 -12  -2   -0.47    0.37
  -9 -12   2    0.29    0.38
   9 -12  -2    0.26    0.39
   9 -12  -1    1.70    0.32
   9  12  -1    2.04    0.50
   9 -12  -1    2.77    0.53
  -9 -12   1    2.54    0.49
   9 -12  -1    2.16    0.38
   9  12   0   18.73    0.99
   9  12   0   17.22    1.09
   9 -12   0   18.87    0.96
  -9 -12   0   16.92    0.97
   9 -12   0   18.30    1.02
   9 -12   0   17.81    0.94
   9  12   1   20.87    1.02
   9 -12   1   22.78    1.08
   9  12   1   21.20    1.20
   9 -12   1   21.27    1.09
  -9 -12  -1   19.83    1.03
   9 -12   1   20.29    1.01
   9  12   2    5.40    0.56
   9 -12   2    6.72    0.68
   9  12   2    4.70    0.64
  -9 -12  -2    5.57    0.62
   9 -12   2    6.28    0.67
   9 -12   2    4.95    0.55
   9 -12   3    1.15    0.45
  -9 -12  -3    0.90    0.42
   9  12   3    0.56    0.41
   9 -12   3    1.03    0.45
  -9 -12  -4    1.27    0.42
   9 -12   4    1.66    0.46
   9  12   4    0.38    0.41
   9 -12   4    1.48    0.46
   9 -12   5    3.21    0.56
  -9 -12  -5    3.48    0.62
   9 -12   5    1.32    0.48
   9  12   5    0.93    0.41
  -9 -12  -6    9.92    0.89
   9 -12   6   13.79    0.96
   9 -12   6   13.27    1.04
   9  12   6   12.63    1.02
   9 -12   7   16.09    1.00
   9 -12   7   15.36    1.15
   9  12   7   15.76    1.15
  -9 -12  -7   15.93    1.14
   9  12   8    4.58    0.72
   9 -12   8    4.91    0.81
  -9 -12  -8    5.81    0.79
   9  12   9    3.80    0.75
   9 -12   9    2.31    0.64
  -9 -12  -9    1.51    0.57
   9  12  10    8.92    1.00
   9 -12  10    7.57    0.97
   9  12  11   -1.09    0.67
   9 -13 -11    8.90    1.11
  -9  13  11    8.74    1.05
  -9 -13  10    6.94    0.96
   9 -13 -10    8.04    1.01
  -9  13  10    7.87    1.03
  -9 -13   9   19.36    1.37
   9 -13  -9   21.31    1.45
  -9  13   9   20.11    1.47
  -9 -13   8    7.39    0.90
   9 -13  -8    8.49    0.93
   9 -13  -7    0.14    0.40
  -9 -13   7    0.53    0.50
   9 -13  -7   -0.25    0.52
   9 -13  -6   28.84    1.40
   9 -13  -6   28.67    1.14
  -9 -13   6   28.65    1.43
   9 -13  -6   28.11    1.51
   9 -13  -5   36.87    1.57
   9 -13  -5   34.23    1.70
  -9 -13   5   36.36    1.59
   9 -13  -5   38.09    1.30
   9 -13  -4   -0.42    0.43
   9  13  -4    0.78    0.51
   9 -13  -4    0.62    0.50
  -9 -13   4    0.79    0.50
   9 -13  -4    0.24    0.28
   9 -13  -3   76.95    2.32
   9  13  -3   78.32    2.50
   9 -13  -3   74.35    2.35
  -9 -13   3   81.96    2.34
   9 -13  -3   78.75    1.94
   9  13  -2   17.17    1.14
  -9 -13   2   16.49    1.04
   9 -13  -2   16.46    1.06
   9 -13  -2   16.43    0.83
   9  13  -1    0.34    0.34
   9 -13  -1   -0.19    0.39
  -9 -13   1   -0.02    0.41
   9 -13  -1   -0.12    0.31
   9  13  -1   -0.44    0.47
   9  13   0   10.96    0.75
   9  13   0   10.32    0.88
   9 -13   0    9.68    0.83
  -9 -13   0    9.40    0.77
   9 -13   0   10.94    0.75
   9  13   1    8.12    0.65
   9 -13   1    7.76    0.74
  -9 -13  -1    8.03    0.72
   9 -13   1    9.87    0.72
   9  13   1    8.50    0.80
  -9 -13  -2    7.16    0.71
   9 -13   2    8.01    0.75
   9 -13   2    7.84    0.71
   9  13   2    6.76    0.73
   9 -13   3    7.92    0.78
  -9 -13  -3    8.30    0.77
   9  13   3    8.45    0.80
   9 -13   3    8.35    0.75
  -9 -13  -4    0.61    0.39
   9 -13   4    0.58    0.42
   9 -13   4    0.72    0.40
   9  13   4    0.54    0.44
  -9 -13  -5    2.41    0.54
   9 -13   5    2.88    0.56
   9 -13   5    2.21    0.57
   9  13   5    2.67    0.58
  -9 -13  -6    0.02    0.46
   9 -13   6    1.32    0.49
   9  13   6    0.17    0.42
   9 -13   6    0.22    0.44
   9 -13   7   25.02    1.27
   9  13   7   27.04    1.47
   9 -13   7   24.20    1.43
  -9 -13  -7   22.31    1.37
   9  13   8    6.92    0.84
   9 -13   8    7.38    0.92
  -9 -13  -8    5.41    0.83
   9 -13   9    1.81    0.61
   9  13   9    1.29    0.56
   9  13  10    0.08    0.52
  -9 -14  10    4.17    0.79
   9 -14 -10    4.77    0.88
  -9  14  10    4.15    0.77
  -9 -14   9    3.29    0.72
   9 -14  -9    2.65    0.68
  -9 -14   8    2.62    0.64
   9 -14  -8    2.71    0.56
   9 -14  -8    2.02    0.62
   9 -14  -7    2.84    0.59
  -9 -14   7    2.64    0.66
   9 -14  -7    3.54    0.75
   9 -14  -6   24.61    1.31
   9 -14  -6   23.10    1.45
  -9 -14   6   25.52    1.42
   9 -14  -5    8.32    0.79
   9 -14  -5    6.62    0.87
  -9 -14   5    8.55    0.86
   9 -14  -4   -0.34    0.41
   9  14  -4   -0.73    0.52
   9 -14  -4    0.16    0.49
   9 -14  -3    1.11    0.43
   9  14  -3    1.13    0.53
  -9 -14   3    2.27    0.59
   9 -14  -3    1.85    0.57
   9 -14  -3    2.24    0.39
   9  14  -2   15.40    1.09
   9 -14  -2   13.95    1.04
  -9 -14   2   14.32    1.01
   9 -14  -2   15.34    0.78
   9  14  -1    5.59    0.58
   9 -14  -1    4.72    0.65
  -9 -14   1    5.65    0.68
   9  14  -1    5.51    0.71
   9 -14  -1    6.13    0.55
   9  14   0   33.25    1.28
  -9 -14   0   29.89    1.40
   9 -14   0   32.58    1.49
   9 -14   0   36.76    1.30
   9  14   0   32.89    1.50
   9  14   1    8.77    0.64
   9 -14   1   10.12    0.73
   9  14   1    8.92    0.84
   9 -14   1    6.59    0.75
  -9 -14  -1    8.89    0.79
   9 -14   2    5.76    0.62
   9  14   2    5.23    0.67
  -9 -14  -2    6.20    0.69
   9 -14   2    5.79    0.71
   9 -14   3    0.51    0.39
   9  14   3    0.17    0.39
   9 -14   3    1.11    0.47
  -9 -14  -3    0.41    0.40
   9 -14   4   15.96    1.04
   9  14   4   14.70    1.02
   9 -14   4   15.52    1.07
  -9 -14  -4   15.16    1.05
   9 -14   5    1.42    0.48
   9  14   5    1.97    0.50
  -9 -14  -5    1.42    0.48
   9 -14   5    2.26    0.60
   9 -14   6    6.50    0.78
   9  14   6    6.49    0.77
   9 -14   6    6.40    0.76
  -9 -14  -6    4.58    0.69
   9  14   7    6.23    0.79
   9 -14   7    7.16    0.87
   9 -14   7    6.83    0.83
  -9 -14  -7    5.48    0.78
   9 -14   8    4.40    0.75
   9  14   8    3.92    0.70
  -9 -14  -8    4.02    0.77
   9 -14   9   10.51    1.10
   9 -15 -10   10.91    1.18
  -9 -15   9    8.35    1.04
   9 -15  -9   10.72    1.14
  -9 -15   8    4.96    0.83
  -9 -15   8    6.94    0.91
   9 -15  -8    4.66    0.82
  -9 -15   7    3.43    0.71
   9 -15  -7    2.49    0.71
   9 -15  -6    2.12    0.50
   9 -15  -6    1.49    0.58
  -9 -15   6    1.96    0.61
   9 -15  -5   12.42    0.92
   9 -15  -5   11.35    1.09
  -9 -15   5   11.71    1.03
   9  15  -4   15.39    1.16
   9 -15  -4   14.01    0.97
   9 -15  -4   15.21    1.16
  -9 -15   4   15.42    1.15
   9  15  -3    6.70    0.80
  -9 -15   3    7.94    0.84
   9 -15  -3    6.79    0.85
  -9 -15   2    0.23    0.43
   9 -15  -2    0.26    0.46
   9  15  -2   -0.16    0.42
   9  15  -1   16.25    0.91
   9  15  -1   15.59    1.09
  -9 -15   1   14.66    1.05
   9 -15  -1   16.75    1.13
   9  15   0    2.34    0.54
  -9 -15   0    1.76    0.50
   9 -15   0    1.25    0.52
   9  15   1    0.55    0.43
   9 -15   1   -0.47    0.47
  -9 -15  -1   -0.19    0.46
   9  15   2    7.33    0.76
   9 -15   2    7.17    0.66
  -9 -15  -2    6.11    0.74
   9 -15   2    5.36    0.71
   9  15   3    0.76    0.43
   9 -15   3    0.95    0.43
   9 -15   3    0.54    0.63
  -9 -15  -3    1.10    0.52
   9 -15   4    4.76    0.64
   9  15   4    4.63    0.64
  -9 -15  -4    4.59    0.69
   9 -15   4    4.73    0.72
   9 -15   5    0.40    0.41
   9  15   5    0.05    0.38
   9 -15   5   -0.31    0.50
  -9 -15  -5   -0.22    0.51
   9  15   6    0.09    0.42
   9 -15   6   -0.01    0.45
  -9 -15  -6    0.41    0.51
   9 -15   6    0.14    0.50
   9 -15   7   13.85    1.14
   9 -15   7   15.02    1.15
  -9 -15  -7   14.08    1.20
   9 -15   8    5.60    0.86
   9 -16  -9    0.42    0.66
  -9 -16   8    0.85    0.57
   9 -16  -8    1.29    0.73
  -9 -16   7    0.71    0.60
   9 -16  -7    1.02    0.62
   9 -16  -6    5.73    0.89
  -9 -16   6    6.65    0.87
   9  16  -5   17.70    1.27
   9 -16  -5   19.16    1.42
  -9 -16   5   18.15    1.28
   9  16  -4   14.84    1.14
   9 -16  -4   14.13    1.14
  -9 -16   4   14.22    1.12
   9  16  -3    2.82    0.60
  -9 -16   3    2.07    0.56
   9 -16  -3    2.47    0.62
   9  16  -2    0.31    0.45
  -9 -16   2    0.37    0.62
   9 -16  -2    0.61    0.53
   9  16  -1    2.53    0.53
   9 -16  -1    3.67    0.70
  -9 -16   1    3.68    0.75
   9  16   0   21.56    1.23
  -9 -16   0   21.27    1.27
   9 -16   0   21.70    1.31
   9  16   1   31.34    1.44
   9 -16   1   28.66    1.52
  -9 -16  -1   28.83    1.48
   9  16   2   18.12    1.11
  -9 -16  -2   18.29    1.19
   9 -16   2   14.95    1.16
   9  16   3   30.36    1.41
  -9 -16  -3   28.12    1.49
   9 -16   3   31.63    1.62
  -9 -16  -4    2.23    0.59
   9 -16   4    3.72    0.69
  -9 -16  -5    3.91    0.70
   9 -16   5    4.42    0.74
  -9 -16  -6   10.00    1.01
   9 -16   6   13.10    1.11
  -9 -16  -7    0.78    0.57
   9 -16   7    1.38    0.62
  -9 -17   8    1.46    0.58
   9 -17  -8    0.61    0.68
  -9 -17   7    0.09    0.54
   9 -17  -7   -1.73    0.79
   9 -17  -6    2.96    0.80
  -9 -17   6    3.79    0.75
   9  17  -5   14.84    1.19
   9 -17  -5   13.26    1.23
  -9 -17   5   14.62    1.21
   9  17  -4    8.24    0.89
   9 -17  -4    6.35    0.89
  -9 -17   4    5.94    0.83
  -9 -17   3    0.11    0.50
   9 -17  -3    0.49    0.54
   9  17  -3    0.30    0.42
  -9 -17   2   -0.35    0.54
   9 -17  -2    0.54    0.55
   9  17  -2    0.36    0.48
   9  17  -1   13.70    1.00
  -9 -17   1   14.46    1.14
   9 -17  -1   16.08    1.20
  -9 -17   0   11.15    1.02
   9 -17   0   10.95    1.05
   9  17   0   11.23    0.90
   9 -17   1    4.71    0.78
  -9 -17  -1    4.13    0.74
  -9 -17  -2   13.22    1.07
   9 -17   2   12.69    1.10
  -9 -17  -3    6.64    0.84
   9 -17   3    5.59    0.84
  -9 -17  -4    1.64    0.59
   9 -17   4    1.12    0.56
  -9 -17  -5    2.63    0.67
   9 -17   5    1.60    0.61
   9 -17   6    1.03    0.56
  -9 -17  -6    1.51    0.65
   9 -17   7    1.62    0.68
   9  18  -6   -0.15    0.53
  -9 -18   6    1.05    0.58
   9 -18  -6    2.18    0.72
   9  18  -5   11.46    1.06
   9 -18  -5   11.45    1.22
  -9 -18   5   11.53    1.12
  -9 -18   4   13.09    1.19
   9 -18  -4   16.14    1.33
  -9 -18   3    5.63    0.84
   9 -18  -3    6.36    0.89
   9 -18  -2    3.14    0.72
  -9 -18   2    1.69    0.59
  -9 -18   1    0.31    0.49
   9 -18  -1    0.85    0.57
  -9 -18   0    7.12    0.87
   9 -18   0    8.30    0.93
   9 -18   1   14.36    1.19
  -9 -18  -1   15.86    1.23
   9 -18   2   11.01    1.07
  -9 -18  -2   10.42    1.03
  -9 -18  -3    2.54    0.64
   9 -18   3    2.73    0.69
   9 -18   4    1.94    0.63
  -9 -18  -4    0.26    0.51
  -9 -18  -5    2.16    0.65
   9 -18   5    2.26    0.66
   9 -18   6   12.90    1.21
   9 -19  -5    9.03    1.11
  -9 -19   5    9.30    1.08
   9 -19  -4    0.31    0.57
  -9 -19   4    0.66    0.55
  -9 -19   3    6.49    0.92
   9 -19  -3    6.93    0.97
   9 -19  -2    6.15    0.90
  -9 -19   2    5.67    0.86
  -9 -19   1    6.86    0.91
   9 -19  -1    6.10    0.89
  -9 -19   0   17.74    1.31
   9 -19   0   19.04    1.38
   9 -19   1    4.25    0.78
  -9 -19  -1    4.47    0.76
   9 -19   2    7.56    0.96
  -9 -19  -2    7.36    0.94
   9 -19   3    2.68    0.74
  -9 -19  -3    2.94    0.69
   9 -19   4   -0.11    0.57
  -9 -19  -4   -0.15    0.54
   9 -20  -2    1.56    0.67
  -9 -20   2    2.49    0.74
  -9 -20   1    0.96    0.57
   9 -20  -1    0.48    0.64
  -9 -20   0   10.27    1.09
   9 -20   0    8.90    1.06
   9 -20   1    6.16    0.94
  -9 -20  -1    4.02    0.70
   9 -20   2    3.70    0.80
  -9 -20  -2    3.76    0.77
 -10   0  14   10.99    1.11
 -10   0  13   -0.02    0.52
 -10   0  12   16.48    1.18
 -10   0  11   -0.54    0.53
 -10   0  10   39.60    1.64
 -10   0   9   -0.05    0.44
  10   0  -8   13.58    0.82
 -10   0   8   14.86    0.92
  10   0  -7    0.10    0.29
 -10   0   7    0.04    0.33
  10   0  -6   62.49    1.58
 -10   0   6   65.37    1.70
  10   0  -5   -0.02    0.24
 -10   0   5    0.09    0.26
  10   0  -4  128.35    3.20
  10   0  -4  126.52    2.16
 -10   0   4  130.95    2.32
  10   0  -3    0.13    0.47
  10   0  -3   -0.08    0.15
 -10   0   3    0.09    0.20
  10   0  -2    9.72    0.84
 -10   0   2   10.37    0.35
  10   0  -1   -0.07    0.42
  10   0  -1   -0.52    0.44
  10   0   0   26.54    1.33
  10   0   0   28.70    1.35
  10   0   1    1.00    0.53
  10   0   1    1.51    0.56
  10   0   2    1.21    0.49
  10   0   2    1.80    0.50
  10   0   3    0.91    0.52
  10   0   4   -0.14    0.52
  10   0   5   -0.77    0.53
 -10   0  -5   -0.04    0.16
  10   0   6    1.34    0.57
 -10   0  -6    0.60    0.20
  10   0   7    2.73    0.71
  10   0   7   -1.13    0.29
  10   0   8   67.98    2.52
  10   0   9    1.28    0.62
  10   0  10   16.55    1.35
  10   0  11   -0.91    0.65
 -10  -1  14   -0.35    0.56
 -10   1  14    0.29    0.56
 -10  -1  13    0.01    0.52
 -10   1  13    0.43    0.52
 -10   1  12    2.68    0.64
 -10  -1  12    1.49    0.61
 -10   1  11    6.38    0.78
 -10  -1  11    5.00    0.74
 -10   1  10    6.28    0.76
 -10  -1  10    4.68    0.68
 -10   1   9   34.17    1.45
 -10  -1   9   33.76    1.44
  10  -1  -8    5.23    0.54
  10   1  -8    5.37    0.57
 -10  -1   8    5.72    0.60
 -10   1   8    4.74    0.59
  10  -1  -7    0.07    0.29
  10   1  -7    0.36    0.31
 -10  -1   7    0.21    0.37
 -10   1   7    0.21    0.37
  10  -1  -6   12.52    0.67
  10   1  -6   12.40    0.68
 -10  -1   6   13.67    0.76
 -10   1   6   12.46    0.72
  10  -1  -5   84.31    1.77
  10   1  -5   83.35    1.77
 -10  -1   5   86.92    1.91
 -10   1   5   84.78    1.88
  10   1  -4    2.85    0.57
  10  -1  -4    3.38    0.64
  10   1  -4    1.90    0.25
  10  -1  -4    1.99    0.25
 -10   1   4    2.05    0.28
 -10  -1   4    2.95    0.33
  10   1  -3   38.67    1.63
  10  -1  -3   38.34    1.60
  10   1  -3   38.40    0.82
  10  -1  -3   37.92    0.81
 -10  -1   3   41.31    0.98
 -10   1   3   40.04    0.96
  10   1  -2   13.10    0.98
  10  -1  -2   12.98    0.94
 -10  -1   2   13.73    0.43
 -10   1   2   12.51    0.40
  10   1  -1    0.89    0.40
  10  -1  -1    0.93    0.46
  10   1  -1    0.64    0.40
  10  -1  -1    1.08    0.46
  10  -1   0    8.23    0.81
  10   1   0    8.24    0.77
  10   1   0    8.62    0.81
  10  -1   0    8.35    0.80
  10   1   1   80.33    2.37
  10  -1   1   81.45    2.40
  10   1   1   75.99    2.34
  10  -1   1   80.44    2.35
  10   1   2   15.20    1.03
  10  -1   2   16.63    1.09
  10   1   2   16.13    1.06
  10  -1   2   15.27    1.02
  10   1   3   42.64    1.75
  10  -1   3   44.07    1.76
  10   1   4   18.81    1.18
  10  -1   4   19.73    1.20
  10  -1   5    7.47    0.84
  10   1   5    7.15    0.79
 -10   1  -5    7.84    0.38
 -10  -1  -5    7.13    0.35
  10  -1   6   11.26    1.00
  10   1   6   10.68    0.99
 -10   1  -6    9.64    0.49
 -10  -1  -6    8.75    0.47
  10  -1   6    9.14    0.32
  10   1   7   71.25    2.49
  10  -1   7   71.79    2.47
  10   1   7   66.91    1.38
  10  -1   7   66.28    1.31
  10   1   8    1.85    0.69
  10  -1   8    2.45    0.73
  10   1   9   30.11    1.72
  10  -1   9   29.46    1.69
  10   1  10    2.49    0.75
  10  -1  10    1.50    0.66
  10   1  11    0.84    0.62
  10  -1  11    1.33    0.67
 -10  -2  14    3.52    0.75
 -10   2  14    3.99    0.78
 -10  -2  13    0.96    0.58
 -10   2  13    0.88    0.57
 -10   2  12    0.67    0.54
 -10  -2  12    0.76    0.50
 -10   2  11    3.18    0.63
 -10  -2  11    3.83    0.65
 -10   2  10  119.25    3.04
 -10  -2  10  121.23    3.08
 -10  -2   9    0.63    0.45
 -10   2   9    0.72    0.44
 -10  -2   8    2.83    0.50
  10   2  -8    2.95    0.46
 -10   2   8    2.80    0.51
  10  -2  -7    0.67    0.34
 -10  -2   7    0.58    0.40
  10   2  -7    0.73    0.36
 -10   2   7    0.61    0.36
  10  -2  -6    4.53    0.48
 -10  -2   6    4.97    0.51
  10   2  -6    4.95    0.47
 -10   2   6    5.18    0.51
  10  -2  -5    4.92    0.47
 -10  -2   5    4.57    0.45
  10   2  -5    4.83    0.42
 -10   2   5    4.27    0.44
  10   2  -4   57.95    2.05
  10  -2  -4   56.86    1.97
  10   2  -4   55.33    1.25
 -10  -2   4   59.98    1.41
 -10   2   4   55.47    1.35
  10   2  -3   14.54    1.05
  10  -2  -3   13.35    0.97
  10  -2  -3   13.35    0.47
  10   2  -3   12.92    0.47
  10  -2  -3   14.06    0.50
 -10  -2   3   13.71    0.57
 -10   2   3   14.02    0.55
  10   2  -2   62.38    2.11
  10  -2  -2   61.55    2.07
  10  -2  -2   60.09    2.00
 -10  -2   2   65.73    1.22
  10   2  -1    6.32    0.74
  10  -2  -1    7.04    0.72
  10   2  -1    7.04    0.74
  10  -2  -1    7.40    0.75
 -10  -2   1    6.40    0.21
  10   2   0   20.90    1.19
  10  -2   0   22.03    1.21
  10   2   0   21.69    1.22
  10  -2   0   21.61    1.18
  10   2   1    6.82    0.74
  10  -2   1    6.81    0.74
  10   2   1    6.50    0.73
  10  -2   1    5.70    0.69
  10   2   2    2.08    0.54
  10  -2   2    1.58    0.49
  10  -2   2    1.59    0.51
  10   2   2    2.16    0.54
  10   2   3    0.66    0.48
  10   2   3    1.49    0.55
  10  -2   3    1.39    0.55
  10   2   4   75.59    2.39
  10  -2   4   77.64    2.37
 -10  -2  -4   62.61    1.05
 -10  -2  -4   66.73    1.04
 -10   2  -4   68.48    1.11
  10   2   5   12.08    1.02
  10  -2   5   11.94    0.97
 -10  -2  -5   11.99    0.46
 -10   2  -5   12.56    0.51
 -10  -2  -5   13.32    0.49
  10   2   6   20.25    1.31
  10  -2   6   20.08    1.25
 -10   2  -6   20.18    0.74
 -10  -2  -6   17.62    0.66
  10  -2   6   18.47    0.48
  10   2   7    0.07    0.52
  10  -2   7    0.60    0.24
  10   2   8   46.57    2.07
  10  -2   8   50.24    2.11
  10   2   9    4.40    0.82
  10  -2   9    5.06    0.81
  10   2  10    1.55    0.61
  10  -2  10    0.83    0.55
  10   2  11   -0.60    0.61
 -10   3  14   -0.37    0.59
 -10  -3  14   -0.07    0.57
 -10   3  13    7.17    0.90
 -10  -3  13    4.81    0.78
 -10  -3  12    2.38    0.65
 -10   3  12    2.27    0.66
 -10  -3  11    7.40    0.87
 -10   3  11    6.95    0.81
 -10  -3  10    0.37    0.48
 -10   3  10   -0.06    0.49
 -10  -3   9   62.64    2.00
 -10   3   9   60.49    1.99
 -10  -3   8    5.70    0.64
  10   3  -8    5.46    0.60
 -10   3   8    5.54    0.65
  10  -3  -7    2.17    0.41
 -10  -3   7    2.21    0.46
  10   3  -7    1.96    0.39
 -10   3   7    2.79    0.48
  10  -3  -6   25.12    1.02
  10   3  -6   22.50    0.94
 -10  -3   6   23.00    1.01
 -10   3   6   23.93    1.02
  10  -3  -5    2.70    0.38
  10  -3  -5    2.73    0.54
 -10  -3   5    2.76    0.39
  10   3  -5    2.60    0.35
 -10   3   5    2.43    0.37
  10  -3  -4    5.58    0.68
  10   3  -4    5.97    0.77
 -10  -3   4    5.80    0.46
  10  -3  -4    5.69    0.44
  10   3  -4    5.01    0.39
 -10   3   4    5.38    0.44
  10  -3  -3   55.02    1.90
  10   3  -3   55.72    2.02
  10  -3  -3   59.76    1.28
  10   3  -3   53.69    1.17
  10  -3  -3   56.44    1.20
 -10  -3   3   58.39    1.33
 -10   3   3   58.93    1.30
  10   3  -2   10.19    0.91
  10  -3  -2   12.38    0.93
  10  -3  -2   10.25    0.84
  10   3  -2   11.26    0.35
  10  -3  -2   11.66    0.38
 -10  -3   2   11.71    0.49
  10  -3  -1   18.68    1.09
  10   3  -1   19.09    1.14
  10  -3  -1   18.80    1.14
  10   3  -1   19.59    1.18
 -10  -3   1   19.72    0.52
  10   3   0    0.13    0.46
  10  -3   0   -0.05    0.41
  10  -3   0    0.03    0.38
  10   3   0    0.46    0.42
  10   3   1   28.93    1.41
  10  -3   1   28.09    1.33
  10   3   1   25.90    1.31
  10  -3   1   27.90    1.38
  10  -3   2    1.71    0.52
  10   3   2    2.81    0.61
  10   3   2    1.95    0.51
  10  -3   2    2.42    0.55
  10   3   3   32.98    1.55
  10  -3   3   33.89    1.51
  10   3   3   32.87    1.49
  10   3   4    1.14    0.51
  10  -3   4    0.86    0.51
 -10  -3  -4    0.58    0.17
 -10  -3  -4    0.41    0.14
 -10   3  -4    0.38    0.17
  10   3   5    4.06    0.66
  10  -3   5    4.90    0.71
 -10  -3  -5    4.15    0.31
 -10  -3  -5    5.17    0.34
 -10   3  -5    3.92    0.32
  10   3   6    4.77    0.76
  10  -3   6    4.48    0.76
  10  -3   6    4.93    0.28
  10   3   7   40.91    1.88
  10  -3   7   41.59    1.86
  10   3   8    2.65    0.72
  10  -3   8    1.55    0.67
  10   3   9    1.32    0.61
  10  -3   9    1.76    0.60
  10  -3  10   -0.12    0.55
  10   3  10   -0.42    0.58
  10   3  11    1.04    0.60
 -10   4  14   -0.23    0.63
 -10  -4  14    0.01    0.58
 -10  -4  13   -0.65    0.61
 -10   4  13    0.41    0.58
 -10  -4  12    1.57    0.54
 -10   4  12    2.18    0.65
 -10  -4  11   -0.01    0.47
 -10   4  11   -0.01    0.52
 -10   4  10   41.59    1.73
 -10  -4  10   42.51    1.74
 -10  -4   9    4.00    0.62
 -10   4   9    4.10    0.65
  10   4  -8   41.59    1.50
 -10  -4   8   39.37    1.53
 -10   4   8   42.23    1.56
  10  -4  -7    0.39    0.33
 -10  -4   7   -0.48    0.39
  10   4  -7   -0.29    0.30
 -10   4   7   -0.25    0.35
 -10  -4   6   22.68    1.01
  10  -4  -6   22.80    0.98
  10   4  -6   21.92    0.95
 -10   4   6   22.66    1.01
  10  -4  -5    4.38    0.62
  10  -4  -5    6.60    0.53
 -10  -4   5    5.03    0.52
  10   4  -5    5.46    0.48
 -10   4   5    5.79    0.51
 -10  -4   4   59.91    1.52
  10   4  -4   60.31    2.15
  10  -4  -4   62.09    1.48
  10  -4  -4   60.25    1.99
  10   4  -4   59.26    1.42
  10  -4  -4   60.87    1.46
 -10   4   4   61.89    1.51
 -10  -4   3    3.53    0.37
  10   4  -3    3.02    0.62
  10  -4  -3    2.62    0.28
  10  -4  -3    3.36    0.58
  10   4  -3    3.08    0.32
  10  -4  -3    3.46    0.36
 -10   4   3    3.16    0.35
  10   4  -2   27.51    1.41
  10  -4  -2   27.91    1.32
  10  -4  -2   29.02    1.40
 -10  -4   2   29.45    0.85
  10  -4  -2   28.92    0.76
  10   4  -2   27.37    0.71
  10  -4  -2   27.87    0.75
  10  -4  -1   22.44    1.24
 -10  -4   1   22.06    0.65
  10   4  -1   21.46    1.26
  10  -4  -1   21.42    0.51
  10  -4  -1   21.05    1.13
  10  -4  -1   21.04    0.49
  10  -4   0   12.89    0.91
  10   4   0   11.82    0.95
  10   4   0   11.85    0.91
  10  -4   0   13.12    0.96
 -10  -4   0   12.57    0.42
 -10  -4   0   12.11    0.40
  10   4   1    4.98    0.69
  10  -4   1    4.93    0.65
  10   4   1    5.37    0.68
  10  -4   1    5.13    0.70
 -10  -4  -1    4.95    0.23
 -10  -4  -1    3.88    0.19
  10   4   2    1.05    0.42
 -10  -4  -2    0.79    0.11
  10  -4   2    0.98    0.47
  10  -4   2    0.13    0.38
  10   4   2    1.05    0.48
  10   4   3    0.06    0.40
 -10  -4  -3    0.20    0.12
 -10  -4  -3    0.34    0.13
  10   4   3   -0.51    0.45
  10  -4   3   -0.21    0.44
 -10  -4  -4   22.00    0.58
  10  -4   4   26.05    1.34
  10   4   4   25.58    1.40
 -10  -4  -4   24.51    0.72
 -10   4  -4   25.09    0.74
 -10  -4  -5    0.86    0.20
  10   4   5    0.81    0.48
  10  -4   5    0.70    0.51
 -10   4  -5    0.87    0.23
  10  -4   5    0.87    0.13
 -10  -4  -5    1.37    0.25
  10   4   6    0.09    0.46
  10  -4   6    0.99    0.55
  10  -4   6    0.58    0.20
 -10  -4  -6    1.00    0.28
  10  -4   7    3.68    0.69
  10   4   7    4.24    0.72
  10   4   8   24.82    1.52
  10  -4   8   26.08    1.53
  10   4   9    5.75    0.88
  10  -4   9    6.69    0.90
  10  -4  10    0.88    0.61
  10   4  10    1.04    0.62
  10   4  11   -0.45    0.64
 -10   5  14    4.92    0.88
 -10  -5  13    3.04    0.74
 -10   5  13    1.86    0.69
 -10  -5  12    2.37    0.62
 -10   5  12    3.38    0.70
 -10  -5  11   15.81    1.16
 -10   5  11   16.48    1.16
 -10  -5  10    7.20    0.82
 -10   5  10    6.13    0.77
 -10   5   9   79.87    2.37
 -10  -5   9   82.93    2.41
 -10  -5   8   -0.71    0.51
 -10   5   8   -0.51    0.49
 -10  -5   7    0.36    0.39
  10  -5  -7    0.63    0.36
  10   5  -7   -0.12    0.33
 -10   5   7    0.00    0.36
 -10  -5   6    3.21    0.48
  10  -5  -6    3.22    0.45
  10   5  -6    2.65    0.42
 -10   5   6    3.49    0.48
  10  -5  -5   67.72    1.71
 -10  -5   5   67.40    1.77
  10  -5  -5   64.48    2.10
  10   5  -5   64.50    1.65
 -10   5   5   68.20    1.76
  10  -5  -4   17.32    0.76
 -10  -5   4   18.55    0.83
  10  -5  -4   17.16    1.06
  10   5  -4   17.43    0.76
  10  -5  -4   16.60    0.76
 -10   5   4   17.58    0.81
  10  -5  -3   82.63    2.44
  10  -5  -3   82.26    1.70
  10  -5  -3   83.71    2.34
 -10  -5   3   85.23    1.82
  10   5  -3   85.18    2.56
  10  -5  -3   79.79    1.77
  10   5  -3   81.19    1.76
 -10  -5   2   -0.11    0.22
  10   5  -2    0.06    0.44
  10  -5  -2    0.32    0.20
  10  -5  -2    0.74    0.44
  10  -5  -2    0.09    0.38
  10  -5  -2    0.07    0.20
  10   5  -2    0.18    0.19
  10  -5  -1   33.76    1.50
  10   5  -1   32.38    1.51
 -10  -5   1   34.07    0.91
  10  -5  -1   29.91    1.34
  10  -5  -1   33.34    0.81
  10  -5  -1   33.48    0.79
  10  -5   0    1.56    0.50
  10  -5   0    1.67    0.16
  10   5   0    1.47    0.49
  10   5   0    1.75    0.52
  10  -5   0    1.81    0.48
  10  -5   0    0.96    0.16
 -10  -5   0    1.44    0.22
  10   5   1    2.84    0.55
  10  -5   1    2.63    0.58
  10  -5   1    2.79    0.54
  10   5   1    2.50    0.56
 -10  -5  -1    2.68    0.20
 -10  -5  -1    2.44    0.23
  10   5   2    1.45    0.47
  10  -5   2    1.83    0.49
  10   5   2    2.06    0.54
 -10  -5  -2    1.47    0.18
 -10  -5  -2    1.79    0.20
  10   5   3    1.87    0.48
  10   5   3    1.77    0.51
  10  -5   3    1.69    0.48
 -10  -5  -3    2.68    0.25
 -10  -5  -3    2.27    0.22
 -10  -5  -4    1.19    0.23
  10   5   4    1.37    0.52
  10  -5   4    0.78    0.46
 -10  -5  -4    0.52    0.21
  10  -5   4    0.76    0.13
 -10   5  -4    1.15    0.26
  10  -5   4    0.72    0.12
 -10  -5  -5    2.92    0.31
  10   5   5    3.55    0.64
  10  -5   5    3.77    0.63
 -10   5  -5    3.72    0.39
 -10  -5  -5    3.77    0.37
  10  -5   5    3.32    0.25
  10   5   6    0.10    0.44
  10  -5   6    1.11    0.52
 -10  -5  -6    1.35    0.31
  10  -5   6    1.06    0.23
  10  -5   7    7.82    0.90
  10   5   7    8.97    0.95
 -10  -5  -7    9.08    0.61
  10   5   8    8.60    1.00
  10  -5   8    9.72    1.03
  10   5   9   15.45    1.26
  10  -5   9   17.04    1.30
  10  -5  10   -0.98    0.62
  10   5  10   -0.57    0.60
  10   5  11   -0.86    0.64
 -10  -6  13   -0.42    0.59
 -10   6  13   -0.63    0.60
 -10  -6  12    3.93    0.75
 -10   6  12    3.15    0.72
 -10  -6  11    0.61    0.51
 -10   6  11    1.15    0.60
 -10  -6  10   28.92    1.48
 -10   6  10   29.46    1.48
 -10  -6   9    1.45    0.53
 -10   6   9    1.23    0.48
 -10  -6   8   26.73    1.27
 -10   6   8   25.35    1.26
 -10  -6   7    0.45    0.37
  10   6  -7   -0.05    0.32
 -10   6   7    0.33    0.43
  10  -6  -6    3.60    0.57
  10  -6  -6    4.83    0.52
 -10  -6   6    4.69    0.56
  10   6  -6    4.78    0.52
 -10   6   6    4.48    0.56
 -10  -6   5    0.26    0.33
  10  -6  -5    0.12    0.38
  10  -6  -5    0.95    0.32
  10   6  -5    0.50    0.31
 -10   6   5    0.69    0.36
  10  -6  -5    0.96    0.35
  10  -6  -4   74.60    2.20
 -10  -6   4   75.24    1.84
  10   6  -4   71.48    1.75
  10  -6  -4   73.83    1.78
  10  -6  -4   74.97    1.76
 -10   6   4   75.27    1.84
  10  -6  -3    9.91    0.87
  10   6  -3   11.18    0.99
 -10  -6   3    9.56    0.60
  10  -6  -3    9.24    0.77
  10   6  -3    9.12    0.60
  10  -6  -3    8.05    0.55
  10  -6  -3    9.19    0.54
  10  -6  -2   18.90    1.13
  10  -6  -2   17.32    1.00
 -10  -6   2   17.65    0.74
  10   6  -2   18.07    1.17
  10   6  -2   17.04    0.68
  10  -6  -2   17.02    0.72
  10  -6  -2   18.33    0.69
  10  -6  -1    0.49    0.41
  10  -6  -1    0.66    0.21
  10   6  -1    0.05    0.41
  10  -6  -1    1.26    0.38
 -10  -6   1    0.64    0.19
  10  -6  -1    0.32    0.20
  10   6   0   26.84    1.34
  10  -6   0   28.42    1.38
  10   6   0   27.15    1.41
  10  -6   0   28.21    1.28
 -10  -6   0   27.92    0.76
  10  -6   0   26.99    0.76
  10  -6   0   27.36    0.72
 -10  -6   0   27.79    0.87
  10   6   1   21.37    1.18
  10  -6   1   22.40    1.24
  10   6   1   21.54    1.25
  10  -6   1   22.37    1.18
  10  -6   1   20.93    0.66
 -10  -6  -1   21.51    0.65
 -10  -6  -1   20.71    0.70
  10  -6   1   22.39    0.57
  10   6   2   23.30    1.22
  10  -6   2   22.24    0.55
  10   6   2   22.94    1.30
  10  -6   2   24.63    1.24
 -10  -6  -2   23.88    0.71
  10  -6   2   23.78    0.57
 -10  -6  -2   23.88    0.74
  10  -6   3    8.84    0.35
  10   6   3    9.34    0.82
  10   6   3    8.05    0.83
  10  -6   3    8.98    0.80
 -10  -6  -3    9.86    0.50
  10  -6   3    9.09    0.36
 -10  -6  -3    9.01    0.46
  10   6   4    6.31    0.77
  10  -6   4    6.99    0.78
 -10  -6  -4    6.14    0.45
 -10   6  -4    6.81    0.48
  10  -6   4    6.63    0.33
 -10  -6  -4    6.38    0.42
  10  -6   4    6.47    0.35
  10  -6   5    2.55    0.27
  10   6   5    1.62    0.51
  10  -6   5    2.06    0.56
 -10  -6  -5    2.15    0.35
  10  -6   6    0.24    0.46
  10   6   6    0.57    0.48
  10  -6   6    0.37    0.25
 -10  -6  -6    1.12    0.33
  10  -6   7    5.53    0.83
  10   6   7    6.16    0.83
 -10  -6  -7    5.85    0.54
  10   6   8   39.15    1.93
  10  -6   8   44.74    2.00
 -10  -6  -8   50.31    1.58
  10  -6   9    4.05    0.79
  10   6   9    1.86    0.62
  10  -6  10    2.85    0.70
  10   6  10    3.49    0.74
  10   6  11    0.15    0.58
 -10  -7  13    0.81    0.56
 -10   7  13    0.99    0.64
 -10  -7  12    0.59    0.54
 -10   7  12   -0.10    0.52
 -10  -7  11   26.89    1.50
 -10   7  11   24.39    1.47
 -10  -7  10   15.43    1.13
 -10   7  10   14.74    1.11
 -10  -7   9   26.44    1.38
 -10   7   9   28.09    1.42
 -10  -7   8    1.88    0.52
 -10   7   8    0.82    0.41
 -10  -7   7    2.71    0.55
  10   7  -7    3.06    0.53
 -10   7   7    2.00    0.49
 -10  -7   6    0.95    0.42
  10  -7  -6    1.02    0.38
  10  -7  -6   -0.11    0.39
  10   7  -6    1.42    0.41
 -10   7   6    0.20    0.35
 -10  -7   5   20.67    1.00
  10  -7  -5   18.65    1.08
  10   7  -5   18.02    0.91
  10  -7  -5   20.13    0.92
  10  -7  -5   20.06    0.95
 -10   7   5   20.00    0.99
  10  -7  -4   24.31    1.32
  10  -7  -4   22.04    1.15
  10   7  -4   22.89    1.37
 -10  -7   4   22.73    1.01
  10  -7  -4   23.90    1.01
  10   7  -4   21.66    0.97
  10  -7  -4   23.94    0.95
 -10  -7   3   32.37    1.12
  10  -7  -3   34.52    1.53
  10  -7  -3   33.01    1.38
  10   7  -3   32.66    1.59
  10   7  -3   31.92    1.15
  10  -7  -3   31.49    1.16
  10  -7  -3   33.41    1.07
  10  -7  -2   -0.38    0.45
  10   7  -2    0.46    0.47
  10  -7  -2    0.28    0.34
 -10  -7   2    0.46    0.22
  10  -7  -2    0.81    0.30
  10   7  -2    0.27    0.23
  10  -7  -2    0.78    0.26
  10  -7  -1    0.18    0.39
  10   7  -1    0.23    0.41
  10  -7  -1   -0.39    0.39
 -10  -7   1    0.16    0.22
  10  -7  -1   -0.13    0.24
  10  -7  -1   -0.02    0.20
  10  -7   0    2.01    0.56
  10   7   0    2.80    0.54
  10   7   0    3.31    0.65
  10  -7   0    3.15    0.54
  10  -7   0    1.97    0.27
 -10  -7   0    3.07    0.32
 -10  -7   0    2.65    0.35
  10  -7   0    2.88    0.28
  10   7   1   17.72    1.08
  10  -7   1   18.91    1.17
  10   7   1   19.97    1.20
  10  -7   1   19.62    1.11
  10  -7   1   19.67    0.73
 -10  -7  -1   20.27    0.72
 -10  -7  -1   20.17    0.76
  10  -7   1   19.96    0.63
  10   7   2   13.60    0.95
  10   7   2   11.15    0.95
  10  -7   2   11.82    0.89
 -10  -7  -2   13.11    0.60
  10  -7   2   12.08    0.57
  10  -7   2   12.35    0.49
 -10  -7  -2   12.39    0.59
  10   7   3   13.57    0.95
  10  -7   3   12.04    0.49
  10  -7   3   13.23    0.96
  10   7   3   11.67    0.97
 -10  -7  -3   12.95    0.64
 -10   7  -3   12.63    0.63
 -10  -7  -3   13.26    0.61
  10  -7   3   12.58    0.51
  10  -7   4   15.27    0.59
  10  -7   4   15.47    1.08
  10   7   4   14.51    1.08
 -10  -7  -4   15.91    0.74
 -10   7  -4   15.46    0.75
 -10  -7  -4   15.71    0.69
  10  -7   4   14.67    0.60
  10  -7   5    0.44    0.24
  10   7   5    1.23    0.48
  10  -7   5    0.83    0.50
 -10  -7  -5    0.44    0.28
  10  -7   6    4.15    0.71
  10   7   6    4.00    0.69
  10  -7   6    3.49    0.37
 -10  -7  -6    4.37    0.49
  10   7   7   15.73    1.20
  10  -7   7   17.31    1.21
 -10  -7  -7   17.65    0.90
  10   7   8    4.50    0.81
  10  -7   8    3.00    0.70
 -10  -7  -8    3.89    0.54
  10  -7   9   23.21    1.51
  10   7   9   22.57    1.50
  10   7  10    0.55    0.53
  10  -7  10   -1.15    0.62
 -10  -8  13    1.20    0.57
 -10   8  13    0.70    0.58
 -10  -8  12    0.79    0.57
 -10   8  12   -0.72    0.58
 -10  -8  11    0.65    0.54
 -10   8  11    0.57    0.57
 -10  -8  10   26.72    1.47
 -10   8  10   26.20    1.46
 -10  -8   9    7.42    0.84
 -10   8   9    7.43    0.84
 -10  -8   8    0.11    0.45
 -10   8   8    0.00    0.44
 -10  -8   7   -0.22    0.42
  10  -8  -7   -0.24    0.38
 -10   8   7   -0.53    0.45
 -10  -8   6    1.63    0.44
  10  -8  -6    1.01    0.36
  10   8  -6    1.75    0.45
 -10   8   6    1.33    0.41
  10  -8  -6    1.24    0.40
 -10  -8   5    1.84    0.46
  10  -8  -5    1.58    0.36
  10  -8  -5    1.53    0.41
  10   8  -5    1.56    0.39
  10  -8  -5    1.47    0.39
 -10   8   5    2.24    0.45
 -10  -8   4   99.21    2.35
  10  -8  -4  103.64    2.80
  10   8  -4  100.60    2.93
  10  -8  -4   99.21    2.57
  10  -8  -4   98.99    2.38
  10   8  -4   97.30    2.36
  10  -8  -4  103.72    2.27
  10   8  -3    8.29    0.87
  10  -8  -3    7.45    0.76
  10  -8  -3    7.15    0.67
  10  -8  -3    7.46    0.62
 -10  -8   3    7.80    0.56
  10   8  -3    7.22    0.60
  10  -8  -3    8.23    0.57
  10   8  -2   11.38    0.97
  10  -8  -2   11.23    0.90
  10  -8  -2   11.40    0.82
 -10  -8   2   10.85    0.61
  10  -8  -2   11.15    0.66
  10  -8  -2   11.54    0.63
  10   8  -2    9.57    0.61
  10  -8  -1    3.97    0.62
  10   8  -1    4.90    0.70
  10  -8  -1    4.59    0.58
  10  -8  -1    3.68    0.39
 -10  -8   1    3.92    0.39
  10  -8  -1    3.95    0.38
  10   8   0   41.71    1.74
  10   8   0   38.71    1.57
  10  -8   0   38.43    1.66
  10  -8   0   39.88    1.54
  10  -8   0   39.45    1.16
 -10  -8   0   41.70    1.17
  10  -8   0   38.70    1.07
 -10  -8   0   38.32    1.24
  10   8   1    1.09    0.42
  10  -8   1    0.49    0.37
  10   8   1    0.56    0.47
  10  -8   1    0.90    0.29
 -10  -8  -1    0.22    0.24
 -10  -8  -1    0.10    0.24
  10  -8   1    0.60    0.22
  10   8   2    3.55    0.55
  10  -8   2    3.04    0.53
  10   8   2    2.95    0.58
 -10  -8  -2    3.75    0.40
  10  -8   2    3.60    0.40
  10  -8   2    3.76    0.35
 -10  -8  -2    3.60    0.40
  10   8   3    5.02    0.74
  10  -8   3    4.54    0.66
 -10  -8  -3    4.98    0.45
  10  -8   3    5.12    0.46
  10  -8   3    5.01    0.39
 -10  -8  -3    4.94    0.45
 -10   8  -3    4.32    0.43
  10  -8   4   11.12    0.57
 -10  -8  -4   10.50    0.65
  10  -8   4   11.23    0.91
  10   8   4   10.80    0.96
  10  -8   5    2.62    0.35
  10  -8   5    2.61    0.57
  10   8   5    2.46    0.60
 -10  -8  -5    3.45    0.46
  10   8   6   18.72    1.28
  10  -8   6   20.37    1.28
 -10  -8  -6   19.28    0.97
  10   8   7   14.20    1.18
  10  -8   7   14.38    1.14
 -10  -8  -7   14.42    0.87
  10   8   8   29.10    1.66
  10  -8   8   30.67    1.69
  10   8   9    1.82    0.67
  10  -8   9    2.07    0.72
  10   8  10   -0.05    0.55
  10  -8  10    1.08    0.62
 -10  -9  12    0.92    0.61
 -10   9  12   -0.36    0.66
 -10  -9  11    5.29    0.85
 -10   9  11    4.09    0.77
 -10  -9  10    1.54    0.56
 -10   9  10    1.10    0.57
 -10  -9   9   43.14    1.82
 -10   9   9   42.61    1.81
 -10  -9   8    6.58    0.77
  10  -9  -8    7.21    0.73
 -10   9   8    6.49    0.77
 -10  -9   7    5.19    0.66
  10  -9  -7    5.57    0.65
 -10   9   7    4.93    0.66
  10  -9  -7    5.46    0.62
 -10  -9   6    2.45    0.52
  10  -9  -6    2.07    0.45
  10  -9  -6    2.29    0.45
 -10   9   6    3.31    0.54
 -10  -9   5    6.22    0.64
  10  -9  -5    5.68    0.55
  10  -9  -5    5.50    0.67
  10  -9  -5    6.72    0.63
  10   9  -5    5.90    0.62
  10  -9  -5    6.19    0.60
  10   9  -4    9.33    0.94
  10  -9  -4    9.33    0.85
  10  -9  -4    7.78    0.69
  10   9  -4    7.87    0.69
  10  -9  -4    8.19    0.71
 -10  -9   4    9.00    0.67
  10  -9  -4    8.03    0.61
  10  -9  -3   45.07    1.78
  10   9  -3   43.88    1.87
  10  -9  -3   43.69    1.57
  10  -9  -3   45.89    1.53
 -10  -9   3   47.08    1.42
  10   9  -3   42.20    1.45
  10  -9  -3   43.01    1.35
  10   9  -2   12.64    1.04
  10  -9  -2   13.76    1.00
  10  -9  -2   12.69    0.84
 -10  -9   2   14.59    0.77
  10  -9  -2   14.12    0.79
  10  -9  -2   13.79    0.72
  10   9  -2   13.78    0.77
  10  -9  -1   10.53    0.89
  10   9  -1   13.07    1.04
  10  -9  -1   11.99    0.85
  10  -9  -1   11.59    0.70
 -10  -9   1   11.93    0.68
  10  -9  -1   11.38    0.63
  10  -9   0    0.99    0.49
  10   9   0    1.00    0.43
  10  -9   0    1.03    0.43
  10   9   0    0.95    0.50
 -10  -9   0    0.91    0.30
  10  -9   0    0.22    0.30
  10  -9   0    0.84    0.28
 -10  -9   0    0.56    0.32
  10   9   1    7.90    0.74
  10  -9   1    7.84    0.72
  10   9   1    8.43    0.84
 -10  -9  -1    8.19    0.57
  10  -9   1    9.72    0.62
  10  -9   1    8.24    0.52
 -10  -9  -1    9.08    0.64
  10   9   2    1.28    0.45
  10  -9   2    2.09    0.52
  10   9   2    2.25    0.59
 -10  -9  -2    1.56    0.33
  10  -9   2    2.96    0.44
  10  -9   2    1.75    0.32
 -10  -9  -2    1.20    0.34
  10  -9   3   30.51    1.42
  10   9   3   30.95    1.54
  10  -9   3   33.22    1.13
 -10  -9  -3   31.82    1.14
 -10  -9  -3   31.57    1.13
 -10   9  -3   32.36    1.17
  10  -9   4    8.96    0.55
 -10  -9  -4    7.76    0.62
  10  -9   4    9.12    0.63
  10   9   4    8.87    0.90
  10  -9   4    8.44    0.82
  10  -9   5   11.57    0.64
  10   9   5   11.10    0.97
  10  -9   5   11.76    0.97
 -10  -9  -5   11.18    0.76
  10   9   6   -0.88    0.59
  10  -9   6   -0.18    0.47
 -10  -9  -6   -0.73    0.44
  10   9   7   42.84    1.95
  10  -9   7   45.39    1.97
 -10  -9  -7   43.31    1.59
  10   9   8    4.71    0.80
  10  -9   8    4.65    0.81
  10   9   9   12.29    1.19
  10  -9   9   10.63    1.08
  10  -9  10    3.18    0.76
  10   9  10    2.36    0.69
 -10 -10  12    0.82    0.58
 -10  10  12    0.29    0.70
 -10 -10  11   16.26    1.27
 -10  10  11   15.99    1.30
 -10 -10  10   10.71    1.03
 -10  10  10   11.45    1.07
 -10 -10   9    2.33    0.64
 -10  10   9    2.52    0.65
  10 -10  -8   21.90    1.19
 -10 -10   8   19.77    1.22
  10 -10  -8   20.84    1.25
 -10  10   8   20.55    1.28
 -10 -10   7    2.61    0.59
  10 -10  -7    2.68    0.49
  10 -10  -7    3.24    0.56
 -10  10   7    2.50    0.58
  10 -10  -6   12.51    0.86
 -10 -10   6   10.94    0.88
  10 -10  -6   10.90    0.85
  10 -10  -5   37.91    1.48
  10 -10  -5   38.26    1.67
 -10 -10   5   37.44    1.42
  10 -10  -5   37.08    1.51
  10 -10  -4   75.04    2.11
  10 -10  -4   76.56    2.38
  10  10  -4   75.32    2.55
 -10 -10   4   79.65    2.07
  10 -10  -4   69.78    2.15
  10  10  -4   68.37    2.12
  10 -10  -4   77.13    2.01
  10 -10  -3    1.49    0.47
  10  10  -3    0.75    0.50
  10 -10  -3    0.54    0.31
  10 -10  -3    0.21    0.39
 -10 -10   3    0.08    0.32
  10 -10  -3    0.46    0.30
  10  10  -3    0.43    0.35
  10  10  -2   27.86    1.47
  10 -10  -2   28.52    1.40
  10 -10  -2   26.31    1.19
 -10 -10   2   26.12    1.08
  10 -10  -2   27.78    1.17
  10  10  -2   28.05    1.14
  10 -10  -2   27.00    1.05
  10 -10  -1    0.80    0.47
  10  10  -1    1.09    0.42
  10 -10  -1    1.76    0.45
  10  10  -1    0.42    0.46
  10 -10  -1    1.23    0.34
 -10 -10   1    1.07    0.32
  10 -10  -1    1.03    0.31
  10  10   0   17.50    1.05
  10  10   0   17.13    1.14
  10 -10   0   17.57    1.00
  10 -10   0   18.09    0.88
 -10 -10   0   19.45    0.91
  10 -10   0   18.49    0.84
 -10 -10   0   16.48    0.91
  10  10   1    5.97    0.65
  10 -10   1    6.79    0.68
  10  10   1    6.64    0.79
  10 -10   1    6.74    0.57
 -10 -10  -1    5.81    0.54
  10 -10   1    6.64    0.53
 -10 -10  -1    6.33    0.67
  10  10   2   21.99    1.16
  10 -10   2   23.15    1.22
  10  10   2   22.76    1.30
 -10 -10  -2   22.77    0.99
  10 -10   2   24.56    1.02
 -10 -10  -2   23.53    1.03
 -10 -10  -3    0.60    0.33
  10 -10   3    0.27    0.31
  10  10   3    0.48    0.49
  10 -10   3    0.22    0.39
  10 -10   4   17.48    0.90
 -10 -10  -4   16.50    0.92
  10 -10   4   16.16    1.07
  10  10   4   16.34    1.15
  10 -10   5   -0.20    0.34
  10 -10   5    0.12    0.44
  10  10   5   -0.38    0.46
 -10 -10  -5    0.46    0.35
  10  10   6    3.14    0.71
  10 -10   6    3.45    0.67
 -10 -10  -6    1.22    0.40
  10 -10   7    1.43    0.59
  10  10   7    2.04    0.62
 -10 -10  -7    1.29    0.46
  10 -10   8   19.15    1.38
  10  10   8   19.77    1.37
  10 -10   9    2.55    0.69
  10  10   9    1.53    0.63
  10  10  10    3.26    0.76
 -10  11  12    0.96    0.62
 -10 -11  11   32.17    1.76
 -10  11  11   28.56    1.73
 -10 -11  10    4.80    0.82
 -10  11  10    4.68    0.80
  10 -11  -9   30.62    1.43
 -10 -11   9   29.97    1.60
  10 -11  -9   31.68    1.66
 -10  11   9   31.01    1.66
 -10 -11   8    4.41    0.71
  10 -11  -8    4.19    0.60
  10 -11  -8    4.87    0.76
 -10  11   8    3.78    0.68
 -10 -11   7    0.92    0.49
  10 -11  -7    1.86    0.46
  10 -11  -7    2.20    0.51
  10 -11  -6    0.87    0.37
 -10 -11   6    0.38    0.45
  10 -11  -6    0.74    0.46
  10 -11  -6    0.24    0.40
  10 -11  -5   36.01    1.42
  10 -11  -5   34.87    1.60
  10 -11  -5   34.84    1.56
 -10 -11   5   36.43    1.45
  10 -11  -4    3.31    0.59
  10  11  -4    4.09    0.74
  10 -11  -4    2.41    0.48
  10 -11  -4    2.90    0.58
 -10 -11   4    2.47    0.46
  10 -11  -3    2.76    0.53
  10  11  -3    2.16    0.59
  10 -11  -3    2.76    0.44
  10 -11  -3    2.68    0.47
 -10 -11   3    2.90    0.49
  10  11  -3    2.35    0.49
  10 -11  -3    3.91    0.49
  10 -11  -2   -0.17    0.41
  10 -11  -2   -0.09    0.33
  10  11  -2    0.01    0.44
  10 -11  -2    0.15    0.35
 -10 -11   2    0.38    0.38
  10 -11  -2    0.08    0.29
  10  11  -2   -0.06    0.33
  10 -11  -1    0.30    0.40
  10  11  -1    0.19    0.36
  10 -11  -1   -0.05    0.33
  10  11  -1    0.39    0.46
  10 -11  -1    0.52    0.38
 -10 -11   1   -0.15    0.35
  10 -11  -1    0.56    0.34
  10  11   0    9.31    0.79
  10 -11   0    8.75    0.74
  10  11   0    9.79    0.90
  10 -11   0    9.01    0.69
 -10 -11   0    9.61    0.71
 -10 -11   0    6.85    0.66
  10 -11   0    8.48    0.63
  10  11   1   13.09    0.89
  10 -11   1   12.86    0.89
  10  11   1   12.39    1.00
 -10 -11  -1   12.07    0.76
  10 -11   1   13.74    0.82
 -10 -11  -1   11.74    0.83
  10  11   2    6.01    0.65
  10 -11   2    5.72    0.68
  10  11   2    6.78    0.80
  10 -11   2    6.53    0.61
 -10 -11  -2    5.51    0.56
  10 -11   3   12.76    0.95
  10  11   3   13.82    1.06
  10 -11   3   14.86    0.85
 -10 -11  -3   14.17    0.86
  10  11   4    0.13    0.42
  10 -11   4    0.27    0.40
 -10 -11  -4    0.96    0.40
  10 -11   4    1.11    0.40
  10  11   5    3.07    0.63
  10 -11   5    3.08    0.61
 -10 -11  -5    2.45    0.48
  10 -11   5    3.32    0.51
  10  11   6    0.72    0.48
  10 -11   6    0.68    0.46
 -10 -11  -6   -0.07    0.40
  10 -11   7    5.85    0.81
  10  11   7    7.52    0.90
  10  11   8    2.56    0.69
  10 -11   8    0.86    0.57
  10 -11   9   11.12    1.16
  10  11   9    9.53    1.03
  10  11  10    0.19    0.54
 -10 -12  11    3.26    0.78
 -10  12  11    3.21    0.80
 -10 -12  10    7.27    0.90
  10 -12 -10    8.11    1.01
 -10  12  10    7.67    0.95
 -10 -12   9    5.03    0.83
  10 -12  -9    4.30    0.76
 -10  12   9    3.86    0.82
 -10 -12   8    9.98    0.97
  10 -12  -8   11.43    1.00
  10 -12  -7    1.78    0.45
 -10 -12   7    1.55    0.51
  10 -12  -7    3.29    0.65
  10 -12  -7    1.79    0.52
  10 -12  -6    4.86    0.71
  10 -12  -6    5.08    0.61
 -10 -12   6    4.25    0.63
  10 -12  -6    4.36    0.70
  10 -12  -5    0.86    0.47
  10 -12  -5    0.41    0.51
 -10 -12   5    0.26    0.43
  10 -12  -5    1.21    0.40
  10 -12  -4    0.27    0.43
  10  12  -4    0.75    0.51
  10 -12  -4    1.47    0.51
 -10 -12   4    1.35    0.48
  10 -12  -4    1.43    0.39
  10 -12  -3   30.90    1.49
  10  12  -3   31.32    1.64
  10 -12  -3   33.11    1.45
 -10 -12   3   34.04    1.39
  10 -12  -3   33.36    1.31
  10 -12  -2    2.51    0.51
 -10 -12   2    3.02    0.53
  10 -12  -2    3.01    0.54
  10 -12  -2    1.62    0.34
  10  12  -2    1.69    0.53
  10  12  -1    0.52    0.39
  10 -12  -1    0.94    0.45
 -10 -12   1    0.18    0.36
  10 -12  -1    0.08    0.36
  10  12  -1   -0.46    0.46
  10  12   0    3.18    0.50
 -10 -12   0    3.77    0.53
  10 -12   0    2.86    0.49
  10 -12   0    3.81    0.54
  10  12   0    3.60    0.64
  10  12   1    8.45    0.72
  10 -12   1    8.52    0.73
 -10 -12  -1    7.60    0.67
  10 -12   1    8.97    0.76
  10  12   1    9.56    0.90
  10  12   2   19.28    1.05
  10 -12   2   19.18    1.09
  10  12   2   19.37    1.22
 -10 -12  -2   19.12    1.02
  10 -12   2   20.81    1.07
  10  12   3    1.55    0.51
  10 -12   3    2.18    0.50
 -10 -12  -3    2.56    0.46
  10 -12   3    3.55    0.52
  10  12   4    1.63    0.53
  10 -12   4    2.13    0.53
 -10 -12  -4    2.41    0.48
  10 -12   4    2.65    0.50
  10  12   5    7.38    0.83
  10 -12   5    8.03    0.85
 -10 -12  -5    8.31    0.75
  10 -12   5    8.90    0.76
  10 -12   6   -0.44    0.52
  10  12   6    0.48    0.48
 -10 -12  -6    0.04    0.41
  10 -12   7    4.69    0.79
  10  12   7    4.25    0.73
  10 -12   8   10.73    1.06
  10  12   8   12.46    1.13
  10  12   9    1.45    0.65
  10 -12   9   -0.40    0.57
  10  12  10   -0.37    0.58
  10 -13 -11    3.97    0.86
 -10 -13  10   12.27    1.17
  10 -13 -10   11.85    1.14
 -10  13  10   11.89    1.21
 -10 -13   9   22.93    1.46
  10 -13  -9   20.85    1.41
 -10 -13   8    2.03    0.67
  10 -13  -8    1.42    0.53
  10 -13  -8    2.39    0.65
 -10 -13   7    0.60    0.53
  10 -13  -7    0.51    0.44
  10 -13  -7    0.45    0.52
  10 -13  -6    0.18    0.43
 -10 -13   6    0.81    0.52
  10 -13  -6    0.21    0.49
  10 -13  -5   19.52    1.23
  10  13  -5   20.11    1.35
 -10 -13   5   20.33    1.17
  10 -13  -5   19.31    1.27
  10 -13  -5   18.79    0.98
  10 -13  -4   37.12    1.66
  10  13  -4   36.31    1.78
  10 -13  -4   37.79    1.68
 -10 -13   4   39.09    1.61
  10 -13  -4   39.87    1.42
  10 -13  -3   61.45    2.16
  10  13  -3   66.54    2.37
  10 -13  -3   62.05    2.10
 -10 -13   3   62.02    2.02
  10 -13  -3   65.59    1.87
  10  13  -2   37.74    1.75
 -10 -13   2   38.74    1.56
  10 -13  -2   38.73    1.59
  10 -13  -2   37.43    1.36
  10  13  -1   12.21    0.88
  10 -13  -1   10.50    0.85
 -10 -13   1    9.73    0.80
  10 -13  -1   10.45    0.74
  10  13  -1   10.77    0.96
  10  13   0   20.58    1.09
 -10 -13   0   17.17    1.03
  10 -13   0   17.94    1.07
  10 -13   0   20.76    1.07
  10  13   0   16.53    1.17
  10  13   1    1.85    0.41
  10  13   1    1.07    0.47
  10 -13   1    2.43    0.47
  10 -13   1    1.41    0.42
 -10 -13  -1   -0.07    0.42
  10 -13   2    0.36    0.37
  10  13   2   -0.26    0.44
  10 -13   2    0.37    0.39
 -10 -13  -2   -0.19    0.38
  10  13   3    0.20    0.44
  10 -13   3    1.76    0.48
 -10 -13  -3    1.85    0.49
  10 -13   3    1.77    0.51
  10  13   4    1.58    0.51
  10 -13   4    2.13    0.56
 -10 -13  -4    2.28    0.52
  10 -13   4    2.73    0.52
  10  13   5    1.98    0.55
  10 -13   5    1.60    0.55
  10 -13   5    1.33    0.47
 -10 -13  -5    0.87    0.44
  10 -13   6    8.85    0.91
  10  13   6    7.34    0.84
  10 -13   6   10.61    0.87
  10 -13   7   10.90    1.04
  10  13   7   10.15    0.99
  10  13   8    2.81    0.72
  10 -13   8    2.34    0.69
  10 -13   9    2.28    0.67
  10  13   9   -0.08    0.55
  10 -14 -10   16.78    1.41
 -10 -14   9    4.50    0.88
  10 -14  -9    4.94    0.85
 -10 -14   8    2.66    0.66
  10 -14  -8    3.36    0.66
  10 -14  -8    3.05    0.70
 -10 -14   7    1.19    0.57
  10 -14  -7    1.31    0.47
 -10 -14   7    2.31    0.63
  10 -14  -7    1.07    0.57
  10 -14  -6   -0.22    0.45
 -10 -14   6    0.23    0.46
  10 -14  -6   -1.06    0.67
  10 -14  -5    8.35    0.86
  10  14  -5    7.73    0.94
  10 -14  -5    8.32    0.93
 -10 -14   5    8.91    0.88
  10 -14  -4   12.83    1.01
  10  14  -4   13.06    1.13
  10 -14  -4   11.78    1.07
 -10 -14   4   15.36    1.08
  10  14  -3    9.15    0.96
  10 -14  -3    6.60    0.73
  10 -14  -3    7.63    0.85
 -10 -14   3   10.25    0.86
  10  14  -2   23.45    1.38
  10 -14  -2   24.52    1.34
 -10 -14   2   23.23    1.25
  10  14  -1    0.26    0.36
 -10 -14   1    0.24    0.40
  10 -14  -1    0.22    0.45
  10  14  -1    0.12    0.45
  10 -14  -1    0.62    0.35
  10  14   0   11.98    0.84
 -10 -14   0   10.38    0.85
  10 -14   0   11.32    0.89
  10 -14   0   13.74    0.87
  10  14   0   11.88    1.00
  10  14   1    4.03    0.53
  10 -14   1    6.22    0.66
  10  14   1    4.63    0.69
  10 -14   1    3.63    0.60
 -10 -14  -1    3.43    0.55
  10 -14   2    1.27    0.43
  10  14   2   -0.05    0.45
  10 -14   2    0.76    0.43
 -10 -14  -2    0.89    0.44
  10  14   3   17.62    1.18
  10 -14   3   15.48    1.02
 -10 -14  -3   17.20    1.08
  10 -14   3   15.57    1.04
  10 -14   4    6.17    0.73
  10  14   4    6.06    0.78
 -10 -14  -4    6.35    0.73
  10 -14   4    6.80    0.76
  10  14   5    0.50    0.45
  10 -14   5    1.71    0.55
  10 -14   5    0.96    0.47
 -10 -14  -5    0.04    0.42
  10 -14   6    1.84    0.55
  10  14   6    1.62    0.59
  10  14   7   12.99    1.10
  10 -14   7   11.55    1.08
  10 -14   8    7.12    0.93
  10 -15  -9   12.35    1.22
 -10 -15   8    8.87    1.04
  10 -15  -8    9.92    1.11
 -10 -15   7   -0.01    0.49
  10 -15  -7    1.24    0.65
  10 -15  -6    0.94    0.51
  10 -15  -6    0.23    0.62
 -10 -15   6    2.06    0.60
  10  15  -5   10.47    1.04
  10 -15  -5   12.68    1.01
 -10 -15   5   13.30    1.10
  10 -15  -5   11.30    1.06
  10 -15  -4    7.84    0.81
  10  15  -4    8.89    0.97
  10 -15  -4    8.95    1.00
 -10 -15   4   10.48    0.96
  10  15  -3   16.11    1.20
 -10 -15   3   16.53    1.13
  10 -15  -3   15.27    1.14
  10  15  -2    3.96    0.68
 -10 -15   2    3.40    0.65
  10 -15  -2    3.71    0.68
  10  15  -1   -0.40    0.45
 -10 -15   1   -0.26    0.44
  10 -15  -1    0.23    0.44
  10  15   0   -0.14    0.43
 -10 -15   0   -0.34    0.45
  10 -15   0    0.88    0.46
  10  15   1    7.59    0.82
  10 -15   1    8.04    0.79
 -10 -15  -1    7.13    0.77
  10  15   2    9.05    0.88
  10 -15   2    9.43    0.90
 -10 -15  -2    8.44    0.83
  10  15   3   24.11    1.36
 -10 -15  -3   22.32    1.26
  10 -15   3   21.94    1.27
  10  15   4    1.54    0.51
 -10 -15  -4    1.15    0.47
  10 -15   4    1.73    0.53
  10 -15   5    0.48    0.47
  10  15   5    1.14    0.47
  10 -15   5    1.42    0.54
  10 -15   6    1.16    0.57
  10 -15   7   20.17    1.39
  10 -16  -8    6.40    0.97
  10 -16  -7    1.72    0.67
 -10 -16   7    3.06    0.74
  10  16  -6    5.38    0.88
  10 -16  -6    5.11    0.87
 -10 -16   6    3.62    0.71
  10  16  -5   11.92    1.12
  10 -16  -5   11.04    1.07
 -10 -16   5   11.42    1.04
  10  16  -4    7.96    0.94
 -10 -16   4    9.33    0.95
  10 -16  -4    8.67    0.96
  10 -16  -3    0.67    0.50
 -10 -16   3    0.98    0.52
  10  16  -3    1.06    0.51
 -10 -16   2    3.08    0.63
  10 -16  -2    2.96    0.63
  10  16  -2    3.67    0.70
  10 -16  -1    1.06    0.58
  10  16  -1    0.29    0.43
 -10 -16   0    4.73    0.70
  10 -16   0    4.14    0.71
  10  16   0    4.21    0.68
  10 -16   1    2.63    0.62
 -10 -16  -1    2.32    0.59
  10  16   1    3.57    0.64
 -10 -16  -2   16.45    1.13
  10 -16   2   15.69    1.13
  10  16   2   17.61    1.17
  10 -16   3    0.32    0.49
 -10 -16  -3    0.51    0.44
  10  16   3    0.55    0.44
  10 -16   4    1.75    0.60
 -10 -17   7    0.79    0.57
  10 -17  -7    0.12    0.63
  10  17  -6    0.47    0.53
 -10 -17   6    0.84    0.56
  10 -17  -6    0.82    0.60
  10  17  -5   10.05    1.04
  10 -17  -5    9.53    1.05
 -10 -17   5   10.67    1.06
  10  17  -4   17.65    1.30
 -10 -17   4   15.47    1.20
  10 -17  -4   18.65    1.36
  10  17  -3    1.58    0.57
 -10 -17   3    2.04    0.62
  10 -17  -3    2.30    0.66
  10  17  -2    0.13    0.46
 -10 -17   2   -0.72    0.52
  10  17  -1   -0.47    0.50
 -10 -17   1    0.38    0.51
  10 -17  -1    0.91    0.55
  10  17   0    3.40    0.64
 -10 -17   0    3.56    0.68
  10 -17   0    5.16    0.81
  10 -17   1   11.23    1.02
 -10 -17  -1   11.83    1.04
  10 -17   2    3.25    0.70
 -10 -17  -2    2.64    0.64
  10 -17   3    4.28    0.74
  10 -18  -6    6.85    0.99
 -10 -18   6    8.49    1.03
 -10 -18   5    4.89    0.82
  10 -18  -5    3.78    0.77
  10 -18  -4    9.29    1.05
 -10 -18   4    8.59    1.00
 -10 -18   3    8.11    0.91
  10 -18  -3    8.17    0.99
  10 -18  -2    0.97    0.62
 -10 -18   2   -0.43    0.55
 -10 -18   1    0.77    0.55
  10 -18  -1    3.05    0.71
 -10 -18   0    0.43    0.52
  10 -18   0    1.34    0.60
  10 -18   1    2.26    0.65
 -10 -18  -1    2.48    0.67
  10 -18   2    5.40    0.79
  10 -19  -4    8.66    1.10
 -10 -19   4    8.18    1.02
 -10 -19   3    2.19    0.69
  10 -19  -3    3.05    0.78
 -10 -19   2    3.99    0.79
  10 -19  -2    4.12    0.83
 -10 -19   1    2.50    0.68
  10 -19  -1    2.01    0.68
 -10 -19   0    3.26    0.70
  10 -19   0    3.52    0.74
  10 -19   1    7.63    1.01
 -11   0  14   10.65    1.13
 -11   0  13   -0.09    0.54
 -11   0  12   -0.81    0.57
 -11   0  11    0.14    0.47
 -11   0  10   -0.58    0.53
 -11   0   9    0.44    0.41
  11   0  -8   28.37    1.17
 -11   0   8   28.48    1.25
  11   0  -7   -0.81    0.35
 -11   0   7   -0.32    0.37
  11   0  -6   48.80    1.36
 -11   0   6   54.95    1.53
  11   0  -5   -0.35    0.47
  11   0  -5   -0.23    0.23
 -11   0   5    0.38    0.29
  11   0  -4   24.79    1.38
  11   0  -4   23.55    0.68
 -11   0   4   24.61    0.82
  11   0  -3   -0.17    0.48
 -11   0   3    0.06    0.19
  11   0  -2   81.63    2.53
  11   0  -2   81.76    2.52
  11   0  -1    0.30    0.47
  11   0  -1   -0.31    0.47
  11   0   0    4.86    0.69
  11   0   0    5.01    0.70
  11   0   1    0.30    0.41
  11   0   1   -0.51    0.51
  11   0   2    7.21    0.81
  11   0   2    6.91    0.81
  11   0   3    1.52    0.58
  11   0   4   13.04    1.06
  11   0   5   -0.56    0.54
  11   0   6    9.81    0.99
  11   0   7   -0.35    0.57
  11   0   8   44.31    2.07
  11   0   9    0.75    0.61
  11   0  10    4.09    0.84
 -11  -1  14    0.67    0.62
 -11   1  14   -0.04    0.57
 -11  -1  13    0.41    0.56
 -11   1  13   -0.07    0.58
 -11  -1  12   -0.58    0.58
 -11   1  12   -0.32    0.49
 -11  -1  11   -0.46    0.49
 -11   1  11   -0.34    0.53
 -11   1  10    4.62    0.66
 -11  -1  10    5.22    0.68
 -11  -1   9   43.72    1.65
 -11   1   9   44.22    1.66
  11  -1  -8   -1.24    0.45
  11   1  -8    0.15    0.33
 -11   1   8   -0.09    0.40
 -11  -1   8   -0.26    0.42
  11  -1  -7    5.77    0.53
  11   1  -7    7.02    0.57
 -11   1   7    5.85    0.58
 -11  -1   7    6.51    0.60
  11  -1  -6   12.87    0.67
  11   1  -6   12.01    0.66
 -11  -1   6   13.38    0.75
 -11   1   6   13.27    0.76
  11   1  -5   17.19    1.20
  11  -1  -5   18.04    1.19
  11  -1  -5   16.52    0.68
  11   1  -5   16.13    0.67
 -11  -1   5   17.01    0.76
 -11   1   5   17.19    0.76
  11  -1  -4    9.62    0.94
  11   1  -4    8.55    0.89
  11   1  -4    7.66    0.39
  11  -1  -4    7.80    0.40
 -11   1   4    8.07    0.48
 -11  -1   4    8.73    0.49
  11  -1  -3   37.20    1.63
  11   1  -3   36.13    1.64
 -11  -1   3   38.79    0.89
 -11   1   3   38.02    0.87
  11   1  -2    4.80    0.68
  11  -1  -2    4.09    0.66
  11  -1  -2    5.18    0.69
 -11  -1   2    4.67    0.21
  11   1  -1   42.50    1.79
  11  -1  -1   43.95    1.78
  11  -1  -1   47.10    1.87
  11   1  -1   44.41    1.83
  11   1   0   -0.26    0.46
  11  -1   0   -0.44    0.41
  11   1   0   -0.51    0.47
  11  -1   0    0.04    0.43
  11   1   1   -0.54    0.46
  11  -1   1   -0.16    0.42
  11   1   1    0.61    0.50
  11  -1   1   -0.28    0.44
  11  -1   2    0.05    0.44
  11   1   2    0.41    0.47
  11   1   2    0.19    0.45
  11  -1   2   -0.10    0.45
  11   1   3   77.87    2.54
  11  -1   3   79.46    2.52
  11   1   4    0.37    0.51
  11  -1   4    0.60    0.49
  11   1   5    8.90    0.90
  11  -1   5   10.16    0.95
  11   1   6    3.63    0.69
  11  -1   6    4.32    0.76
  11   1   7    8.96    0.99
  11  -1   7    7.38    0.94
  11   1   8    3.54    0.76
  11  -1   8    3.65    0.82
  11   1   9   13.65    1.24
  11  -1   9   13.72    1.23
  11   1  10    1.44    0.64
 -11   2  14    2.90    0.71
 -11  -2  14    2.43    0.72
 -11   2  13   -0.10    0.56
 -11  -2  13    2.98    0.70
 -11  -2  12    0.04    0.50
 -11   2  12   -0.76    0.55
 -11   2  11    4.25    0.71
 -11  -2  11    4.25    0.69
 -11  -2  10   34.31    1.53
 -11   2  10   30.86    1.47
 -11   2   9    0.45    0.44
 -11  -2   9    0.66    0.45
  11  -2  -8   42.07    1.46
  11   2  -8   43.25    1.49
 -11   2   8   43.52    1.56
 -11  -2   8   43.64    1.57
  11   2  -7    3.90    0.48
  11  -2  -7    4.65    0.51
 -11  -2   7    4.92    0.58
 -11   2   7    4.81    0.55
  11   2  -6    1.12    0.31
  11  -2  -6    1.19    0.28
 -11  -2   6    1.98    0.40
 -11   2   6    1.58    0.35
  11   2  -5    1.46    0.55
  11  -2  -5    1.33    0.53
  11   2  -5    1.22    0.26
  11  -2  -5    0.89    0.24
 -11  -2   5    0.77    0.27
 -11   2   5    1.08    0.29
  11   2  -4   83.47    2.67
  11  -2  -4   84.75    2.58
  11   2  -4   83.01    1.60
  11  -2  -4   86.69    1.60
 -11   2   4   86.49    1.78
 -11  -2   4   91.56    1.83
  11   2  -3    2.31    0.62
  11  -2  -3    2.88    0.59
  11  -2  -3    1.80    0.20
  11   2  -3    2.19    0.20
  11  -2  -3    2.28    0.18
 -11   2   3    1.95    0.24
 -11  -2   3    2.33    0.27
  11  -2  -2   20.08    1.26
  11   2  -2   19.64    1.24
  11  -2  -2   19.32    1.19
 -11  -2   2   21.01    0.54
  11   2  -1   21.77    1.31
  11   2  -1   21.32    1.26
  11  -2  -1   21.93    1.28
  11  -2  -1   20.38    1.22
  11   2   0    0.71    0.46
  11  -2   0    0.69    0.44
  11  -2   0    0.59    0.43
  11   2   0    0.26    0.44
  11   2   1    6.82    0.80
  11  -2   1    7.46    0.81
  11   2   1    6.89    0.78
  11  -2   1    6.88    0.80
  11   2   2   22.53    1.33
  11  -2   2   24.65    1.36
  11   2   2   21.79    1.29
  11  -2   2   21.86    1.30
  11   2   3    7.94    0.91
  11  -2   3    7.63    0.90
  11   2   4   30.68    1.59
  11  -2   4   27.99    1.47
  11   2   5    0.22    0.50
  11  -2   5    0.55    0.51
  11   2   6   -0.43    0.57
  11  -2   6    0.70    0.50
  11   2   7    0.28    0.54
  11  -2   7    0.57    0.57
  11   2   8   10.53    1.12
  11  -2   8   12.44    1.20
  11   2   9    2.65    0.80
  11  -2   9    3.08    0.74
  11   2  10    7.56    1.03
 -11   3  13   11.46    1.14
 -11  -3  13   13.66    1.20
 -11   3  12   -0.07    0.52
 -11  -3  12   -0.02    0.50
 -11   3  11   17.84    1.20
 -11  -3  11   16.89    1.20
 -11  -3  10   -0.17    0.50
 -11   3  10    0.11    0.46
 -11  -3   9   31.73    1.42
 -11   3   9   29.83    1.39
  11   3  -8    8.90    0.72
 -11  -3   8   10.28    0.80
 -11   3   8    8.95    0.75
  11  -3  -7    3.91    0.51
 -11  -3   7    3.34    0.49
  11   3  -7    2.71    0.43
 -11   3   7    2.96    0.47
  11  -3  -6    3.31    0.45
  11  -3  -6    2.80    0.59
 -11  -3   6    3.76    0.48
  11   3  -6    2.90    0.40
 -11   3   6    3.97    0.46
  11  -3  -5   27.09    1.43
  11  -3  -5   29.16    1.01
  11   3  -5   27.60    0.92
 -11   3   5   26.54    1.01
 -11  -3   5   28.22    1.02
  11  -3  -4    0.49    0.49
 -11  -3   4    0.15    0.25
  11   3  -4   -0.11    0.45
  11   3  -4    0.16    0.22
 -11   3   4   -0.20    0.26
  11  -3  -4    0.47    0.23
  11  -3  -3   42.77    1.74
  11   3  -3   45.29    1.88
  11  -3  -3   42.60    0.88
  11  -3  -3   40.56    0.95
  11   3  -3   39.70    0.91
 -11  -3   3   44.44    1.09
 -11   3   3   45.51    1.08
  11   3  -2    2.45    0.59
  11  -3  -2    2.52    0.55
  11  -3  -2    2.68    0.63
 -11  -3   2    2.13    0.24
  11   3  -1   -0.05    0.42
  11  -3  -1    0.55    0.45
  11  -3  -1    0.01    0.49
  11   3  -1    0.11    0.43
 -11  -3   1    0.42    0.09
 -11  -3   1    0.41    0.09
  11   3   0    0.44    0.45
  11  -3   0   -0.44    0.44
  11  -3   0    0.42    0.48
  11   3   0   -0.34    0.44
  11   3   1    2.39    0.58
  11  -3   1    3.91    0.67
  11   3   1    3.33    0.63
  11  -3   1    2.41    0.57
  11  -3   2    2.13    0.58
  11   3   2    2.20    0.56
  11   3   2    2.24    0.59
  11  -3   2    2.78    0.64
  11   3   3   82.67    2.63
  11  -3   3   80.49    2.50
  11   3   3   73.03    2.44
  11   3   4    0.33    0.50
  11  -3   4    0.75    0.50
  11   3   5    8.51    0.88
  11  -3   5    9.57    0.92
  11   3   6    0.83    0.55
  11  -3   6   -0.17    0.48
  11  -3   7    1.09    0.57
  11   3   7    0.01    0.51
  11   3   8    0.76    0.56
  11  -3   8    1.07    0.65
  11   3   9   15.43    1.36
  11  -3   9   17.98    1.38
  11   3  10    0.80    0.60
 -11   4  13    1.90    0.65
 -11  -4  13    1.55    0.59
 -11  -4  12    0.77    0.54
 -11   4  12   -0.04    0.51
 -11  -4  11    0.69    0.48
 -11   4  11    0.39    0.48
 -11  -4  10   21.13    1.24
 -11   4  10   22.76    1.30
 -11  -4   9    5.31    0.67
 -11   4   9    4.21    0.65
 -11   4   8   74.81    2.15
 -11  -4   8   72.54    2.13
  11  -4  -7   -0.08    0.35
 -11  -4   7   -0.20    0.39
  11   4  -7   -0.06    0.33
 -11   4   7   -0.44    0.39
  11  -4  -6   -0.04    0.30
  11  -4  -6   -0.17    0.45
 -11  -4   6    0.41    0.35
  11   4  -6    0.19    0.28
 -11   4   6    0.10    0.32
  11  -4  -5   31.96    1.08
  11  -4  -5   31.47    1.52
  11   4  -5   29.95    1.02
 -11  -4   5   31.75    1.12
 -11   4   5   31.85    1.13
  11  -4  -4   35.64    1.60
  11   4  -4   37.13    1.74
  11  -4  -4   38.07    1.10
  11   4  -4   36.02    1.04
  11  -4  -4   36.89    1.05
 -11   4   4   38.96    1.16
 -11  -4   4   39.99    1.18
  11  -4  -3    0.23    0.19
 -11  -4   3   -0.06    0.25
  11   4  -3   -0.28    0.52
  11  -4  -3    0.88    0.54
  11  -4  -3    0.34    0.43
  11  -4  -3    0.28    0.22
  11   4  -3    0.28    0.20
  11   4  -2   34.44    1.66
  11  -4  -2   36.06    1.65
  11  -4  -2   34.18    1.52
  11  -4  -2   33.20    0.68
 -11  -4   2   35.02    0.90
  11  -4  -1   14.66    1.02
  11   4  -1   13.79    1.08
  11   4  -1   14.76    1.08
  11  -4  -1   13.30    1.04
 -11  -4   1   15.35    0.49
 -11  -4   1   14.75    0.49
  11  -4   0   11.58    0.92
  11   4   0   11.30    0.94
  11  -4   0   10.97    0.96
  11   4   0   10.32    0.95
  11   4   1   17.99    1.20
  11  -4   1   16.54    1.09
  11   4   1   18.01    1.16
  11  -4   1   16.90    1.16
  11   4   2   16.21    1.16
  11  -4   2   17.05    1.12
  11   4   2   13.91    1.05
  11  -4   2   15.24    1.12
  11   4   3    4.69    0.76
  11  -4   3    7.07    0.79
  11   4   3    5.01    0.70
  11  -4   4   29.98    1.53
  11   4   4   28.79    1.57
  11   4   5    0.69    0.52
  11  -4   5    0.93    0.55
  11   4   6   -0.11    0.51
  11  -4   6   -0.08    0.46
  11  -4   7    0.08    0.49
  11   4   7   -0.47    0.59
  11   4   8   13.41    1.21
  11  -4   8   14.70    1.23
  11   4   9    1.19    0.61
  11  -4   9    3.05    0.77
  11   4  10    1.59    0.67
 -11  -5  13    2.76    0.72
 -11   5  13    2.27    0.71
 -11  -5  12    0.94    0.55
 -11   5  12    1.15    0.61
 -11  -5  11    0.11    0.49
 -11   5  11    1.17    0.57
 -11  -5  10    2.02    0.57
 -11   5  10    1.29    0.51
 -11   5   9   45.35    1.75
 -11  -5   9   47.34    1.78
 -11  -5   8    4.31    0.62
 -11   5   8    4.49    0.63
  11  -5  -7    0.94    0.41
 -11  -5   7    0.12    0.38
  11   5  -7    0.82    0.36
 -11   5   7    1.27    0.42
 -11  -5   6    9.22    0.69
  11  -5  -6   10.06    0.68
  11  -5  -6    7.58    0.79
  11   5  -6    7.83    0.62
 -11   5   6    9.10    0.69
  11  -5  -5    1.38    0.49
 -11  -5   5    0.34    0.30
  11  -5  -5    0.28    0.27
  11   5  -5    0.61    0.28
 -11   5   5    0.76    0.34
  11  -5  -5    0.97    0.33
  11   5  -4    1.09    0.55
 -11  -5   4    0.34    0.27
  11  -5  -4    0.17    0.25
  11  -5  -4    0.38    0.46
  11   5  -4    0.01    0.27
  11  -5  -4    0.67    0.30
 -11   5   4    0.77    0.30
  11  -5  -3   37.01    1.68
 -11  -5   3   37.78    1.11
  11  -5  -3   37.53    1.02
  11   5  -3   34.05    1.68
  11  -5  -3   36.52    1.58
  11  -5  -3   36.60    1.07
  11   5  -3   34.88    0.99
  11  -5  -2    0.73    0.19
 -11  -5   2    1.07    0.26
  11  -5  -2    0.26    0.43
  11   5  -2    0.52    0.46
  11  -5  -2    0.12    0.41
  11  -5  -2    0.76    0.20
  11   5  -1   49.85    1.91
  11  -5  -1   50.66    1.94
 -11  -5   1   52.23    1.12
  11  -5  -1   46.45    0.86
  11   5  -1   47.94    1.97
  11  -5  -1   50.33    1.83
  11  -5  -1   46.25    0.85
 -11  -5   1   50.99    1.15
  11   5   0    0.86    0.55
  11  -5   0    1.54    0.50
 -11  -5   0    0.24    0.17
  11  -5   0    0.21    0.45
  11   5   0    0.39    0.44
 -11  -5   0    0.45    0.17
  11  -5   1   -0.12    0.42
  11   5   1    0.22    0.43
 -11  -5  -1    0.12    0.14
  11   5   1    0.31    0.45
  11  -5   1    0.42    0.46
 -11  -5  -1    0.19    0.13
  11   5   2   -0.54    0.47
 -11  -5  -2    0.16    0.10
  11  -5   2   -0.15    0.43
  11   5   2    0.70    0.45
  11   5   3   29.10    1.46
  11   5   3   31.42    1.60
  11  -5   3   33.42    1.55
  11   5   4    1.47    0.58
  11  -5   4    1.81    0.61
 -11  -5  -4    1.83    0.23
  11   5   5    9.06    0.92
  11  -5   5    9.60    0.95
  11   5   6   -0.82    0.59
  11  -5   6   -0.37    0.52
  11  -5   7    3.77    0.75
  11   5   7    3.17    0.67
  11  -5   8    1.13    0.57
  11   5   8    0.26    0.53
  11   5   9   10.77    1.12
  11  -5   9   11.23    1.15
 -11  -6  13    0.19    0.54
 -11   6  13   -0.48    0.59
 -11  -6  12    0.69    0.56
 -11   6  12    0.84    0.57
 -11  -6  11    1.07    0.55
 -11   6  11    1.16    0.58
 -11  -6  10   11.31    0.97
 -11   6  10    9.83    1.02
 -11  -6   9    7.00    0.81
 -11   6   9    5.57    0.74
 -11  -6   8   60.20    1.97
 -11   6   8   59.86    1.97
  11  -6  -7    3.05    0.58
 -11  -6   7    2.90    0.52
  11   6  -7    4.13    0.57
 -11   6   7    3.30    0.55
 -11  -6   6   12.18    0.81
  11  -6  -6   11.91    0.77
  11  -6  -6   12.30    0.96
  11   6  -6   11.50    0.74
 -11   6   6   12.49    0.82
  11  -6  -5    6.49    0.75
  11  -6  -5    6.70    0.54
 -11  -6   5    6.60    0.57
  11   6  -5    6.88    0.58
  11  -6  -5    7.41    0.57
 -11   6   5    7.54    0.60
  11   6  -4    7.29    0.88
 -11  -6   4    7.52    0.57
  11  -6  -4    7.36    0.81
  11  -6  -4    6.95    0.51
  11  -6  -4    8.04    0.59
  11   6  -4    7.34    0.56
  11  -6  -4    7.92    0.81
  11  -6  -3   16.21    1.16
  11  -6  -3   15.01    1.03
  11  -6  -3   14.33    0.65
 -11  -6   3   15.90    0.76
  11   6  -3   14.78    1.17
  11  -6  -3   15.19    0.74
  11   6  -3   14.23    0.67
  11   6  -2   22.03    1.37
  11  -6  -2   25.69    1.40
  11  -6  -2   26.51    0.80
 -11  -6   2   25.92    0.89
  11  -6  -2   26.11    1.30
  11  -6  -2   25.13    0.81
  11  -6  -1    1.10    0.51
 -11  -6   1    0.70    0.25
  11  -6  -1    1.11    0.21
  11   6  -1    0.89    0.50
  11   6  -1    0.98    0.47
  11  -6  -1    0.52    0.41
  11  -6  -1    0.74    0.18
 -11  -6   1    0.56    0.25
  11   6   0   27.22    1.48
  11   6   0   28.46    1.44
  11  -6   0   28.08    1.46
  11  -6   0   30.87    1.42
  11  -6   0   28.07    0.68
  11  -6   0   26.06    0.58
 -11  -6   0   30.27    0.84
  11   6   1   10.28    0.88
  11  -6   1   10.12    0.94
  11   6   1    9.73    0.92
  11  -6   1   10.61    0.90
 -11  -6  -1   10.17    0.35
 -11  -6  -1   10.07    0.44
  11   6   2    1.43    0.49
 -11  -6  -2    1.18    0.17
  11  -6   2    1.23    0.45
  11   6   2    1.83    0.55
  11   6   3   14.21    1.05
  11  -6   3   14.27    1.05
  11   6   3   12.56    1.07
 -11  -6  -3   13.24    0.49
  11  -6   4   38.42    1.71
  11   6   4   36.20    1.75
  11   6   5    0.32    0.46
  11  -6   5   -0.01    0.47
  11  -6   6    0.23    0.47
  11   6   6   -0.38    0.50
  11  -6   7   -0.14    0.56
  11   6   7   -0.73    0.62
  11   6   8   15.70    1.29
  11  -6   8   18.64    1.34
  11   6   9    4.55    0.84
  11  -6   9    2.99    0.72
 -11  -7  13    4.14    0.79
 -11   7  13    3.12    0.75
 -11  -7  12    0.13    0.55
 -11   7  12   -0.35    0.59
 -11  -7  11    0.26    0.50
 -11   7  11    0.01    0.50
 -11  -7  10    0.04    0.48
 -11   7  10    0.84    0.53
 -11  -7   9   40.10    1.69
 -11   7   9   39.49    1.69
  11  -7  -8    0.08    0.41
 -11  -7   8    1.19    0.50
 -11   7   8    0.78    0.47
  11  -7  -7    0.83    0.45
 -11  -7   7    1.22    0.45
 -11   7   7    0.47    0.39
  11  -7  -6    0.98    0.42
  11  -7  -6    1.59    0.40
 -11  -7   6    1.08    0.41
  11   7  -6    0.91    0.39
 -11   7   6    1.10    0.38
  11  -7  -6    1.95    0.45
  11  -7  -5   17.98    1.11
  11  -7  -5   18.59    0.90
 -11  -7   5   16.91    0.91
  11   7  -5   15.64    0.85
  11  -7  -5   18.04    0.92
 -11   7   5   18.12    0.95
  11  -7  -4   21.46    1.30
  11   7  -4   21.61    1.39
 -11  -7   4   22.68    0.99
  11  -7  -4   23.59    1.25
  11  -7  -4   20.54    0.97
  11   7  -4   20.25    0.95
  11  -7  -4   21.04    0.89
  11  -7  -3   43.64    1.84
  11  -7  -3   42.41    1.69
 -11  -7   3   46.34    1.36
  11   7  -3   40.57    1.88
  11   7  -3   43.14    1.27
  11  -7  -3   45.46    1.34
  11  -7  -3   42.72    1.22
  11  -7  -2   -0.03    0.45
 -11  -7   2   -0.10    0.27
  11  -7  -2    0.32    0.24
  11   7  -2    0.15    0.45
  11  -7  -2    0.10    0.40
  11  -7  -2   -0.13    0.25
  11  -7  -1    4.80    0.69
  11   7  -1    4.41    0.67
  11   7  -1    4.36    0.71
  11  -7  -1    5.39    0.63
  11  -7  -1    5.22    0.37
  11  -7  -1    5.79    0.37
 -11  -7   1    4.99    0.45
  11  -7   0    0.58    0.47
  11   7   0    0.36    0.43
  11  -7   0    0.14    0.39
  11   7   0    1.21    0.56
  11  -7   0    0.73    0.21
 -11  -7   0    0.41    0.18
 -11  -7   0    0.98    0.29
  11  -7   0    0.67    0.19
  11   7   1   10.49    0.91
  11  -7   1    9.61    0.92
  11   7   1    9.63    0.94
  11  -7   1    9.59    0.86
  11  -7   1    9.03    0.46
 -11  -7  -1    9.16    0.43
 -11  -7  -1    9.15    0.50
  11   7   2   15.00    1.06
  11  -7   2   11.71    0.37
  11   7   2   13.71    1.09
  11  -7   2   14.13    0.99
 -11  -7  -2   15.69    0.58
  11  -7   3   22.94    1.29
  11   7   3   22.19    1.38
 -11  -7  -3   23.81    0.76
  11   7   4    6.78    0.86
  11  -7   4    6.20    0.77
  11  -7   5    9.11    0.93
  11   7   5   10.82    1.03
  11  -7   6   -0.15    0.48
  11   7   6   -0.74    0.61
  11  -7   7    2.73    0.64
  11   7   7    3.04    0.73
  11  -7   8    0.87    0.53
  11   7   8    0.01    0.54
  11  -7   9   23.27    1.54
  11   7   9   19.41    1.46
 -11  -8  12    0.52    0.55
 -11   8  12    0.40    0.54
 -11  -8  11    4.99    0.81
 -11   8  11    5.91    0.84
 -11  -8  10   14.19    1.12
 -11   8  10   12.29    1.03
 -11  -8   9    0.02    0.49
 -11   8   9    0.45    0.55
 -11  -8   8   14.48    1.04
  11  -8  -8   11.79    0.96
 -11   8   8   14.21    1.00
  11  -8  -7    1.15    0.42
 -11  -8   7    2.05    0.51
 -11   8   7    1.10    0.44
  11  -8  -7    1.38    0.41
 -11  -8   6    4.93    0.61
  11  -8  -6    5.01    0.65
  11  -8  -6    4.94    0.57
 -11   8   6    4.87    0.62
 -11  -8   5    0.34    0.35
  11  -8  -5    0.27    0.30
  11  -8  -5   -0.52    0.54
  11  -8  -5    0.69    0.42
  11   8  -5    0.10    0.35
  11  -8  -5    0.19    0.35
  11  -8  -4   48.61    1.94
  11  -8  -4   44.32    1.72
  11   8  -4   45.92    2.00
 -11  -8   4   49.19    1.54
  11  -8  -4   43.63    1.51
  11   8  -4   40.35    1.44
  11  -8  -4   46.68    1.40
  11  -8  -3   32.70    1.59
  11   8  -3   32.17    1.68
 -11  -8   3   29.80    1.14
  11  -8  -3   28.83    1.37
  11  -8  -3   31.65    1.17
  11   8  -3   27.94    1.07
  11  -8  -3   30.33    1.05
  11  -8  -2    9.44    0.87
  11  -8  -2   10.14    0.84
  11   8  -2   10.30    0.97
 -11  -8   2   10.81    0.59
  11  -8  -2    9.11    0.59
  11  -8  -2   11.02    0.60
  11  -8  -1    0.75    0.48
  11   8  -1    0.52    0.42
  11   8  -1   -0.32    0.51
  11  -8  -1    0.28    0.37
  11  -8  -1   -0.47    0.31
 -11  -8   1    0.15    0.22
  11  -8  -1    0.37    0.22
 -11  -8   1    0.15    0.30
  11   8   0   27.40    1.42
  11   8   0   31.78    1.60
  11  -8   0   29.46    1.51
  11  -8   0   29.23    1.40
 -11  -8   0   29.35    0.92
  11  -8   0   28.82    0.93
 -11  -8   0   28.20    1.02
  11   8   1    8.43    0.80
  11  -8   1    8.37    0.51
 -11  -8  -1    7.98    0.47
  11  -8   1    7.42    0.76
  11   8   1    6.46    0.79
  11   8   2   14.35    1.03
  11  -8   2   13.85    1.00
  11   8   2   13.02    1.07
 -11  -8  -2   14.65    0.65
  11  -8   2   14.10    0.63
  11  -8   3   15.18    1.09
  11   8   3   15.97    1.22
 -11  -8  -3   15.90    0.71
  11  -8   4   48.40    1.93
  11   8   4   48.41    2.06
  11  -8   5    2.93    0.62
  11   8   5    2.82    0.64
  11  -8   6    1.54    0.59
  11   8   6    1.33    0.55
  11  -8   7   -0.83    0.54
  11   8   7   -0.31    0.57
  11  -8   8   10.41    1.04
  11   8   8   10.93    1.11
  11  -8   9    0.08    0.55
  11   8   9    0.69    0.60
 -11  -9  12   -0.02    0.54
 -11   9  12    0.20    0.58
 -11  -9  11   14.94    1.21
 -11   9  11   15.08    1.26
 -11  -9  10   -0.51    0.53
 -11   9  10    0.74    0.61
  11  -9  -9    8.96    0.85
 -11  -9   9   10.04    0.95
 -11   9   9    9.93    0.96
  11  -9  -8    8.65    0.83
 -11  -9   8    8.14    0.87
 -11   9   8    8.06    0.86
  11  -9  -8    9.09    0.84
 -11  -9   7    1.16    0.47
  11  -9  -7    1.50    0.44
  11  -9  -7    1.63    0.47
 -11   9   7    0.69    0.44
  11  -9  -6    1.31    0.42
 -11  -9   6    2.04    0.48
  11  -9  -6    0.85    0.37
  11  -9  -5    6.33    0.70
 -11  -9   5    6.11    0.65
  11   9  -5    5.71    0.82
  11  -9  -5    5.35    0.70
  11  -9  -5    5.15    0.60
 -11  -9   4    3.85    0.54
  11  -9  -4    3.42    0.44
  11   9  -4    3.62    0.72
  11  -9  -4    3.22    0.60
  11  -9  -4    3.40    0.49
  11  -9  -4    3.23    0.52
  11  -9  -3   92.44    2.77
  11   9  -3   88.94    2.84
  11  -9  -3   90.48    2.21
 -11  -9   3   95.66    2.12
  11  -9  -3   91.06    2.50
  11  -9  -2    3.40    0.64
  11  -9  -2    3.45    0.40
 -11  -9   2    3.98    0.43
  11   9  -2    3.15    0.67
  11  -9  -2    3.70    0.57
  11  -9  -1    4.52    0.69
  11   9  -1    3.66    0.62
  11  -9  -1    3.05    0.36
 -11  -9   1    4.43    0.44
  11  -9  -1    4.25    0.60
  11   9  -1    3.60    0.70
  11  -9   0   -0.16    0.44
  11   9   0   -0.11    0.39
  11  -9   0   -0.02    0.27
 -11  -9   0    0.33    0.27
  11  -9   0   -0.22    0.42
  11   9   0    0.67    0.54
  11   9   1   13.37    0.98
  11  -9   1   15.04    0.73
 -11  -9  -1   12.50    0.67
  11   9   1   13.44    1.10
  11  -9   1   12.22    0.92
  11   9   2   -0.40    0.43
  11  -9   2    0.51    0.43
  11   9   2    0.31    0.47
 -11  -9  -2   -0.01    0.26
  11  -9   2    0.10    0.27
  11  -9   3   29.39    1.45
  11   9   3   30.14    1.60
 -11  -9  -3   30.13    1.06
  11  -9   3   28.79    1.03
  11   9   4    1.84    0.62
  11  -9   4    2.54    0.68
  11  -9   5    0.36    0.47
  11   9   5    0.24    0.50
  11  -9   6    1.54    0.56
  11   9   6    0.07    0.56
  11  -9   7    1.00    0.54
  11   9   7    0.08    0.51
  11   9   8    3.12    0.73
  11  -9   8    2.87    0.69
  11   9   9    8.13    1.03
  11  -9   9    7.29    1.01
 -11  10  12    0.29    0.63
 -11 -10  11    1.57    0.63
 -11  10  11    1.65    0.69
  11 -10 -10   11.93    1.00
 -11 -10  10   11.67    1.08
 -11  10  10   11.65    1.11
  11 -10  -9    6.36    0.75
 -11 -10   9    5.29    0.82
 -11  10   9    5.24    0.81
  11 -10  -9    5.00    0.73
 -11 -10   8   27.50    1.45
  11 -10  -8   28.53    1.42
  11 -10  -8   27.80    1.40
 -11  10   8   26.79    1.46
 -11 -10   7    0.66    0.51
  11 -10  -7    0.69    0.41
  11 -10  -7    0.29    0.38
 -11  10   7   -0.29    0.51
  11 -10  -6   -0.25    0.38
 -11 -10   6    0.02    0.43
  11 -10  -6    0.05    0.43
  11 -10  -6    0.18    0.34
  11  10  -5   11.00    1.07
  11 -10  -5   10.09    0.81
  11 -10  -5    9.25    0.88
 -11 -10   5   10.58    0.83
  11 -10  -5    8.42    0.76
  11 -10  -4   15.88    1.13
  11  10  -4   16.53    1.25
  11 -10  -4   14.93    0.95
  11 -10  -4   13.59    0.94
  11 -10  -3    0.59    0.47
  11  10  -3    1.22    0.60
 -11 -10   3    1.17    0.39
  11 -10  -3    0.65    0.33
  11 -10  -3    0.40    0.37
  11 -10  -2    8.95    0.90
  11 -10  -2    7.29    0.61
 -11 -10   2    7.53    0.59
  11  10  -2    7.83    0.90
  11 -10  -2    8.56    0.77
  11 -10  -1    0.38    0.50
  11  10  -1    0.01    0.42
  11 -10  -1    0.19    0.29
 -11 -10   1    0.51    0.31
  11 -10  -1    0.62    0.45
  11  10  -1    0.03    0.47
  11  10   0    1.98    0.51
 -11 -10   0    1.90    0.38
  11 -10   0    1.59    0.36
  11 -10   0    0.82    0.40
  11  10   0    1.37    0.55
  11  10   1    3.08    0.57
  11 -10   1    3.89    0.48
 -11 -10  -1    2.47    0.40
  11 -10   1    2.55    0.50
  11  10   1    3.18    0.67
  11  10   2    5.61    0.70
  11 -10   2    5.93    0.72
  11  10   2    5.17    0.77
 -11 -10  -2    5.24    0.50
  11 -10   2    6.73    0.56
  11  10   3    0.72    0.54
  11 -10   3    1.94    0.56
  11 -10   3    1.59    0.36
  11 -10   4   29.80    1.51
  11  10   4   28.56    1.57
  11 -10   5    2.62    0.62
  11  10   5    1.72    0.62
  11 -10   6    0.29    0.48
  11  10   6    0.04    0.69
  11  10   7    2.61    0.69
  11 -10   7    0.55    0.49
  11  10   8    7.98    1.00
  11 -10   8    6.79    0.94
  11  10   9    2.61    0.74
 -11 -11  11    1.34    0.65
 -11  11  11    1.55    0.66
 -11 -11  10    1.75    0.67
  11 -11 -10    0.95    0.60
 -11  11  10    0.30    0.58
 -11 -11   9   22.35    1.39
  11 -11  -9   19.54    1.30
 -11  11   9   20.52    1.37
  11 -11  -8    9.34    0.86
 -11 -11   8    9.17    0.93
  11 -11  -8    8.02    0.86
 -11  11   8    8.43    0.95
  11 -11  -7    1.28    0.43
 -11 -11   7    2.11    0.70
  11 -11  -7    3.11    0.64
  11 -11  -7    1.30    0.45
  11 -11  -6   -0.26    0.38
 -11 -11   6   -0.11    0.47
  11 -11  -6    0.22    0.43
  11 -11  -6   -0.40    0.41
 -11 -11   5    3.40    0.59
  11  11  -5    3.85    0.75
  11 -11  -5    2.43    0.55
  11 -11  -5    3.18    0.59
  11 -11  -5    3.12    0.51
  11 -11  -4    6.50    0.79
  11  11  -4    5.47    0.82
 -11 -11   4    6.62    0.66
  11 -11  -4    4.74    0.59
  11 -11  -4    6.51    0.67
  11 -11  -3    2.17    0.53
  11  11  -3    1.40    0.59
 -11 -11   3    2.15    0.46
  11 -11  -3    1.66    0.39
  11 -11  -3    2.16    0.47
  11 -11  -2    4.90    0.73
  11 -11  -2    4.97    0.56
 -11 -11   2    5.18    0.56
  11 -11  -2    6.77    0.70
  11  11  -2    5.34    0.80
  11 -11  -1    8.28    0.91
  11  11  -1    8.24    0.80
  11 -11  -1    8.11    0.66
 -11 -11   1    7.67    0.64
  11 -11  -1    8.10    0.75
  11  11  -1    8.05    0.92
  11  11   0    2.70    0.53
 -11 -11   0    2.01    0.39
  11 -11   0    2.46    0.42
  11 -11   0    2.25    0.50
  11  11   0    2.14    0.65
  11  11   1   40.76    1.66
  11 -11   1   42.10    1.41
 -11 -11  -1   40.83    1.39
  11 -11   1   41.99    1.66
  11  11   1   42.16    1.88
  11  11   2    3.86    0.61
  11 -11   2    4.94    0.66
  11  11   2    5.37    0.78
 -11 -11  -2    4.44    0.49
  11 -11   2    5.04    0.54
  11  11   3    0.91    0.55
  11 -11   3    2.00    0.59
  11 -11   3    0.66    0.35
  11 -11   4    5.41    0.76
  11  11   4    5.25    0.82
  11  11   5   24.18    1.47
  11 -11   5   23.09    1.39
  11  11   6   -0.99    0.61
  11 -11   6   -0.62    0.51
  11 -11   7    1.09    0.55
  11  11   7    3.44    0.75
  11  11   8    2.57    0.70
  11 -11   8    3.57    0.74
  11  11   9    7.50    1.00
  11 -12 -11    1.20    0.55
 -11  12  11    0.08    0.61
 -11 -12  10    5.69    0.87
  11 -12 -10    4.40    0.81
 -11  12  10    6.96    0.97
 -11 -12   9    1.03    0.63
  11 -12  -9    2.28    0.66
 -11  12   9    1.27    0.62
  11 -12  -8   25.67    1.52
 -11 -12   8   22.85    1.39
  11 -12  -8   23.68    1.41
 -11 -12   7    5.87    0.80
  11 -12  -7    7.25    0.87
  11 -12  -7    6.20    0.79
  11 -12  -6    6.04    0.68
 -11 -12   6    7.04    0.79
  11 -12  -6    7.04    0.86
  11 -12  -6    4.47    0.66
  11 -12  -5    2.23    0.59
  11  12  -5    1.89    0.63
 -11 -12   5    1.94    0.47
  11 -12  -5    2.86    0.60
  11 -12  -5    2.51    0.48
  11 -12  -4   14.77    1.12
  11  12  -4   13.57    1.16
  11 -12  -4   13.95    0.95
 -11 -12   4   15.76    0.97
  11 -12  -4   13.85    0.91
  11 -12  -3    6.02    0.77
  11  12  -3    7.22    0.93
  11 -12  -3    5.76    0.65
 -11 -12   3    7.43    0.69
  11 -12  -3    5.68    0.62
  11  12  -2   24.29    1.49
  11 -12  -2   25.33    1.44
 -11 -12   2   30.34    1.26
  11 -12  -2   26.12    1.24
  11 -12  -2   26.73    1.26
  11  12  -1    1.84    0.49
 -11 -12   1    2.41    0.47
  11 -12  -1    3.24    0.55
  11 -12  -1    2.22    0.49
  11  12  -1    1.58    0.56
  11  12   0    0.20    0.39
 -11 -12   0    0.89    0.39
  11 -12   0    0.43    0.35
  11 -12   0    1.34    0.45
  11  12   0    0.86    0.52
  11  12   1    6.84    0.73
  11 -12   1    8.13    0.69
 -11 -12  -1    6.76    0.63
  11 -12   1    7.83    0.78
  11  12   1    7.02    0.82
  11  12   2   12.25    0.90
  11 -12   2   11.89    0.94
  11  12   2   12.94    1.08
  11 -12   2   14.15    0.86
  11 -12   3   24.71    1.35
  11  12   3   24.47    1.47
  11 -12   4   16.56    1.15
  11  12   4   15.97    1.22
  11  12   5    0.17    0.50
  11 -12   5   -0.23    0.51
  11 -12   6    0.41    0.50
  11  12   6   -0.40    0.53
  11 -12   7    0.60    0.59
  11  12   7    0.46    0.52
  11  12   8   10.48    1.08
  11 -12   8   11.41    1.13
  11  12   9    0.87    0.63
  11 -13 -11    2.67    0.78
 -11 -13  10    6.06    0.92
  11 -13 -10    5.67    0.91
 -11 -13   9   12.82    1.15
  11 -13  -9   13.54    1.15
  11 -13  -9   12.16    1.16
 -11 -13   8    1.69    0.64
  11 -13  -8    3.66    0.71
  11 -13  -8    2.36    0.70
 -11 -13   7    7.00    0.85
  11 -13  -7    8.43    0.94
  11 -13  -7    6.33    0.83
  11 -13  -6    6.06    0.84
  11  13  -6    4.29    0.81
 -11 -13   6    3.30    0.67
  11 -13  -6    3.13    0.64
  11 -13  -5   11.66    1.02
  11  13  -5   10.56    1.09
  11 -13  -5   10.30    0.96
 -11 -13   5   11.53    0.91
  11 -13  -4   13.54    1.07
  11  13  -4   13.87    1.19
  11 -13  -4   14.01    1.00
 -11 -13   4   16.25    1.04
  11  13  -3   15.31    1.23
  11 -13  -3   15.39    1.14
 -11 -13   3   18.21    1.07
  11 -13  -3   16.32    1.06
  11 -13  -3   15.86    0.95
 -11 -13   2    0.34    0.41
  11 -13  -2   -0.99    0.47
  11  13  -2   -0.47    0.57
  11  13  -1   37.99    1.82
  11  13  -1   38.26    1.63
  11 -13  -1   40.20    1.56
 -11 -13   1   40.84    1.55
  11 -13  -1   37.85    1.50
  11  13   0   19.67    1.13
  11 -13   0   18.89    1.07
 -11 -13   0   19.26    1.07
  11 -13   0   21.25    1.15
  11  13   0   20.56    1.34
  11  13   1   -0.38    0.38
  11  13   1   -0.01    0.50
  11 -13   1   -0.27    0.43
  11 -13   1   -0.44    0.44
 -11 -13  -1   -0.97    0.43
  11 -13   2    1.09    0.48
  11  13   2    0.42    0.48
  11 -13   2    1.37    0.45
  11  13   3    6.51    0.84
  11 -13   3    5.64    0.74
  11  13   4    5.34    0.80
  11 -13   4    5.85    0.76
  11  13   5    5.35    0.81
  11 -13   5    5.86    0.81
  11 -13   6    0.12    0.50
  11  13   6    1.26    0.56
  11 -13   7    4.49    0.81
  11  13   7    4.05    0.76
  11  13   8    1.48    0.63
  11 -13   8    1.27    0.64
  11 -14 -10    8.46    1.00
 -11 -14   9    3.31    0.74
  11 -14  -9    2.60    0.71
 -11 -14   8    4.68    0.80
  11 -14  -8    4.49    0.77
  11 -14  -8    5.21    0.88
  11 -14  -7    1.78    0.57
 -11 -14   7    0.87    0.54
  11 -14  -7    1.20    0.58
  11 -14  -6    1.42    0.55
  11  14  -6    0.59    0.59
 -11 -14   6    2.03    0.61
  11 -14  -6    0.87    0.63
  11 -14  -5    6.05    0.81
  11  14  -5    4.65    0.85
 -11 -14   5    5.46    0.74
  11 -14  -5    5.06    0.74
  11 -14  -4   13.45    1.08
  11  14  -4   13.94    1.19
  11 -14  -4   13.24    1.05
 -11 -14   4   13.83    0.99
  11  14  -3   14.96    1.22
  11 -14  -3   11.72    1.01
 -11 -14   3   15.11    1.03
  11 -14  -3   14.12    1.03
  11  14  -2    1.34    0.43
  11 -14  -2    2.03    0.55
 -11 -14   2    2.10    0.53
  11  14  -2    2.24    0.66
  11  14  -1    1.13    0.44
  11  14  -1    0.18    0.52
 -11 -14   1    1.29    0.48
  11 -14  -1    2.38    0.58
  11  14   0    2.79    0.65
 -11 -14   0    3.45    0.62
  11 -14   0    3.33    0.57
  11 -14   1    2.90    0.57
  11  14   1    3.09    0.66
  11 -14   1    2.80    0.54
  11  14   2    0.66    0.52
  11 -14   2    1.37    0.49
  11  14   3    4.40    0.73
  11 -14   3    3.24    0.59
  11  14   4    5.47    0.76
  11 -14   4    6.01    0.77
  11 -14   5   -0.21    0.49
  11  14   5   -0.16    0.49
  11  14   6   -0.40    0.66
  11 -14   6   -1.38    0.64
  11 -14   7    0.20    0.55
  11  14   7   -0.25    0.57
  11 -15  -9    5.26    0.92
 -11 -15   8   10.26    1.12
  11 -15  -8    8.76    1.08
 -11 -15   7    4.13    0.79
  11 -15  -7    1.90    0.75
  11 -15  -6    1.07    0.56
  11  15  -6    0.06    0.56
  11 -15  -6   -0.96    0.66
 -11 -15   6   -0.43    0.53
  11  15  -5    6.35    0.90
  11 -15  -5    7.76    0.86
  11 -15  -5    7.64    0.91
 -11 -15   5    8.81    0.90
  11 -15  -4    2.10    0.58
  11  15  -4    2.44    0.66
 -11 -15   4    1.94    0.55
  11 -15  -4    2.18    0.61
  11 -15  -3    4.80    0.71
 -11 -15   3    4.53    0.69
  11  15  -3    4.22    0.79
  11 -15  -2    8.02    0.85
 -11 -15   2    7.45    0.80
  11  15  -2    6.69    0.86
 -11 -15   1    9.76    0.87
  11 -15  -1   10.92    0.91
  11  15  -1   10.42    1.03
  11 -15   0    6.02    0.72
  11  15   0    6.35    0.82
  11  15   1    2.81    0.63
  11  15   2    0.57    0.51
  11  15   3    3.22    0.67
  11  15   4   15.00    1.16
  11  15   5    0.08    0.51
  11 -16  -8    6.63    1.05
 -11 -16   7   -0.48    0.60
  11 -16  -7    0.28    0.57
  11  16  -6    0.43    0.56
 -11 -16   6    0.91    0.60
  11 -16  -6   -0.50    0.67
  11  16  -5    0.86    0.58
  11 -16  -5   -0.33    0.61
 -11 -16   5    0.67    0.59
  11  16  -4    3.00    0.73
  11 -16  -4    4.06    0.75
 -11 -16   4    4.31    0.73
  11 -16  -3   10.88    1.02
 -11 -16   3   11.53    1.01
  11  16  -3    9.64    1.01
  11 -16  -2   11.54    0.99
  11  16  -2   10.71    1.03
  11 -16  -1    3.03    0.64
  11  16  -1    2.78    0.66
  11  16   0    0.35    0.49
  11  16   1    3.17    0.70
  11  16   2    6.36    0.83
  11  17  -6    2.02    0.70
  11 -17  -6    0.79    0.62
 -11 -17   6    1.25    0.57
  11  17  -5    0.67    0.56
  11 -17  -5    0.73    0.57
  11  17  -4   10.71    1.13
  11 -17  -4   12.01    1.12
  11  17  -3    5.47    0.84
  11 -17  -3    5.11    0.79
  11  17  -2    0.97    0.54
  11  17  -1   12.85    1.12
 -12   0  13    0.01    0.57
 -12   0  12    6.12    0.86
 -12   0  11   -0.33    0.54
 -12   0  10   19.96    1.19
 -12   0   9   -0.30    0.41
 -12   0   8    4.36    0.56
 -12   0   7   -0.55    0.37
  12   0  -6    8.24    0.91
 -12   0   6    8.14    0.58
  12   0  -5    1.39    0.59
 -12   0   5   -0.13    0.26
  12   0  -4    5.47    0.77
  12   0  -4    6.33    0.29
 -12   0   4    6.28    0.41
  12   0  -3   -0.19    0.48
 -12   0   3   -0.05    0.18
  12   0  -2  106.43    3.07
  12   0  -2  105.55    3.07
  12   0  -1    0.09    0.48
  12   0  -1    0.11    0.48
  12   0   0   31.40    1.57
  12   0   0   31.41    1.62
  12   0   1   -0.97    0.59
  12   0   1   -0.24    0.46
  12   0   2    4.54    0.71
  12   0   2    3.90    0.70
  12   0   3    1.02    0.57
  12   0   4   37.20    1.81
  12   0   5    0.68    0.58
  12   0   6    7.67    0.95
  12   0   7   -0.25    0.56
  12   0   8   65.55    2.64
 -12  -1  13   19.08    1.37
 -12   1  13   16.77    1.31
 -12  -1  12   -0.49    0.52
 -12   1  12   -0.14    0.54
 -12  -1  11    0.18    0.54
 -12   1  11   -0.15    0.57
 -12  -1  10    3.34    0.59
 -12   1  10    2.87    0.55
 -12  -1   9    4.45    0.60
 -12   1   9    4.77    0.63
 -12  -1   8    5.86    0.63
 -12   1   8    5.77    0.62
 -12  -1   7    1.31    0.37
 -12   1   7    0.74    0.33
  12   1  -6    3.75    0.71
  12  -1  -6    4.15    0.74
 -12   1   6    4.13    0.47
 -12  -1   6    4.35    0.46
  12   1  -5   13.08    1.12
  12  -1  -5   12.78    1.06
 -12   1   5   12.00    0.64
 -12  -1   5   12.23    0.65
  12  -1  -4    1.72    0.59
  12   1  -4    1.45    0.52
  12   1  -4    1.30    0.18
  12  -1  -4    1.65    0.19
 -12  -1   4    1.51    0.26
 -12   1   4    2.15    0.28
  12  -1  -4    1.88    0.22
  12  -1  -3   27.27    1.50
  12   1  -3   26.99    1.51
 -12  -1   3   26.31    0.68
 -12   1   3   25.81    0.67
  12   1  -2    0.74    0.55
  12  -1  -2    1.20    0.60
  12   1  -2    1.39    0.58
  12  -1  -2    1.01    0.58
  12   1  -1   28.25    1.54
  12  -1  -1   29.40    1.56
  12   1  -1   29.46    1.55
  12  -1  -1   28.58    1.54
  12   1   0   17.75    1.28
  12  -1   0   19.33    1.26
  12   1   0   17.34    1.24
  12  -1   0   18.69    1.26
  12   1   1   13.33    1.09
  12  -1   1   14.46    1.12
  12   1   1   13.70    1.11
  12  -1   1   12.50    1.08
  12  -1   2    2.49    0.63
  12   1   2    1.47    0.59
  12   1   2    2.67    0.64
  12  -1   2    2.08    0.61
  12   1   3   31.86    1.67
  12  -1   3   31.20    1.64
  12   1   4    0.45    0.53
  12  -1   4   -0.07    0.49
  12   1   5   42.94    1.99
  12  -1   5   40.94    1.92
  12  -1   6   13.16    1.18
  12   1   6   12.56    1.17
  12   1   7    1.23    0.64
  12  -1   7    0.96    0.64
  12   1   8   15.22    1.34
  12  -1   8   20.76    1.54
 -12   2  13    0.13    0.59
 -12  -2  13    0.83    0.59
 -12   2  12   -0.22    0.53
 -12  -2  12    0.29    0.52
 -12   2  11    1.09    0.62
 -12  -2  11    0.89    0.53
 -12   2  10    4.49    0.68
 -12  -2  10    3.95    0.62
 -12  -2   9    0.34    0.40
 -12   2   9    0.19    0.40
 -12  -2   8   66.80    1.97
 -12   2   8   64.65    1.95
 -12   2   7   11.77    0.77
 -12  -2   7   12.86    0.80
  12   2  -6   15.50    1.21
  12  -2  -6   15.96    1.21
 -12   2   6   14.49    0.77
 -12  -2   6   15.59    0.79
  12  -2  -5    1.39    0.52
  12   2  -5    1.10    0.59
 -12   2   5    1.04    0.29
 -12  -2   5    1.56    0.33
  12   2  -4    0.33    0.51
  12  -2  -4    1.26    0.49
  12  -2  -4    0.61    0.17
 -12  -2   4    0.89    0.25
 -12   2   4    0.92    0.23
  12  -2  -4    1.16    0.21
  12   2  -3    2.47    0.66
  12  -2  -3    2.56    0.62
  12  -2  -3    2.41    0.62
 -12  -2   3    2.33    0.24
  12   2  -2   36.00    1.71
  12  -2  -2   35.27    1.70
  12  -2  -2   33.51    1.64
  12   2  -2   35.39    1.74
  12   2  -1   -0.71    0.56
  12  -2  -1    0.09    0.49
  12  -2  -1    0.70    0.51
  12   2  -1    0.40    0.52
  12   2   0   84.58    2.70
  12  -2   0   83.00    2.63
  12   2   0   85.27    2.70
  12  -2   0   81.70    2.66
  12   2   1   -0.33    0.50
  12  -2   1    0.73    0.52
  12   2   1   -0.69    0.54
  12  -2   1   -0.57    0.58
  12   2   2   42.29    1.91
  12  -2   2   45.03    1.90
  12   2   2   39.91    1.84
  12  -2   2   43.37    1.94
  12   2   3    0.64    0.53
  12  -2   3    0.14    0.50
  12   2   4   31.30    1.68
  12  -2   4   31.91    1.67
  12   2   5    1.37    0.61
  12  -2   5    1.87    0.62
  12   2   6   20.64    1.43
  12  -2   6   20.48    1.43
  12   2   7    0.52    0.96
  12  -2   7    0.33    0.59
  12   2   8    0.18    0.54
  12  -2   8    0.98    0.59
 -12   3  13    4.00    0.77
 -12  -3  13    4.04    0.77
 -12   3  12    1.40    0.59
 -12  -3  12    0.87    0.59
 -12   3  11    1.11    0.62
 -12  -3  11    1.46    0.57
 -12  -3  10    0.85    0.49
 -12   3  10    1.16    0.53
 -12   3   9   11.54    0.89
 -12  -3   9   11.35    0.88
 -12  -3   8    3.60    0.55
 -12   3   8    2.25    0.47
  12  -3  -7   54.54    2.18
 -12   3   7   57.62    1.74
 -12  -3   7   58.87    1.76
  12  -3  -6   14.13    1.11
 -12   3   6   15.29    0.81
 -12  -3   6   15.02    0.82
  12   3  -5    2.91    0.69
  12  -3  -5    2.86    0.65
 -12   3   5    2.65    0.38
  12  -3  -5    3.36    0.37
 -12  -3   5    2.41    0.37
  12  -3  -4   -0.24    0.46
  12   3  -4   -0.21    0.51
  12  -3  -4    0.21    0.21
 -12  -3   4    0.18    0.23
 -12   3   4    0.37    0.24
  12  -3  -3    0.13    0.48
  12   3  -3    0.03    0.50
  12  -3  -3    0.31    0.49
 -12  -3   3    0.13    0.20
  12   3  -2    9.87    1.01
  12  -3  -2    9.29    0.94
  12   3  -2    9.40    0.93
  12  -3  -2    9.63    0.96
 -12  -3   2    9.18    0.34
  12  -3  -1   76.57    2.47
  12   3  -1   78.94    2.60
  12  -3  -1   75.46    2.56
  12   3  -1   76.67    2.60
  12   3   0    0.29    0.52
  12  -3   0    1.14    0.58
  12   3   0    0.55    0.48
  12  -3   0    0.69    0.58
  12   3   1   -0.38    0.48
  12  -3   1   -0.19    0.47
  12   3   1   -0.06    0.48
  12  -3   1   -0.15    0.53
  12  -3   2    0.03    0.44
  12   3   2    0.79    0.51
  12   3   2   -0.06    0.51
  12  -3   2    0.69    0.56
  12   3   3   34.40    1.75
  12  -3   3   33.55    1.66
  12   3   4    2.40    0.67
  12  -3   4    1.48    0.63
  12   3   5   19.92    1.39
  12  -3   5   22.20    1.43
  12   3   6    0.64    0.55
  12  -3   6    1.88    0.65
  12   3   7    2.54    0.65
  12  -3   7    1.81    0.64
  12  -3   8    1.05    0.58
  12   3   8    1.23    0.63
 -12   4  13    1.06    0.65
 -12  -4  13    0.96    0.61
 -12  -4  12    4.79    0.75
 -12   4  12    5.30    0.84
 -12  -4  11    1.70    0.56
 -12   4  11    1.65    0.61
 -12  -4  10    6.01    0.75
 -12   4  10    6.18    0.72
 -12  -4   9   -0.34    0.46
 -12   4   9   -0.30    0.44
 -12   4   8   49.05    1.70
 -12  -4   8   44.74    1.63
  12  -4  -7    1.13    0.60
 -12  -4   7    0.81    0.39
 -12   4   7    1.22    0.42
  12  -4  -6    6.21    0.80
 -12   4   6    6.99    0.60
 -12  -4   6    7.12    0.62
 -12  -4   5    0.72    0.30
  12   4  -5    0.06    0.50
  12  -4  -5    0.30    0.48
 -12   4   5    0.60    0.31
  12  -4  -5    0.64    0.31
  12   4  -4    5.76    0.83
  12  -4  -4    5.83    0.74
  12  -4  -4    5.21    0.41
 -12  -4   4    5.97    0.46
 -12   4   4    6.20    0.48
  12  -4  -3   16.62    1.18
  12   4  -3   15.88    1.22
  12  -4  -3   16.23    1.20
  12  -4  -3   16.01    0.48
 -12  -4   3   16.98    0.66
  12   4  -2   34.63    1.69
  12  -4  -2   36.73    1.75
  12  -4  -2   35.00    1.65
  12   4  -2   35.99    1.77
 -12  -4   2   37.18    0.86
  12   4  -1    8.25    0.95
  12  -4  -1    7.77    0.84
  12  -4  -1    8.56    0.92
  12   4  -1    8.13    0.91
  12   4   0   32.57    1.67
  12  -4   0   33.42    1.60
  12   4   0   32.52    1.63
  12  -4   0   33.04    1.66
  12  -4   1    0.64    0.45
  12   4   1   -0.36    0.59
  12   4   1   -0.03    0.46
  12  -4   1    0.26    0.47
  12  -4   2   11.55    1.01
  12   4   2    9.80    0.97
  12   4   2    9.30    0.93
  12   4   3    1.25    0.61
  12  -4   3    1.03    0.53
  12  -4   4   25.29    1.48
  12   4   4   26.42    1.58
  12   4   5    7.92    0.96
  12  -4   5    8.70    0.97
  12   4   6    8.89    1.05
  12  -4   6   10.81    1.06
  12  -4   7    0.07    0.51
  12   4   7   -0.35    0.55
  12  -4   8    3.06    0.77
  12   4   8    2.22    0.72
 -12  -5  13    6.30    0.93
 -12   5  13    3.90    0.78
 -12  -5  12    2.32    0.67
 -12   5  12    0.93    0.57
 -12  -5  11    2.18    0.63
 -12   5  11    2.40    0.67
 -12  -5  10    1.91    0.54
 -12   5  10    1.35    0.52
 -12   5   9   21.65    1.22
 -12  -5   9   20.40    1.17
  12  -5  -8    1.19    0.56
 -12  -5   8    2.03    0.49
 -12   5   8    1.62    0.47
  12  -5  -7   29.32    1.55
 -12  -5   7   32.49    1.32
 -12   5   7   30.94    1.29
  12  -5  -6    6.23    0.80
 -12  -5   6    5.58    0.56
 -12   5   6    5.82    0.58
  12  -5  -6    6.07    0.57
  12  -5  -5   -0.39    0.48
  12   5  -5   -1.02    0.61
 -12  -5   5   -0.03    0.29
  12  -5  -5    0.34    0.33
 -12   5   5    0.37    0.32
  12   5  -4   10.73    1.04
  12  -5  -4   10.31    0.98
  12  -5  -4   10.32    0.94
  12  -5  -4    9.12    0.55
 -12  -5   4   11.27    0.64
  12   5  -3   49.62    2.14
  12  -5  -3   54.03    2.13
  12  -5  -3   52.09    1.99
  12  -5  -3   49.47    1.12
 -12  -5   3   53.11    1.30
  12  -5  -2   21.11    1.35
  12   5  -2   22.11    1.40
  12  -5  -2   20.21    1.26
 -12  -5   2   22.72    0.71
  12  -5  -1   34.76    1.61
  12   5  -1   34.39    1.67
  12  -5  -1   36.58    1.73
  12   5  -1   35.81    1.77
 -12  -5   1   35.07    0.80
  12   5   0    1.75    0.62
  12  -5   0    2.35    0.60
  12   5   0    1.90    0.56
  12  -5   0    1.56    0.60
  12  -5   1    0.20    0.43
  12   5   1   -0.08    0.47
  12   5   1   -0.15    0.48
  12  -5   1   -0.21    0.52
  12  -5   2    0.51    0.45
  12   5   2    0.93    0.60
  12   5   2    0.01    0.45
  12   5   3   13.93    1.18
  12  -5   3   15.57    1.14
  12   5   4    6.36    0.87
  12  -5   4    6.38    0.89
  12  -5   5   29.99    1.65
  12   5   5   27.64    1.64
  12   5   6   -0.64    0.56
  12  -5   6    0.40    0.50
  12  -5   7   -0.40    0.60
  12   5   7   -0.61    0.58
  12  -5   8   -0.23    0.56
  12   5   8    0.44    0.55
 -12  -6  13    1.14    0.65
 -12   6  13    1.72    0.67
 -12  -6  12   13.50    1.16
 -12   6  12   12.67    1.14
 -12  -6  11    0.29    0.51
 -12   6  11    0.95    0.54
 -12  -6  10   14.57    1.13
 -12   6  10   15.93    1.14
 -12  -6   9    0.55    0.47
 -12   6   9    0.11    0.43
  12  -6  -8   22.41    1.40
 -12  -6   8   24.87    1.25
 -12   6   8   24.60    1.26
  12  -6  -7    0.96    0.52
 -12  -6   7    0.72    0.38
 -12   6   7    0.73    0.41
  12  -6  -6    6.30    0.79
 -12  -6   6    4.81    0.54
 -12   6   6    5.38    0.56
  12  -6  -6    6.19    0.57
  12  -6  -5    2.43    0.55
  12   6  -5    2.50    0.67
 -12  -6   5    1.77    0.39
  12  -6  -5    2.67    0.43
 -12   6   5    2.21    0.40
  12   6  -4    0.26    0.53
 -12  -6   4   -0.01    0.27
  12  -6  -4   -0.60    0.58
  12  -6  -4    0.07    0.29
  12  -6  -4    0.14    0.45
 -12  -6   3    0.51    0.27
  12  -6  -3    0.37    0.51
  12   6  -3    0.21    0.50
  12  -6  -3    0.30    0.22
  12  -6  -3    0.08    0.45
  12  -6  -2   56.22    2.18
 -12  -6   2   54.52    1.32
  12   6  -2   54.93    2.22
  12  -6  -2   54.76    1.12
  12  -6  -2   53.69    2.01
  12   6  -1    3.22    0.69
  12  -6  -1    2.69    0.60
  12  -6  -1    2.44    0.65
  12   6  -1    3.59    0.68
 -12  -6   1    3.11    0.31
  12   6   0    5.60    0.79
  12  -6   0    5.78    0.73
  12   6   0    5.46    0.74
  12  -6   0    4.96    0.76
  12  -6   1   -0.34    0.49
  12   6   1   -0.17    0.53
  12   6   1   -0.39    0.49
  12  -6   1    0.09    0.47
  12  -6   2    7.89    0.85
  12   6   2    5.83    0.82
  12   6   2    6.08    0.80
  12   6   3    0.24    0.50
  12  -6   3    0.20    0.45
  12  -6   4   35.64    1.73
  12   6   4   34.16    1.78
  12   6   5    5.40    0.84
  12  -6   5    4.86    0.81
  12   6   6    3.95    0.78
  12  -6   6    6.87    0.89
  12  -6   7    0.84    0.54
  12   6   7    0.88    0.59
  12  -6   8    0.09    0.52
  12   6   8    1.26    0.66
 -12  -7  12   -0.68    0.52
 -12   7  12    0.51    0.58
 -12  -7  11    2.00    0.62
 -12   7  11    1.71    0.65
 -12  -7  10    0.90    0.56
 -12   7  10    1.46    0.60
  12  -7  -9    8.93    0.90
 -12  -7   9   10.60    0.92
 -12   7   9   12.05    0.99
  12  -7  -8    4.50    0.70
 -12  -7   8    4.62    0.68
 -12   7   8    4.34    0.64
 -12  -7   7    9.93    0.80
  12  -7  -7    8.93    0.89
 -12   7   7    9.37    0.78
  12  -7  -7   10.92    0.81
 -12  -7   6    3.38    0.49
  12  -7  -6    2.73    0.59
  12  -7  -6    3.59    0.50
 -12   7   6    2.85    0.50
  12  -7  -5    0.53    0.45
  12   7  -5   -0.01    0.51
  12  -7  -5   -0.26    0.48
 -12  -7   5   -0.27    0.33
  12  -7  -5   -0.06    0.33
  12   7  -4   -0.11    0.53
  12  -7  -4    0.41    0.50
 -12  -7   4    0.03    0.31
  12  -7  -4    0.05    0.29
  12  -7  -4    0.39    0.44
  12   7  -3   25.37    1.54
  12  -7  -3   24.55    1.45
 -12  -7   3   24.53    0.96
  12  -7  -3   23.60    0.88
  12  -7  -3   24.50    1.33
 -12  -7   2    3.43    0.40
  12  -7  -2    3.56    0.72
  12  -7  -2    2.83    0.33
  12   7  -2    3.03    0.72
  12  -7  -2    3.29    0.62
  12  -7  -1   45.07    1.82
  12   7  -1   41.51    1.86
  12   7  -1   48.44    2.08
  12  -7  -1   43.78    1.94
 -12  -7   1   47.12    1.20
  12   7   0   14.84    1.20
  12  -7   0   15.07    1.08
  12   7   0   15.10    1.13
  12  -7   0   16.58    1.22
  12  -7   1    0.29    0.43
  12   7   1   -0.66    0.56
  12   7   1   -0.71    0.54
  12  -7   2    4.47    0.69
  12   7   2    3.83    0.70
  12   7   2    4.40    0.71
  12  -7   3   14.28    1.09
  12   7   3   15.57    1.24
  12   7   4    1.31    0.62
  12  -7   4    0.21    0.50
  12  -7   5   24.67    1.50
  12   7   5   26.87    1.60
  12  -7   6    0.56    0.51
  12   7   6    0.78    0.56
  12  -7   7    1.24    0.60
  12   7   7   -0.29    0.57
  12  -7   8    1.34    0.62
  12   7   8    0.85    0.62
 -12  -8  12    0.72    0.53
 -12   8  12    0.54    0.58
 -12  -8  11    1.33    0.59
 -12   8  11    2.03    0.63
 -12  -8  10   -0.29    0.51
 -12   8  10    1.34    0.68
  12  -8  -9   -0.52    0.53
 -12  -8   9    0.61    0.52
 -12   8   9    0.01    0.48
 -12  -8   8   14.72    1.02
  12  -8  -8   13.28    1.06
  12  -8  -8   14.90    0.98
 -12   8   8   15.33    1.06
  12  -8  -7    5.37    0.72
 -12  -8   7    7.46    0.74
  12  -8  -7    7.02    0.70
 -12   8   7    6.10    0.71
  12  -8  -6    6.43    0.76
 -12  -8   6    5.66    0.62
  12  -8  -6    5.37    0.60
  12  -8  -5   16.27    1.22
  12   8  -5   15.22    1.25
 -12  -8   5   16.01    0.92
  12  -8  -5   14.06    1.06
  12  -8  -5   14.67    0.89
  12   8  -4    9.33    1.01
 -12  -8   4    9.45    0.70
  12  -8  -4    8.93    0.94
  12  -8  -4    9.54    0.70
  12  -8  -4    9.02    0.84
  12  -8  -3    0.01    0.46
 -12  -8   3    0.17    0.31
  12   8  -3   -0.07    0.55
  12  -8  -3   -0.01    0.27
  12  -8  -3   -0.29    0.42
  12  -8  -2   26.52    1.52
  12   8  -2   26.70    1.58
 -12  -8   2   26.84    1.01
  12  -8  -2   25.24    0.90
  12  -8  -2   24.89    1.34
  12   8  -1    4.15    0.78
  12  -8  -1    4.63    0.71
  12  -8  -1    4.73    0.75
  12   8  -1    4.49    0.75
  12   8   0   21.58    1.41
  12  -8   0   20.16    1.23
  12   8   0   20.17    1.29
  12  -8   0   20.24    1.37
  12  -8   1    0.05    0.44
  12   8   1    0.08    0.48
  12   8   1   -0.44    0.48
  12  -8   2   14.67    1.10
  12   8   2   15.93    1.24
  12   8   2   14.64    1.12
  12   8   3    4.98    0.82
  12  -8   3    3.52    0.68
  12   8   4    6.91    0.93
  12  -8   4    8.75    0.93
  12   8   5    1.18    0.62
  12  -8   5    0.69    0.55
  12  -8   6    2.44    0.70
  12   8   6    1.39    0.60
  12  -8   7    0.54    0.53
  12   8   7    0.41    0.56
  12  -8   8    6.76    0.95
  12   8   8    3.97    0.80
 -12   9  12    0.81    0.64
 -12  -9  11   -0.38    0.56
 -12   9  11    0.53    0.55
  12  -9 -10    7.12    0.82
 -12  -9  10    7.82    0.92
 -12   9  10    7.78    0.95
 -12  -9   9    8.14    0.87
  12  -9  -9    7.99    0.86
 -12   9   9    9.17    0.95
  12  -9  -9    8.33    0.85
 -12  -9   8    1.61    0.54
  12  -9  -8    0.28    0.39
  12  -9  -8    1.25    0.48
 -12   9   8    0.51    0.44
  12  -9  -7   10.88    0.93
 -12  -9   7   11.59    0.92
  12  -9  -7   11.90    0.88
 -12   9   7   11.00    0.91
  12  -9  -6    1.36    0.47
 -12  -9   6    0.89    0.41
  12   9  -6    1.28    0.63
  12  -9  -6    0.17    0.53
  12  -9  -6    0.89    0.35
  12  -9  -5   21.17    1.36
  12  -9  -5   19.98    1.21
  12   9  -5   22.33    1.53
 -12  -9   5   23.52    1.14
  12  -9  -5   21.20    1.12
 -12  -9   4   -0.05    0.34
  12   9  -4   -0.16    0.54
  12  -9  -4   -0.14    0.51
  12  -9  -4    0.24    0.37
  12  -9  -4    0.03    0.43
  12  -9  -3    3.36    0.69
 -12  -9   3    3.63    0.49
  12   9  -3    3.25    0.72
  12  -9  -3    3.98    0.48
  12  -9  -3    3.64    0.61
  12  -9  -2    1.27    0.51
  12  -9  -2    0.47    0.28
  12   9  -2    0.13    0.54
  12  -9  -2    1.13    0.52
  12  -9  -1   19.76    1.19
  12   9  -1   19.53    1.25
  12  -9  -1   17.24    1.26
  12   9  -1   19.79    1.37
  12  -9   0    6.21    0.77
  12   9   0    6.50    0.88
  12   9   0    5.41    0.76
  12  -9   0    5.95    0.83
  12  -9   1    0.03    0.45
  12   9   1    0.21    0.55
  12   9   1    0.40    0.44
  12  -9   2    1.14    0.50
  12   9   2    0.11    0.51
  12   9   2    0.81    0.49
  12  -9   3   30.17    1.56
  12   9   3   30.45    1.71
  12  -9   4   15.59    1.19
  12   9   4   16.14    1.28
  12  -9   5    9.92    1.00
  12   9   5   10.86    1.09
  12  -9   6    3.50    0.72
  12   9   6    3.34    0.74
  12  -9   7    0.48    0.50
  12   9   7    0.21    0.55
  12   9   8   -0.90    0.67
 -12 -10  11    0.43    0.58
 -12  10  11    0.37    0.57
  12 -10 -10   11.61    1.04
 -12 -10  10   10.37    1.05
 -12  10  10   12.11    1.11
  12 -10 -10   11.50    1.02
  12 -10  -9    1.94    0.56
 -12 -10   9    2.31    0.61
  12 -10  -9    1.24    0.47
 -12  10   9    2.02    0.68
  12 -10  -8   14.28    1.07
 -12 -10   8   14.14    1.07
  12 -10  -8   13.01    0.99
 -12  10   8   14.93    1.13
  12 -10  -7    0.69    0.41
 -12 -10   7    0.56    0.47
  12 -10  -7   -0.13    0.46
  12 -10  -7   -0.25    0.41
  12 -10  -6   -0.71    0.49
 -12 -10   6    0.24    0.40
  12  10  -6    0.67    0.60
  12 -10  -6   -1.31    0.63
  12 -10  -6   -0.66    0.45
 -12 -10   5    7.21    0.71
  12  10  -5    7.25    0.96
  12 -10  -5    6.92    0.82
  12 -10  -5    6.68    0.68
  12 -10  -5    6.60    0.71
  12 -10  -4    1.14    0.54
 -12 -10   4    2.03    0.47
  12  10  -4    0.72    0.58
  12 -10  -4    1.10    0.38
  12 -10  -4    1.20    0.41
 -12 -10   3    8.43    0.72
  12 -10  -3    7.67    0.90
  12 -10  -3    6.91    0.62
  12  10  -3    6.48    0.89
  12 -10  -3    7.41    0.76
  12  10  -2    5.21    0.84
  12 -10  -2    6.12    0.73
  12 -10  -2    5.58    0.80
  12  10  -2    5.64    0.77
  12 -10  -1   19.76    1.20
  12  10  -1   18.48    1.35
  12  10  -1   19.77    1.28
  12 -10  -1   18.81    1.30
  12  10   0    9.96    1.03
  12 -10   0   11.28    0.93
  12  10   0    9.85    0.93
  12 -10   1    2.28    0.50
  12  10   1    2.22    0.65
  12  10   1    1.60    0.51
  12 -10   2   21.91    1.32
  12  10   2   20.99    1.40
  12  10   2   22.24    1.32
  12  10   3    3.64    0.75
  12 -10   3    4.62    0.75
  12 -10   4   31.35    1.61
  12  10   4   32.20    1.74
  12 -10   5    5.80    0.85
  12  10   5    6.36    0.89
  12 -10   6    7.06    0.89
  12  10   6    5.37    0.82
  12 -10   7    1.93    0.68
  12  10   7   -0.06    0.55
 -12 -11  11    0.84    0.65
  12 -11 -11    0.01    0.58
 -12  11  11   -0.72    0.63
 -12 -11  10    0.98    0.61
  12 -11 -10    1.69    0.60
 -12  11  10    1.96    0.71
 -12 -11   9   17.09    1.26
  12 -11  -9   17.89    1.23
 -12  11   9   17.85    1.33
 -12 -11   8    1.05    0.57
  12 -11  -8    1.60    0.62
  12 -11  -8    1.74    0.55
  12 -11  -7    0.36    0.39
 -12 -11   7    1.27    0.56
  12 -11  -7    0.69    0.51
  12 -11  -7    0.75    0.46
 -12 -11   6    3.30    0.61
  12  11  -6    2.99    0.73
  12 -11  -6    5.64    0.80
  12 -11  -6    2.82    0.57
  12 -11  -6    3.05    0.55
  12  11  -5    9.59    1.06
  12 -11  -5    9.64    0.97
 -12 -11   5    9.70    0.86
  12 -11  -5    7.08    0.70
  12 -11  -5    8.88    0.80
  12 -11  -4    7.14    0.88
  12  11  -4    7.06    0.95
 -12 -11   4    7.20    0.71
  12 -11  -4    6.75    0.64
  12 -11  -4    6.42    0.70
  12 -11  -3   14.02    1.00
  12  11  -3   13.53    1.20
  12 -11  -3   13.71    1.11
  12  11  -2    6.18    0.89
  12 -11  -2    8.68    0.84
  12 -11  -2    7.74    0.92
  12  11  -2    7.94    0.86
  12 -11  -1   24.80    1.33
  12  11  -1   27.68    1.63
  12  11  -1   24.39    1.40
  12 -11  -1   27.06    1.57
  12 -11   0   -0.24    0.47
  12  11   0   -0.04    0.54
  12  11   0    0.19    0.46
  12 -11   1    0.72    0.46
  12  11   1    0.86    0.53
  12  11   1    0.57    0.43
  12 -11   2    0.23    0.44
  12  11   2   -0.42    0.56
  12  11   2    0.12    0.42
  12 -11   3   21.37    1.32
  12  11   3   20.43    1.42
  12 -11   4    3.24    0.69
  12  11   4    3.05    0.72
  12  11   5   22.56    1.50
  12 -11   5   20.67    1.37
  12  11   6    0.62    0.59
  12 -11   6    2.18    0.69
  12 -11   7    0.64    0.59
  12  11   7   -0.84    0.62
 -12 -12  10    8.11    1.00
 -12  12  10    8.52    1.05
  12 -12  -9    1.27    0.63
 -12 -12   9    0.91    0.57
  12 -12  -9    0.72    0.47
 -12 -12   8    8.70    0.93
  12 -12  -8   11.61    1.11
  12 -12  -8    9.83    0.98
  12 -12  -7   18.76    1.34
 -12 -12   7   18.04    1.24
  12 -12  -7   16.91    1.19
  12 -12  -6    3.56    0.67
 -12 -12   6    3.44    0.69
  12  12  -6    3.39    0.81
  12 -12  -6    3.17    0.60
  12 -12  -5   -0.08    0.45
  12  12  -5    0.22    0.55
 -12 -12   5    0.40    0.49
  12 -12  -5   -0.16    0.36
  12 -12  -4    7.84    0.76
  12 -12  -4    7.64    0.88
  12  12  -4    7.37    0.96
  12 -12  -3   -0.11    0.42
  12  12  -3   -0.15    0.58
  12 -12  -3   -0.33    0.43
  12 -12  -2   29.65    1.41
  12  12  -2   26.00    1.45
  12 -12  -2   27.13    1.57
  12  12  -2   25.78    1.60
  12 -12  -1   25.66    1.32
  12  12  -1   28.75    1.49
  12  12  -1   25.27    1.58
  12 -12   0    2.87    0.57
  12  12   0    1.93    0.82
  12  12   0    2.24    0.55
  12 -12   1    1.74    0.53
  12  12   1    1.41    0.81
  12  12   1    0.80    0.46
  12 -12   2    3.55    0.62
  12  12   2    2.48    0.62
  12 -12   3    2.36    0.63
  12  12   3    2.46    0.68
  12  12   4    9.51    1.03
  12 -12   4    9.76    0.99
  12  12   5    1.87    0.67
  12 -12   5    1.68    0.61
  12  12   6    2.10    0.69
  12 -12   6    0.57    0.54
  12 -12   7    1.54    0.64
  12  12   7    0.72    0.59
 -12 -13   9   11.00    1.11
  12 -13  -9   12.58    1.21
 -12 -13   8    1.11    0.62
  12 -13  -8    1.01    0.56
 -12 -13   7   10.89    1.02
  12  13  -7   12.35    1.25
  12 -13  -7   11.49    1.12
  12 -13  -6   -0.07    0.50
 -12 -13   6    0.11    0.49
  12  13  -6    0.63    0.57
  12 -13  -5   -0.53    0.52
 -12 -13   5    0.05    0.47
  12  13  -5    0.74    0.60
  12 -13  -4    5.82    0.79
  12  13  -4    4.72    0.84
  12  13  -3   15.99    1.32
  12 -13  -3   14.56    1.16
  12 -13  -2   -1.07    0.53
  12  13  -2   -0.23    0.55
  12  13  -2    0.59    0.46
  12 -13  -1   47.04    1.78
  12  13  -1   46.93    1.89
  12  13  -1   45.81    2.10
  12 -13   0   10.75    0.90
  12  13   0   10.22    1.05
  12  13   0   10.36    0.91
  12 -13   1    4.52    0.67
  12  13   1    4.06    0.76
  12  13   1    4.04    0.62
  12  13   2    2.51    0.70
  12 -13   2    3.35    0.63
  12  13   3    6.63    0.88
  12 -13   3    6.25    0.80
  12  13   4    4.94    0.81
  12 -13   4    3.78    0.72
  12  13   5    5.87    0.88
  12 -13   5    6.46    0.85
  12 -13   6    3.70    0.76
  12  13   6    4.58    0.80
  12 -13   7   -0.51    0.64
  12  13   7   -1.14    0.70
 -12 -14   8    5.95    0.87
  12 -14  -7    2.02    0.63
 -12 -14   7    0.48    0.55
  12 -14  -6    1.06    0.58
 -12 -14   6    1.38    0.60
  12  14  -6    2.22    0.71
  12 -14  -5    0.37    0.48
  12  14  -5   -0.99    0.62
  12 -14  -4    5.69    0.80
  12  14  -4    5.15    0.86
  12  14  -3    1.94    0.69
  12  14  -2    0.10    0.54
  12  14  -2    2.08    0.57
  12  14  -1    4.26    0.79
  12  14   0   15.59    1.26
  12  14   1    0.04    0.51
  12  14   2    9.71    1.04
  12  14   3   -0.39    0.53
  12  14   4    7.76    0.96
  12  14   5    1.10    0.59
  12  14   6    6.33    0.90
 -12 -15   7    3.66    0.81
  12  15  -6    5.19    0.91
 -12 -15   6    2.64    0.68
  12  15  -5    1.17    0.65
  12 -15  -5   -0.36    0.58
  12  15  -4    0.43    0.56
  12 -15  -4    0.14    0.53
  12  15  -3    2.18    0.67
  12  15  -2    9.64    1.08
  12  15  -1    4.63    0.79
  12  15   0    1.37    0.56
  12  15   1    0.25    0.52
  12  15   2   -0.21    0.50
  12  15   3    1.53    0.63
  12  15   4    8.72    1.00
  12  16  -5   -0.03    0.62
  12  16  -4    1.99    0.69
  12  16  -3    8.67    1.06
  12  16  -2    8.59    1.00
  12  16  -1    4.26    0.78
  12  16   0    3.71    0.78
  12  16   1    0.15    0.73
  12  17  -3    8.56    1.06
  12  17  -2    6.88    0.94
 -13   0  13   -0.05    0.55
 -13   0  12    4.75    0.80
 -13   0  11   -0.74    0.55
 -13   0  10    0.55    0.46
 -13   0   9    0.26    0.38
 -13   0   8    3.97    0.53
  13   0  -7    0.87    0.61
 -13   0   7   -0.68    0.38
  13   0  -6   10.08    1.07
 -13   0   6    9.66    0.63
  13   0  -5    0.59    0.51
  13   0  -4   22.02    1.42
  13   0  -3    0.42    0.50
  13   0  -3   -0.29    0.52
  13   0  -2   30.55    1.67
  13   0  -2   29.78    1.64
  13   0  -1    0.53    0.58
  13   0  -1    0.29    0.55
  13   0   0   30.82    1.66
  13   0   0   32.26    1.72
  13   0   1   -0.28    0.53
  13   0   1   -0.46    0.58
  13   0   2    9.68    1.00
  13   0   2    9.40    1.03
  13   0   3    0.60    0.59
  13   0   4   27.81    1.64
  13   0   5    0.19    0.56
  13   0   6    0.88    0.56
  13   0   7   -0.71    0.59
 -13   1  13   15.58    1.28
 -13  -1  13   13.26    1.20
 -13   1  12   -0.68    0.64
 -13  -1  12    0.20    0.53
 -13   1  11    1.79    0.57
 -13  -1  11    0.77    0.52
 -13   1  10    2.81    0.58
 -13  -1  10    3.61    0.61
 -13   1   9    4.29    0.58
 -13  -1   9    4.68    0.61
 -13   1   8    0.62    0.39
 -13  -1   8    0.97    0.41
  13   1  -7   19.81    1.46
  13  -1  -7   19.11    1.39
 -13   1   7   19.75    0.96
 -13  -1   7   20.34    0.97
  13  -1  -6    3.09    0.74
  13   1  -6    1.62    0.63
 -13  -1   6    1.36    0.34
 -13   1   6    1.65    0.33
  13  -1  -5    2.12    0.65
  13   1  -5    1.28    0.60
  13  -1  -4    9.06    0.98
  13   1  -4    8.12    0.98
  13   1  -3   18.14    1.33
  13  -1  -3   19.02    1.34
  13   1  -3   19.70    1.35
  13  -1  -3   18.39    1.30
  13   1  -2    0.50    0.56
  13  -1  -2   -0.36    0.52
  13   1  -2    0.27    0.52
  13  -1  -2   -0.98    0.53
  13  -1  -1   27.27    1.56
  13   1  -1   25.91    1.55
  13  -1  -1   26.47    1.58
  13   1  -1   26.53    1.56
  13   1   0    3.29    0.71
  13  -1   0    3.29    0.73
  13   1   0    2.09    0.62
  13  -1   0    1.68    0.64
  13   1   1    4.39    0.76
  13  -1   1    4.14    0.73
  13   1   1    4.50    0.77
  13  -1   1    3.83    0.73
  13   1   2    3.56    0.78
  13  -1   2    3.68    0.74
  13   1   2    3.10    0.75
  13  -1   2    4.53    0.78
  13   1   3   29.01    1.67
  13  -1   3   29.28    1.68
  13   1   4    1.10    0.68
  13  -1   4    0.71    0.58
  13   1   5   24.66    1.59
  13  -1   5   27.62    1.67
  13   1   6    8.13    1.03
  13  -1   6    6.47    0.92
  13   1   7    1.12    0.66
  13  -1   7    2.60    0.73
 -13   2  13   -2.43    0.71
 -13  -2  13   -0.39    0.64
 -13   2  12    4.64    0.79
 -13  -2  12    4.34    0.79
 -13   2  11    1.88    0.56
 -13  -2  11    0.94    0.53
 -13   2  10    0.01    0.46
 -13  -2  10    1.16    0.48
 -13  -2   9   -1.02    0.48
 -13   2   9   -0.17    0.44
  13  -2  -8   42.95    2.03
 -13  -2   8   42.64    1.53
 -13   2   8   42.36    1.54
  13   2  -7    0.38    0.59
  13  -2  -7   -0.24    0.51
 -13  -2   7   -0.22    0.37
 -13   2   7    0.04    0.35
  13  -2  -6    2.85    0.73
  13   2  -6    2.99    0.72
 -13  -2   6    2.84    0.41
 -13   2   6    1.89    0.34
  13  -2  -5    0.42    0.56
  13   2  -5    0.06    0.54
  13  -2  -4    0.64    0.53
  13   2  -4    0.32    0.53
  13   2  -3    0.22    0.55
  13  -2  -3    0.39    0.50
  13  -2  -3    0.51    0.56
  13  -2  -2   17.85    1.26
  13   2  -2   18.90    1.37
  13   2  -2   19.53    1.37
  13  -2  -2   20.31    1.39
  13   2  -1    4.39    0.77
  13  -2  -1    2.78    0.67
  13  -2  -1    4.36    0.77
  13   2  -1    4.17    0.74
  13   2   0   37.56    1.87
  13  -2   0   38.07    1.84
  13   2   0   37.53    1.85
  13  -2   0   40.24    1.91
  13   2   1    5.06    0.82
  13  -2   1    5.98    0.84
  13   2   1    4.13    0.72
  13  -2   1    4.73    0.80
  13  -2   2    4.73    0.81
  13   2   2    3.96    0.79
  13   2   2    3.97    0.70
  13  -2   2    3.63    0.76
  13   2   3    0.56    0.56
  13  -2   3    0.13    0.54
  13  -2   4   27.10    1.59
  13   2   4   22.42    1.55
  13   2   5    1.25    0.63
  13  -2   5    0.27    0.52
  13   2   6   24.16    1.61
  13  -2   6   23.57    1.57
  13   2   7    3.45    0.78
  13  -2   7    3.05    0.72
 -13  -3  13    5.79    0.90
 -13   3  13    4.94    0.84
 -13  -3  12    0.57    0.57
 -13   3  12   -0.50    0.58
 -13  -3  11    9.25    0.94
 -13   3  11    9.20    0.92
 -13  -3  10    0.54    0.47
 -13   3  10   -0.46    0.50
 -13  -3   9    4.79    0.63
 -13   3   9    3.44    0.58
  13  -3  -8    0.45    0.51
 -13  -3   8    1.82    0.48
 -13   3   8    1.03    0.42
  13   3  -7   24.18    1.61
  13  -3  -7   25.58    1.56
 -13   3   7   25.56    1.12
 -13  -3   7   25.54    1.10
  13   3  -6    5.55    0.91
  13  -3  -6    3.56    0.73
 -13  -3   6    5.65    0.53
  13  -3  -5   14.15    1.16
  13   3  -5   13.69    1.19
  13  -3  -4    9.53    1.01
  13   3  -4   10.73    1.12
  13  -3  -4    9.95    1.03
  13  -3  -3   -0.21    0.56
  13   3  -3   -0.41    0.58
  13  -3  -3    0.47    0.56
  13   3  -2    0.13    0.53
  13  -3  -2    0.11    0.48
  13   3  -2    0.32    0.57
  13  -3  -2    0.24    0.53
  13  -3  -1   34.88    1.73
  13   3  -1   31.95    1.70
  13   3  -1   31.87    1.75
  13  -3  -1   32.96    1.75
  13   3   0    2.63    0.70
  13  -3   0    3.16    0.70
  13   3   0    1.47    0.58
  13  -3   0    2.95    0.75
  13  -3   1    0.82    0.57
  13   3   1   -0.35    0.55
  13   3   1   -0.71    0.64
  13  -3   1    1.21    0.65
  13  -3   2    0.39    0.53
  13   3   2    0.32    0.54
  13   3   2   -0.25    0.50
  13   3   3   20.56    1.43
  13  -3   3   18.69    1.32
  13   3   4    3.10    0.76
  13  -3   4    4.18    0.82
  13  -3   5   33.68    1.83
  13   3   5   27.88    1.59
  13   3   6    1.23    0.71
  13  -3   6    1.52    0.69
  13   3   7    0.56    0.60
  13  -3   7    1.21    0.63
 -13  -4  12    2.59    0.68
 -13   4  12    1.81    0.65
 -13   4  11    0.67    0.53
 -13  -4  11   -0.11    0.54
 -13  -4  10   -0.91    0.53
 -13   4  10    0.00    0.46
 -13  -4   9   -0.65    0.45
 -13   4   9    0.42    0.40
  13  -4  -8   11.58    1.07
 -13   4   8   12.91    0.88
 -13  -4   8   13.46    0.90
  13  -4  -7    6.34    0.84
 -13   4   7    6.18    0.62
 -13  -4   7    5.54    0.61
  13   4  -6   34.16    1.85
  13  -4  -6   36.13    1.80
 -13  -4   6   37.65    1.30
  13  -4  -5   -1.11    0.62
  13   4  -5   -0.39    0.55
  13   4  -4   18.51    1.39
  13  -4  -4   20.40    1.40
  13  -4  -4   20.91    1.36
  13   4  -3    1.65    0.56
  13  -4  -3    1.49    0.56
  13  -4  -3    1.12    0.53
  13  -4  -2   21.39    1.36
  13   4  -2   19.50    1.42
  13   4  -2   19.80    1.37
  13  -4  -2   20.60    1.40
  13   4  -1    5.37    0.85
  13  -4  -1    4.75    0.76
  13  -4  -1    6.82    0.90
  13   4  -1    5.17    0.83
  13   4   0   17.50    1.32
  13  -4   0   17.41    1.23
  13   4   0   16.65    1.28
  13  -4   0   16.90    1.29
  13  -4   1    9.10    0.97
  13   4   1    8.26    0.97
  13   4   1    8.13    0.95
  13  -4   1   10.95    1.08
  13  -4   2    1.38    0.60
  13   4   2    2.07    0.65
  13   4   2    0.70    0.55
  13   4   3   -0.57    0.59
  13  -4   3    0.12    0.52
  13  -4   4   18.64    1.34
  13   4   4   21.08    1.47
  13   4   5   -0.07    0.54
  13  -4   5    0.73    0.56
  13   4   6    7.65    0.98
  13  -4   6    9.15    1.08
  13  -4   7   -0.13    0.55
  13   4   7   -0.08    0.60
 -13   5  12    1.75    0.67
 -13  -5  12    0.73    0.53
 -13   5  11    3.16    0.68
 -13  -5  11    3.24    0.68
 -13  -5  10    0.08    0.46
 -13   5  10    1.17    0.51
  13  -5  -9    1.00    0.53
 -13  -5   9    1.36    0.50
 -13   5   9    1.48    0.48
 -13  -5   8    0.36    0.39
  13  -5  -8    1.07    0.58
 -13   5   8    0.79    0.38
  13  -5  -7   38.16    1.85
 -13  -5   7   39.86    1.45
 -13   5   7   38.52    1.44
  13   5  -6   -0.10    0.53
 -13  -5   6    0.61    0.35
  13  -5  -6    0.39    0.55
  13  -5  -5    0.41    0.47
  13   5  -5    0.73    0.58
  13  -5  -4    2.77    0.64
  13   5  -4    3.21    0.76
  13  -5  -4    3.68    0.74
  13   5  -3   11.29    1.12
  13  -5  -3   11.49    1.02
  13  -5  -3   12.84    1.14
  13   5  -2    1.37    0.62
  13  -5  -2    2.16    0.62
  13  -5  -2    1.67    0.59
  13   5  -2    2.61    0.69
  13  -5  -1   46.57    1.96
  13   5  -1   41.50    1.96
  13  -5  -1   46.37    2.06
  13   5  -1   41.51    2.03
  13   5   0   -0.32    0.53
  13  -5   0   -0.42    0.51
  13   5   0    0.03    0.48
  13  -5   0   -0.13    0.51
  13   5   1   26.66    1.60
  13  -5   1   26.34    1.53
  13   5   1   24.16    1.48
  13  -5   1   25.49    1.59
  13  -5   2    0.61    0.53
  13   5   2    1.09    0.56
  13   5   2    0.73    0.56
  13  -5   3   12.19    1.09
  13   5   3   12.53    1.19
  13   5   4    3.67    0.80
  13  -5   4    3.60    0.74
  13   5   5    7.81    0.98
  13  -5   5    9.96    1.04
  13   5   6    1.59    0.65
  13  -5   6    0.95    0.58
  13  -5   7    0.91    0.62
  13   5   7    1.00    0.70
 -13  -6  12    7.98    0.97
 -13   6  12    6.29    0.92
 -13  -6  11    0.55    0.56
 -13   6  11    0.25    0.54
  13  -6 -10   -0.67    0.57
 -13  -6  10    0.44    0.50
 -13   6  10    0.19    0.46
  13  -6  -9    1.80    0.61
 -13  -6   9    2.94    0.58
 -13   6   9    3.14    0.63
  13  -6  -8   13.03    1.13
 -13   6   8   14.44    0.96
 -13  -6   8   14.48    0.98
  13  -6  -7    1.39    0.56
 -13  -6   7    0.10    0.37
  13  -6  -6   19.61    1.33
  13   6  -6   19.13    1.44
 -13  -6   6   20.82    1.00
  13  -6  -5    0.26    0.48
  13   6  -5    1.24    0.65
  13  -6  -5    1.01    0.56
  13  -6  -4   -0.80    0.56
  13   6  -4   -0.30    0.64
  13  -6  -4   -0.96    0.61
  13   6  -3    0.11    0.55
  13  -6  -3    0.04    0.45
  13  -6  -3   -0.60    0.60
  13  -6  -2   26.30    1.47
  13   6  -2   27.24    1.66
  13   6  -2   24.39    1.53
  13  -6  -2   27.35    1.61
  13   6  -1    3.57    0.78
  13  -6  -1    3.77    0.70
  13  -6  -1    3.16    0.70
  13   6  -1    5.46    0.88
  13   6   0   17.07    1.31
  13  -6   0   15.58    1.16
  13   6   0   14.41    1.19
  13  -6   0   16.96    1.30
  13  -6   1    0.12    0.49
  13   6   1   -0.40    0.58
  13   6   1   -0.25    0.53
  13  -6   1    0.28    0.48
  13  -6   2    4.67    0.76
  13   6   2    4.68    0.85
  13   6   2    3.56    0.70
  13   6   3    3.15    0.78
  13  -6   3    1.72    0.59
  13  -6   4   21.61    1.42
  13   6   4   22.13    1.51
  13   6   5    7.71    1.01
  13  -6   5    6.15    0.89
  13   6   6    3.16    0.71
  13  -6   6    3.38    0.73
 -13  -7  11    2.18    0.64
  13  -7 -10   -0.20    0.53
 -13  -7  10    0.80    0.53
 -13  -7   9    3.42    0.64
  13  -7  -9    1.93    0.62
  13  -7  -8    2.88    0.67
 -13  -7   8    3.85    0.60
  13  -7  -7   12.07    1.08
  13   7  -7   13.50    1.27
 -13  -7   7   12.16    0.88
  13  -7  -6    0.53    0.51
  13   7  -6    1.00    0.65
 -13  -7   6   -0.19    0.36
  13  -7  -6   -0.30    0.55
  13  -7  -5   -0.59    0.52
  13   7  -5    0.31    0.54
  13  -7  -5   -0.20    0.51
  13  -7  -4   -0.03    0.48
  13   7  -4    0.29    0.55
  13  -7  -4   -0.15    0.56
  13   7  -3    0.87    0.63
  13  -7  -3    1.18    0.52
  13  -7  -3    1.53    0.60
  13   7  -2    8.12    1.01
  13  -7  -2    9.39    0.97
  13  -7  -2    8.96    1.01
  13   7  -2    8.24    0.97
  13  -7  -1   18.58    1.26
  13   7  -1   17.60    1.30
  13  -7  -1   17.97    1.32
  13   7  -1   19.95    1.45
  13  -7   0    0.67    0.55
  13   7   0   -0.22    0.55
  13   7   0   -0.86    0.58
  13  -7   0   -0.13    0.50
  13  -7   1    5.46    0.77
  13   7   1    4.73    0.77
  13   7   1    5.89    0.84
  13  -7   2   -0.62    0.50
  13   7   2   -0.54    0.67
  13   7   2    0.57    0.53
  13  -7   3   34.43    1.73
  13   7   3   33.00    1.84
  13   7   4    1.21    0.62
  13  -7   4    0.15    0.49
  13   7   5   15.11    1.31
  13  -7   5   13.92    1.22
  13  -7   6    3.95    0.77
  13   7   6    2.25    0.73
  13  -8 -11    1.63    0.58
 -13  -8  11    2.24    0.67
 -13  -8  10   -0.08    0.49
  13  -8 -10   -0.21    0.48
  13  -8  -9   -0.65    0.53
 -13  -8   9   -0.44    0.47
 -13  -8   8   12.01    0.93
  13  -8  -8   13.24    1.12
  13  -8  -7    2.11    0.61
  13   8  -7    2.88    0.76
 -13  -8   7    1.86    0.51
  13  -8  -6    1.30    0.52
  13   8  -6    1.14    0.64
 -13  -8   6    1.41    0.42
  13  -8  -6    0.52    0.53
  13  -8  -5    1.10    0.49
  13   8  -5    1.89    0.67
  13  -8  -5    0.17    0.54
  13  -8  -4    0.55    0.48
  13   8  -4    0.67    0.58
  13  -8  -4   -0.59    0.60
  13   8  -3    1.23    0.68
  13  -8  -3    0.29    0.45
  13  -8  -3    0.29    0.51
  13  -8  -2   54.13    2.09
  13   8  -2   54.25    2.37
  13   8  -2   52.72    2.21
  13  -8  -2   58.42    2.34
  13  -8  -1    5.74    0.77
  13   8  -1    5.11    0.87
  13  -8  -1    5.52    0.92
  13   8  -1    3.67    0.70
  13  -8   0    7.80    0.87
  13   8   0    7.76    0.98
  13   8   0    7.37    0.89
  13  -8   0    8.11    0.94
  13  -8   1   -0.80    0.59
  13   8   1   -0.94    0.64
  13   8   1   -0.81    0.57
  13  -8   2    1.40    0.52
  13   8   2    1.85    0.65
  13   8   2    1.28    0.53
  13   8   3    0.19    0.52
  13  -8   3    0.42    0.48
  13   8   4    6.76    0.94
  13  -8   4    6.55    0.85
  13   8   5   10.38    1.14
  13  -8   5   10.36    1.07
  13  -8   6    4.30    0.81
  13   8   6    4.59    0.86
 -13  -9  11    6.99    0.93
  13  -9 -10   -1.45    0.62
 -13  -9  10    0.93    0.60
  13  -9  -9    0.61    0.47
 -13  -9   9    0.85    0.56
  13  -9  -8    0.19    0.47
 -13  -9   8    1.18    0.53
  13   9  -7   14.35    1.32
 -13  -9   7   14.07    0.97
  13  -9  -7   14.21    1.12
  13  -9  -7   12.35    1.15
  13  -9  -6    5.63    0.77
  13   9  -6    6.60    1.00
  13  -9  -6    6.38    0.86
  13  -9  -5   -0.28    0.50
  13   9  -5    0.69    0.53
  13  -9  -5    0.65    0.53
  13  -9  -4    1.01    0.45
  13  -9  -4   -0.13    0.58
  13   9  -4    0.79    0.56
  13   9  -3    0.03    0.57
  13  -9  -3    0.19    0.44
  13  -9  -3   -0.34    0.58
  13   9  -2    3.93    0.82
  13  -9  -2    4.65    0.74
  13  -9  -2    4.07    0.83
  13   9  -2    4.96    0.80
  13  -9  -1   20.64    1.32
  13   9  -1   19.83    1.46
  13   9  -1   22.22    1.43
  13  -9  -1   21.89    1.45
  13  -9   0    7.61    0.87
  13   9   0    8.79    1.02
  13   9   0    7.03    0.88
  13  -9   1   -0.08    0.47
  13   9   1    0.29    0.52
  13   9   1    0.21    0.47
  13   9   2    0.27    0.55
  13   9   2    0.37    0.47
  13  -9   3   19.40    1.32
  13   9   3   19.82    1.47
  13   9   4    6.81    0.95
  13  -9   4    6.83    0.91
  13   9   5   25.98    1.66
  13  -9   5   26.83    1.61
  13  -9   6    3.94    0.76
  13   9   6    2.63    0.73
 -13 -10  10    1.06    0.59
 -13 -10   9    1.83    0.67
  13 -10  -8    8.20    0.91
  13 -10  -8    7.27    0.93
  13 -10  -7    2.06    0.60
  13  10  -7    0.17    0.57
  13 -10  -7    1.41    0.57
  13 -10  -6   15.30    1.13
  13 -10  -6   15.08    1.24
  13  10  -6   15.60    1.35
  13 -10  -5    1.93    0.52
  13 -10  -5    1.67    0.56
  13  10  -5    2.12    0.69
  13 -10  -4    0.68    0.46
  13  10  -4    1.39    0.67
  13 -10  -4    0.94    0.54
  13  10  -3   12.00    1.17
  13 -10  -3   10.70    0.95
  13 -10  -3    9.62    1.03
  13 -10  -2   45.20    1.88
  13  10  -2   48.38    2.22
  13  10  -2   45.89    2.03
  13 -10  -2   44.68    2.09
  13 -10  -1    1.22    0.54
  13  10  -1    0.68    0.61
  13 -10  -1    1.63    0.61
  13  10  -1    1.15    0.55
  13  10   0   21.40    1.52
  13 -10   0   19.86    1.27
  13  10   0   21.25    1.36
  13 -10   1    1.63    0.53
  13  10   1    1.31    0.61
  13  10   1    2.56    0.63
  13 -10   2    2.16    0.60
  13  10   2    2.12    0.70
  13  10   2    1.48    0.57
  13  10   3    5.87    0.91
  13 -10   3    6.14    0.82
  13  10   4   13.40    1.22
  13 -10   4   11.97    1.10
  13 -10   5    1.13    0.57
  13  10   5    2.63    0.76
  13 -10   6    8.77    1.02
  13 -11  -9    7.40    0.96
  13 -11  -8    4.13    0.77
  13 -11  -7   22.25    1.53
  13 -11  -6    3.67    0.61
  13  11  -6    4.78    0.88
  13 -11  -6    4.23    0.75
  13 -11  -5   -0.59    0.50
  13 -11  -5    0.82    0.54
  13  11  -5    2.10    0.72
  13  11  -4    0.50    0.54
  13 -11  -4    1.19    0.47
  13 -11  -4    0.97    0.52
  13  11  -3    4.24    0.85
  13 -11  -3    4.33    0.67
  13 -11  -3    5.40    0.84
  13 -11  -2    2.83    0.63
  13  11  -2    3.62    0.85
  13 -11  -2    3.01    0.72
  13  11  -2    2.47    0.70
  13 -11  -1    0.13    0.47
  13  11  -1    0.41    0.57
  13  11  -1    0.52    0.49
  13 -11   0    0.14    0.47
  13  11   0   -0.15    0.57
  13  11   0   -0.25    0.50
  13 -11   1    3.25    0.63
  13  11   1    3.25    0.78
  13  11   1    2.25    0.60
  13 -11   2    0.63    0.54
  13  11   2   -0.88    0.64
  13  11   2    0.07    0.47
  13 -11   3   28.11    1.59
  13  11   3   29.87    1.76
  13 -11   4    3.86    0.78
  13  11   4    3.54    0.78
  13 -11   5   10.63    1.06
  13  11   5   11.94    1.15
  13 -11   6    1.38    0.64
  13 -12  -9    0.32    0.53
  13 -12  -8    3.47    0.72
  13 -12  -7    1.41    0.53
  13 -12  -6   10.67    1.09
  13  12  -6    9.63    1.17
  13 -12  -5    4.19    0.74
  13  12  -5    5.50    0.93
  13  12  -4    0.35    0.59
  13 -12  -4    0.27    0.50
  13 -12  -3    0.89    0.44
  13  12  -3   -0.02    0.55
  13 -12  -3    0.41    0.56
  13 -12  -2    1.27    0.52
  13  12  -2    0.01    0.55
  13 -12  -2    2.30    0.70
  13  12  -2    0.54    0.54
  13  12  -1   15.83    1.33
  13 -12  -1   14.23    1.08
  13  12  -1   14.30    1.16
  13 -12   0    6.28    0.77
  13  12   0    5.34    0.84
  13  12   0    5.86    0.80
  13 -12   1    1.46    0.55
  13  12   1    1.05    0.65
  13  12   1    1.06    0.51
  13  12   2   -1.18    0.71
  13 -12   2   -0.14    0.54
  13 -12   3   -0.38    0.51
  13  12   3    1.26    0.62
  13  12   4   12.00    1.17
  13 -12   4   12.78    1.14
  13  12   5    1.19    0.64
  13 -12   5    0.96    0.58
  13 -13  -8    3.59    0.76
  13 -13  -7   12.76    1.21
  13 -13  -6    2.39    0.66
  13 -13  -5    0.65    0.52
  13  13  -5    1.53    0.72
  13  13  -4    0.81    0.61
  13 -13  -4    0.18    0.48
  13  13  -3    5.92    0.93
  13 -13  -3    6.66    0.87
  13  13  -3    5.55    0.81
  13  13  -2   26.88    1.69
  13  13  -2   25.83    1.53
  13  13  -1   30.17    1.79
  13  13  -1   30.67    1.60
  13  13   0    7.98    1.02
  13 -13   1    9.82    0.96
  13  13   1    6.61    0.93
  13 -13   2    0.10    0.48
  13  13   2    0.72    0.57
  13  13   3    0.23    0.53
  13 -13   3    0.12    0.51
  13  13   4    1.44    0.60
  13 -13   4    1.25    0.62
  13 -13   5    0.63    0.61
  13 -14  -6    3.53    0.73
  13 -14  -5   -0.33    0.58
  13  14  -4    2.57    0.77
  13 -14  -4    1.53    0.58
  13  14  -3    2.02    0.73
  13  14  -2   10.06    1.12
  13  14  -1    0.41    0.55
  13  14   0   17.27    1.36
  13  14   1   -0.21    0.56
  13  14   2    5.14    0.85
  13  14   3    6.27    0.95
  13  14   4    3.51    0.79
  13 -15  -5   -0.54    0.64
  13  15  -3    1.63    0.65
  13  15  -2    7.03    0.98
  13  15  -1    9.21    1.05
  13  15   0    3.95    0.76
  13  15   1    1.49    0.65
  13  15   2   -0.21    0.61
  13  16  -2    2.03    0.79
  14   0  -8   -0.56    0.61
  14   0  -7   -0.03    0.55
  14   0  -6   25.04    1.62
  14   0  -5   -0.31    0.58
  14   0  -4    8.86    1.04
  14   0  -4   10.19    1.09
  14   0  -3   -0.78    0.62
  14   0  -3   -0.24    0.61
  14   0  -2    2.56    0.68
  14   0  -2    3.30    0.75
  14   0  -1    0.13    0.55
  14   0  -1    1.01    0.61
  14   0   0   71.28    2.67
  14   0   0   74.46    2.76
  14   0   1   -0.27    0.55
  14   0   1   -0.66    0.64
  14   0   2    3.05    0.80
  14   0   2    2.90    0.76
  14   0   3    0.24    0.57
  14   0   4    0.62    0.56
  14   0   5    0.71    0.64
  14  -1  -9   -1.41    0.68
  14   1  -8    0.68    0.63
  14  -1  -8    0.37    0.60
  14   1  -7   16.42    1.38
  14  -1  -7   16.55    1.36
  14  -1  -6    0.99    0.60
  14   1  -6    2.65    0.74
  14   1  -5   16.80    1.37
  14  -1  -5   18.06    1.39
  14   1  -4    6.39    0.94
  14  -1  -4    5.42    0.85
  14  -1  -4    5.54    0.86
  14   1  -3   -0.97    0.60
  14  -1  -3   -0.65    0.55
  14   1  -3    0.20    0.55
  14  -1  -3   -0.55    0.58
  14   1  -2    1.40    0.69
  14  -1  -2    1.28    0.60
  14   1  -2    2.01    0.69
  14  -1  -2    1.33    0.61
  14   1  -1   25.69    1.61
  14  -1  -1   25.77    1.58
  14   1  -1   27.25    1.66
  14  -1  -1   25.90    1.63
  14   1   0    2.27    0.77
  14  -1   0    1.07    0.63
  14   1   0    1.60    0.73
  14  -1   0    1.46    0.72
  14   1   1    6.38    0.91
  14  -1   1    7.88    0.93
  14   1   1    6.41    0.94
  14  -1   1    7.45    0.99
  14   1   2   -1.22    0.65
  14  -1   2   -0.42    0.51
  14   1   2   -0.66    0.62
  14  -1   2   -0.03    0.53
  14   1   3   10.20    1.10
  14  -1   3   10.96    1.13
  14   1   4   -0.15    0.62
  14  -1   4    0.14    0.56
  14   1   5   10.39    1.13
  14  -1   5   10.73    1.13
  14  -2  -9    1.17    0.57
  14   2  -8    8.66    1.08
  14  -2  -8    9.37    1.04
  14  -2  -7    1.96    0.64
  14   2  -7    2.19    0.76
  14  -2  -6   43.19    2.10
  14   2  -6   43.32    2.14
  14  -2  -5    1.42    0.66
  14   2  -5    2.11    0.78
  14   2  -4    5.46    0.89
  14  -2  -4    6.26    0.94
  14  -2  -4    5.33    0.87
  14   2  -3   -0.71    0.62
  14  -2  -3   -0.44    0.56
  14   2  -3   -0.74    0.65
  14  -2  -3   -0.09    0.54
  14  -2  -2   15.18    1.26
  14   2  -2   16.00    1.30
  14   2  -2   14.61    1.25
  14  -2  -2   14.18    1.27
  14   2  -1    0.50    0.60
  14  -2  -1    1.03    0.60
  14   2  -1    0.80    0.66
  14  -2  -1    0.37    0.57
  14   2   0   17.88    1.36
  14  -2   0   18.22    1.35
  14   2   0   18.89    1.40
  14  -2   0   18.94    1.40
  14  -2   1    9.39    1.03
  14   2   1    9.52    1.08
  14   2   1    8.47    1.01
  14  -2   1    9.28    1.06
  14   2   2   -0.31    0.58
  14  -2   2    0.92    0.58
  14   2   2    0.18    0.52
  14   2   3    0.04    0.55
  14  -2   3   -0.49    0.58
  14   2   4    8.49    1.01
  14  -2   4    9.61    1.06
  14   2   5    0.25    0.59
  14  -2   5    0.80    0.63
  14  -3  -9    4.80    0.83
  14   3  -8   -0.50    0.61
  14  -3  -8   -0.27    0.55
  14   3  -7    7.36    1.02
  14  -3  -7    8.10    1.01
  14  -3  -6    6.45    0.92
  14   3  -6    7.46    1.01
  14  -3  -5   10.42    1.11
  14   3  -5   10.64    1.15
  14   3  -4    1.19    0.62
  14  -3  -4    1.20    0.52
  14  -3  -4    2.99    0.76
  14   3  -3    1.79    0.70
  14  -3  -3    1.69    0.68
  14   3  -3    0.98    0.65
  14  -3  -3    1.82    0.65
  14   3  -2    1.50    0.62
  14  -3  -2    1.09    0.59
  14  -3  -2    1.55    0.65
  14   3  -2    0.91    0.53
  14   3  -1   18.06    1.38
  14  -3  -1   15.06    1.24
  14   3  -1   17.22    1.33
  14  -3  -1   17.13    1.38
  14   3   0    2.13    0.67
  14  -3   0    1.78    0.67
  14   3   0    2.50    0.72
  14  -3   0    3.13    0.77
  14  -3   1    0.60    0.60
  14   3   1    0.69    0.59
  14   3   1    0.54    0.58
  14  -3   1    1.07    0.67
  14   3   2    2.07    0.70
  14  -3   2    2.40    0.73
  14   3   2    0.48    0.56
  14   3   3    5.37    0.88
  14  -3   3    4.87    0.82
  14   3   4   -0.31    0.54
  14  -3   4    1.05    0.64
  14   3   5   11.97    1.23
  14  -3   5   10.79    1.12
  14  -4 -10    1.43    0.64
  14  -4  -9   -0.34    0.63
  14   4  -8    8.19    1.07
  14  -4  -8    8.41    0.99
  14  -4  -7   -0.14    0.54
  14   4  -7    1.36    0.71
  14  -4  -6   56.69    2.36
  14   4  -6   52.63    2.41
  14  -4  -5   -0.23    0.55
  14   4  -5   -0.28    0.55
  14  -4  -5   -0.44    0.59
  14   4  -4    2.60    0.70
  14  -4  -4    1.97    0.64
  14  -4  -4    3.00    0.72
  14  -4  -3   19.16    1.36
  14   4  -3   19.31    1.43
  14  -4  -3   18.88    1.45
  14   4  -3   19.14    1.45
  14   4  -2    2.31    0.72
  14  -4  -2    2.87    0.67
  14  -4  -2    2.37    0.65
  14   4  -2    2.73    0.68
  14   4  -1    3.41    0.77
  14  -4  -1    1.49    0.64
  14   4  -1    3.25    0.73
  14  -4  -1    3.50    0.82
  14   4   0   27.82    1.72
  14  -4   0   26.85    1.58
  14   4   0   25.53    1.62
  14  -4   0   26.26    1.68
  14  -4   1    0.63    0.55
  14   4   1    1.25    0.88
  14   4   1    1.04    0.60
  14  -4   1    0.68    0.60
  14   4   2    0.41    0.77
  14  -4   2    0.23    0.50
  14   4   2   -0.24    0.52
  14   4   3   -0.21    0.57
  14  -4   3    0.08    0.52
  14   4   4    8.91    1.09
  14  -4   4    8.04    1.01
  14   4   5    1.80    0.70
  14  -4   5    2.25    0.72
  14  -5 -10   -0.50    0.58
  14  -5  -9    0.00    0.54
  14  -5  -8    0.43    0.53
  14  -5  -7   18.54    1.37
  14   5  -7   14.83    1.38
  14  -5  -6    5.04    0.84
  14   5  -6    5.15    0.93
  14  -5  -5    6.27    0.89
  14   5  -5    4.50    0.89
  14  -5  -5    3.58    0.79
  14   5  -4    3.06    0.78
  14  -5  -4    1.99    0.61
  14  -5  -4    2.55    0.74
  14   5  -3    9.17    1.05
  14  -5  -3    8.31    0.94
  14  -5  -3   10.89    1.13
  14   5  -3    9.80    1.05
  14   5  -2   -0.02    0.68
  14  -5  -2    0.36    0.50
  14  -5  -2    0.68    0.59
  14   5  -2    0.80    0.60
  14   5  -1   20.38    1.48
  14  -5  -1   19.85    1.39
  14   5  -1   20.37    1.46
  14  -5  -1   21.99    1.51
  14  -5   0    1.29    0.57
  14   5   0    2.48    0.70
  14   5   0    2.40    0.74
  14  -5   0    3.37    0.80
  14   5   1   14.37    1.30
  14  -5   1   16.25    1.27
  14   5   1   13.89    1.22
  14  -5   1   17.20    1.38
  14   5   2    2.53    0.72
  14  -5   2    2.03    0.66
  14   5   2    1.09    0.55
  14   5   3    0.20    0.55
  14  -5   3    0.34    0.52
  14   5   4   -0.05    0.59
  14  -5   4    0.51    0.51
  14  -5   5    4.43    0.81
  14  -6 -10    5.42    0.88
  14  -6  -9    0.88    0.54
  14  -6  -8    3.75    0.75
  14  -6  -7    2.16    0.67
  14   6  -7    1.44    0.63
  14  -6  -6   33.09    1.86
  14  -6  -6   32.61    1.77
  14   6  -6   29.01    1.82
  14  -6  -5    0.95    0.55
  14   6  -5    2.17    0.73
  14  -6  -5    1.55    0.65
  14   6  -4    0.59    0.60
  14  -6  -4    0.14    0.51
  14  -6  -4    0.24    0.56
  14   6  -3    1.56    0.62
  14  -6  -3    1.36    0.52
  14  -6  -3    1.57    0.63
  14   6  -3    2.37    0.74
  14   6  -2    0.77    0.55
  14  -6  -2    0.48    0.52
  14  -6  -2    0.36    0.58
  14   6  -2    0.05    0.54
  14   6  -1    6.87    1.00
  14  -6  -1    7.54    0.92
  14   6  -1    6.54    0.93
  14  -6  -1    7.58    0.99
  14   6   0   20.92    1.51
  14  -6   0   21.45    1.42
  14   6   0   21.06    1.47
  14  -6   0   23.13    1.58
  14  -6   1    1.60    0.60
  14   6   1    2.82    0.77
  14   6   1    0.38    0.54
  14  -6   2    0.39    0.53
  14   6   2    0.65    0.80
  14   6   2    0.47    0.55
  14   6   3    0.05    0.59
  14  -6   3    0.14    0.50
  14   6   4    2.96    0.74
  14  -6   4    2.64    0.69
  14  -6   5    1.99    0.66
  14  -7 -10    1.22    0.56
  14  -7  -9   -0.19    0.50
  14  -7  -8   -0.39    0.52
  14  -7  -7   22.27    1.47
  14  -7  -6    4.61    0.80
  14   7  -6    5.01    0.93
  14  -7  -6    4.25    0.79
  14  -7  -5    5.43    0.82
  14   7  -5    6.81    1.00
  14  -7  -5    9.47    1.11
  14   7  -4   -0.78    0.67
  14  -7  -4   -0.83    0.58
  14  -7  -4   -0.36    0.53
  14   7  -3    0.07    0.55
  14  -7  -3    0.47    0.49
  14  -7  -3   -0.29    0.58
  14   7  -3    0.69    0.54
  14   7  -2    3.57    0.78
  14  -7  -2    2.08    0.66
  14  -7  -2    3.44    0.77
  14   7  -2    2.22    0.71
  14   7  -1   22.90    1.58
  14  -7  -1   21.08    1.40
  14   7  -1   22.37    1.52
  14  -7  -1   22.48    1.56
  14  -7   0    2.26    0.65
  14   7   0    1.44    0.64
  14   7   0    1.40    0.65
  14  -7   0    1.83    0.66
  14  -7   1    5.28    0.82
  14   7   1    5.03    0.85
  14   7   1    4.05    0.96
  14  -7   2   -0.55    0.62
  14   7   2   -0.82    0.68
  14   7   2   -0.03    0.56
  14   7   3    3.18    0.76
  14  -7   3    2.38    0.67
  14   7   4    6.52    0.97
  14  -7   4    6.75    0.95
  14  -7   5    2.42    0.73
  14  -8 -10   -0.07    0.54
  14  -8  -9    6.30    0.87
  14  -8  -8    4.70    0.80
  14  -8  -7    1.11    0.58
  14  -8  -7    0.65    0.59
  14  -8  -6    7.64    0.90
  14   8  -6    9.94    1.15
  14  -8  -6    9.61    1.05
  14  -8  -5    1.57    0.55
  14   8  -5    2.53    0.72
  14  -8  -5    0.51    0.54
  14   8  -4   -0.68    0.61
  14  -8  -4    0.55    0.51
  14  -8  -4    0.27    0.55
  14   8  -3    0.41    0.57
  14  -8  -3   -0.27    0.56
  14  -8  -3   -0.83    0.59
  14   8  -3   -0.01    0.54
  14   8  -2   13.41    1.28
  14  -8  -2   13.35    1.11
  14   8  -2   14.24    1.24
  14  -8  -2   14.42    1.27
  14  -8  -1    8.36    0.96
  14   8  -1    7.38    1.01
  14   8  -1    8.72    1.04
  14  -8  -1    8.09    1.02
  14   8   0   10.98    1.15
  14  -8   0   12.40    1.12
  14   8   0   11.63    1.12
  14  -8   0   13.12    1.20
  14  -8   1   -0.42    0.53
  14   8   1   -0.16    0.55
  14   8   1   -0.74    0.62
  14   8   2   -0.50    0.67
  14  -8   2    1.14    0.53
  14   8   2    0.46    0.52
  14   8   3    0.52    0.59
  14  -8   3    0.05    0.51
  14  -8   4   11.37    1.13
  14   8   4   14.16    1.32
  14  -9  -9    6.55    0.87
  14  -9  -8    0.34    0.50
  14  -9  -7    7.15    0.89
  14  -9  -7    5.40    0.87
  14  -9  -6    6.79    0.86
  14  -9  -6    6.82    0.97
  14  -9  -5    9.34    0.97
  14  -9  -5    8.96    1.07
  14   9  -5    7.44    1.03
  14   9  -4    2.17    0.70
  14  -9  -4    0.85    0.49
  14  -9  -4    1.69    0.59
  14   9  -3    0.15    0.56
  14  -9  -3    0.28    0.49
  14  -9  -3    0.16    0.55
  14   9  -3   -0.32    0.52
  14   9  -2    0.03    0.55
  14  -9  -2    0.87    0.53
  14  -9  -2    1.07    0.62
  14   9  -2    0.47    0.56
  14   9  -1   34.31    1.94
  14  -9  -1   33.73    1.74
  14   9  -1   32.26    1.79
  14  -9  -1   33.73    1.89
  14  -9   0    2.86    0.68
  14   9   0    5.94    0.96
  14   9   0    3.47    0.75
  14  -9   1    6.85    0.87
  14   9   1    8.72    1.07
  14   9   1    5.62    0.83
  14   9   2    1.44    0.64
  14  -9   2    0.28    0.52
  14   9   2    0.51    0.54
  14   9   3    3.73    0.88
  14  -9   3    3.63    0.75
  14  -9   4    0.58    0.56
  14 -10  -7    2.53    0.65
  14 -10  -7    1.33    0.59
  14 -10  -6   13.05    1.12
  14 -10  -6   11.13    1.16
  14 -10  -5   -0.09    0.54
  14 -10  -5   -0.20    0.58
  14  10  -4    2.41    0.77
  14 -10  -4    2.43    0.62
  14 -10  -4    3.11    0.73
  14  10  -3   -0.63    0.59
  14 -10  -3   -0.24    0.53
  14 -10  -3    0.32    0.54
  14  10  -3    0.17    0.60
  14 -10  -2    4.85    0.75
  14  10  -2    4.69    0.86
  14 -10  -2    3.75    0.81
  14  10  -2    4.53    0.83
  14 -10  -1    2.53    0.71
  14  10  -1    2.16    0.76
  14  10  -1    1.06    0.63
  14 -10  -1    1.73    0.66
  14 -10   0    3.31    0.67
  14  10   0    4.96    0.88
  14  10   0    5.04    0.84
  14 -10   1   -0.47    0.56
  14  10   1   -0.04    0.61
  14  10   1   -0.77    0.56
  14  10   2    0.32    0.56
  14 -10   2    0.20    0.51
  14 -10   3    0.84    0.59
  14 -10   4    3.67    0.76
  14 -11  -6    4.73    0.82
  14 -11  -5    6.35    0.84
  14 -11  -5    6.29    0.90
  14 -11  -4    0.30    0.49
  14 -11  -4   -0.03    0.55
  14 -11  -3    1.71    0.59
  14  11  -3    0.16    0.61
  14 -11  -3    2.25    0.71
  14  11  -3   -0.82    0.62
  14 -11  -2    1.40    0.57
  14  11  -2    1.21    0.66
  14 -11  -2    0.76    0.57
  14  11  -2    1.49    0.62
  14 -11  -1    3.15    0.67
  14  11  -1    2.87    0.82
  14  11  -1    2.49    0.67
  14 -11   0    3.18    0.65
  14  11   0    3.87    0.85
  14  11   0    3.30    0.71
  14 -11   1    4.04    0.75
  14  11   1    5.19    0.92
  14  11   1    3.58    0.71
  14  11   2    0.15    0.57
  14 -11   2    0.57    0.53
  14 -11   3   11.89    1.10
  14 -11   4    2.79    0.73
  14 -12  -5   10.66    1.10
  14 -12  -4    0.71    0.56
  14 -12  -3    0.43    0.55
  14  12  -3   -0.05    0.53
  14  12  -2    3.65    0.81
  14  12  -2    3.36    0.75
  14 -12  -1    1.41    0.57
  14  12  -1    2.01    0.72
  14  12  -1    1.13    0.60
  14 -12   0   12.47    1.10
  14  12   0   12.59    1.27
  14  12   0   11.64    1.11
  14 -12   1    6.41    0.88
  14 -12   2    0.56    0.54
  14 -12   3    1.49    0.66
  14 -12   4    3.28    0.78
  14 -13  -4    4.21    0.83
  14 -13  -3    3.08    0.71
  14  13  -3    2.63    0.83
  15   0  -7    0.53    0.60
  15   0  -6    2.43    0.77
  15   0  -5    0.37    0.63
  15   0  -4    0.83    0.64
  15   0  -4    1.06    0.66
  15   0  -3   -0.83    0.63
  15   0  -3    0.09    0.60
  15   0  -2   11.42    1.20
  15   0  -2   12.26    1.26
  15   0  -1   -0.80    0.59
  15   0  -1    0.02    0.57
  15   0   0   17.88    1.44
  15   0   0   17.44    1.45
  15   0   1    1.47    0.72
  15   0   1    0.46    0.62
  15   0   2    7.11    1.01
  15   0   3    0.17    0.60
  15  -1  -7    5.42    0.91
  15  -1  -6    5.53    0.95
  15   1  -6    6.37    0.99
  15   1  -5   13.83    1.33
  15  -1  -5   13.75    1.30
  15  -1  -5   13.32    1.27
  15   1  -4    1.51    0.67
  15  -1  -4    0.98    0.64
  15   1  -4    1.91    0.74
  15  -1  -4    0.40    0.57
  15   1  -3   -0.32    0.63
  15  -1  -3   -0.11    0.54
  15   1  -3   -0.80    0.65
  15  -1  -3   -1.12    0.61
  15   1  -2    0.84    0.59
  15  -1  -2    0.87    0.61
  15   1  -2    1.18    0.66
  15  -1  -2    0.95    0.59
  15   1  -1   12.47    1.20
  15  -1  -1   12.35    1.22
  15  -1  -1   12.51    1.24
  15   1  -1   14.07    1.30
  15   1   0    0.22    0.57
  15  -1   0    0.37    0.59
  15   1   0    0.85    0.75
  15  -1   0    0.44    0.58
  15   1   1   19.58    1.51
  15  -1   1   18.52    1.44
  15   1   1   17.99    1.44
  15  -1   1   19.11    1.50
  15   1   2    3.45    0.84
  15  -1   2    3.01    0.81
  15   1   2    2.96    0.82
  15  -1   3    0.59    0.59
  15  -2  -7   -0.09    0.58
  15   2  -6   37.56    2.11
  15  -2  -6   33.99    1.93
  15   2  -5    4.47    0.91
  15  -2  -5    6.44    0.98
  15  -2  -5    4.76    0.90
  15   2  -4   20.59    1.56
  15  -2  -4   20.99    1.54
  15  -2  -4   21.52    1.50
  15   2  -4   21.52    1.55
  15   2  -3    0.59    0.59
  15  -2  -3   -0.04    0.56
  15   2  -3   -0.47    0.65
  15  -2  -3   -0.38    0.59
  15   2  -2   -0.04    0.63
  15  -2  -2    0.83    0.60
  15  -2  -2    0.92    0.65
  15   2  -2    0.12    0.65
  15   2  -1    2.59    0.70
  15  -2  -1    1.58    0.70
  15   2  -1    1.35    0.65
  15  -2  -1    1.42    0.68
  15   2   0    3.38    0.80
  15  -2   0    4.37    0.84
  15   2   0    3.15    0.80
  15  -2   0    4.80    0.89
  15  -2   1    2.21    0.74
  15   2   1    3.08    0.80
  15   2   1    2.02    0.77
  15  -2   1    3.35    0.82
  15   2   2   19.97    1.55
  15  -2   2   22.27    1.57
  15   2   2   18.94    1.51
  15  -2   3    0.70    0.57
  15  -3  -7   10.24    1.13
  15  -3  -6   -0.06    0.58
  15   3  -5   46.45    2.31
  15  -3  -5   47.52    2.28
  15  -3  -5   46.26    2.22
  15   3  -4    7.47    1.02
  15  -3  -4    6.60    0.94
  15   3  -4    5.35    0.95
  15  -3  -4    5.23    0.90
  15   3  -3   -0.03    0.58
  15  -3  -3    1.20    0.60
  15  -3  -3    0.42    0.57
  15   3  -3    0.07    0.54
  15   3  -2    0.37    0.53
  15  -3  -2    0.80    0.67
  15  -3  -2    1.20    0.65
  15   3  -2    1.38    0.64
  15   3  -1    0.68    0.65
  15  -3  -1   -0.14    0.52
  15   3  -1    0.70    0.63
  15  -3  -1   -1.14    0.64
  15   3   0    0.04    0.59
  15  -3   0   -0.94    0.60
  15   3   0    0.18    0.57
  15  -3   0   -0.08    0.56
  15   3   1   31.91    1.91
  15  -3   1   33.66    1.87
  15   3   1   29.67    1.83
  15  -3   1   29.97    1.85
  15   3   2    2.40    0.79
  15  -3   2    1.37    0.65
  15   3   2    0.61    0.58
  15  -3   3   -0.26    0.57
  15  -4  -8    0.56    0.60
  15  -4  -7    1.15    0.65
  15  -4  -6   24.47    1.61
  15   4  -5    3.90    0.85
  15  -4  -5    4.28    0.87
  15  -4  -5    3.88    0.90
  15   4  -4   -0.31    0.62
  15  -4  -4    0.90    0.57
  15   4  -4   -0.14    0.58
  15  -4  -4    0.38    0.58
  15   4  -3   -0.25    0.64
  15  -4  -3    0.78    0.65
  15  -4  -3    0.16    0.59
  15   4  -3    1.44    0.65
  15   4  -2    2.78    0.81
  15  -4  -2    2.90    0.74
  15  -4  -2    1.29    0.63
  15   4  -2    1.66    0.65
  15   4  -1    8.39    1.09
  15  -4  -1    8.17    1.05
  15   4  -1    6.07    0.94
  15  -4  -1    7.44    1.04
  15  -4   0    7.36    0.97
  15   4   0    8.74    1.08
  15   4   0    7.32    0.95
  15  -4   0    7.31    1.03
  15  -4   1    1.14    0.64
  15   4   1    0.18    0.58
  15   4   1    0.52    0.63
  15  -4   1    1.15    0.64
  15   4   2    8.91    1.11
  15  -4   2    8.95    1.04
  15   4   2    7.05    0.98
  15  -4   3    0.09    0.55
  15  -5  -8    0.91    0.61
  15  -5  -7    7.07    0.98
  15  -5  -6   -0.33    0.54
  15  -5  -5   30.57    1.87
  15  -5  -5   29.97    1.77
  15   5  -4    4.56    0.86
  15  -5  -4    4.86    0.84
  15   5  -4    6.25    0.96
  15  -5  -4    4.40    0.83
  15   5  -3   -0.36    0.61
  15  -5  -3   -0.39    0.55
  15  -5  -3    0.48    0.58
  15   5  -3   -0.40    0.61
  15   5  -2    0.58    0.57
  15  -5  -2    1.19    0.62
  15  -5  -2    1.00    0.66
  15   5  -2    0.73    0.59
  15   5  -1   19.07    1.51
  15  -5  -1   15.72    1.31
  15   5  -1   18.30    1.46
  15  -5  -1   18.74    1.46
  15  -5   0    1.23    0.62
  15   5   0    0.24    0.57
  15   5   0    1.16    0.66
  15  -5   0   -0.19    0.59
  15  -5   1    5.24    0.86
  15   5   1    5.01    0.91
  15   5   1    3.71    0.78
  15  -5   2   -0.40    0.55
  15   5   2   -0.19    0.57
  15  -5   3    0.53    0.58
  15  -6  -8    3.53    0.78
  15  -6  -7    0.92    0.56
  15  -6  -6   16.95    1.39
  15  -6  -5   -0.09    0.54
  15  -6  -4   15.86    1.30
  15   6  -4   20.02    1.52
  15  -6  -4   17.85    1.45
  15   6  -3    0.10    0.60
  15  -6  -3   -0.74    0.57
  15  -6  -3   -0.33    0.61
  15   6  -3   -1.67    0.64
  15   6  -2   -1.05    0.67
  15  -6  -2   -0.55    0.59
  15  -6  -2   -0.79    0.67
  15   6  -2   -1.17    0.61
  15   6  -1    0.74    0.65
  15  -6  -1    0.42    0.54
  15   6  -1   -0.22    0.56
  15  -6  -1    1.43    0.67
  15   6   0   19.22    1.56
  15  -6   0   17.25    1.36
  15   6   0   18.31    1.44
  15  -6   0   19.34    1.51
  15  -6   1    6.03    0.91
  15   6   1    5.24    0.89
  15  -6   2    3.95    0.79
  15   6   2    4.86    0.84
  15  -7  -8    0.50    0.53
  15  -7  -7    5.28    0.88
  15  -7  -6    1.53    0.60
  15  -7  -5   13.12    1.20
  15  -7  -4   -0.15    0.56
  15  -7  -4    1.15    0.65
  15   7  -4    0.35    0.55
  15  -7  -3   -0.23    0.55
  15  -7  -3   -0.19    0.59
  15   7  -3    0.42    0.57
  15   7  -2   -0.50    0.69
  15  -7  -2    0.02    0.57
  15  -7  -2   -0.40    0.63
  15   7  -2   -0.43    0.59
  15  -7  -1    7.05    0.93
  15   7  -1    9.97    1.17
  15   7  -1    7.14    0.97
  15  -7  -1    8.04    1.08
  15  -7   0    1.37    0.61
  15   7   0    0.69    0.60
  15  -7   1    4.42    0.80
  15   7   1    4.06    0.82
  15  -7   2    3.16    0.73
  15   7   2    3.64    0.83
  15  -8  -8    0.80    0.62
  15  -8  -7   -0.58    0.57
  15  -8  -6   12.39    1.16
  15  -8  -5    3.11    0.73
  15  -8  -4   -0.16    0.50
  15   8  -4   -0.04    0.59
  15  -8  -3    4.33    0.79
  15   8  -3    2.94    0.75
  15  -8  -2    1.29    0.60
  15   8  -2    0.16    0.57
  15  -8  -1   -0.24    0.54
  15   8  -1   -0.25    0.57
  15  -8   0   22.55    1.51
  15   8   0   27.06    1.70
  15  -8   1    1.44    0.61
  15   8   1    1.70    0.65
  15  -8   2    9.35    1.06
  15  -9  -7    1.24    0.62
  15  -9  -6    0.88    0.60
  15  -9  -5   11.96    1.11
  15  -9  -4    3.21    0.72
  15   9  -4    3.40    0.79
  15  -9  -3    6.02    0.84
  15   9  -3    6.38    0.93
  15  -9  -2    0.21    0.51
  15   9  -2   -0.21    0.55
  15  -9  -1    1.49    0.64
  15   9  -1    0.21    0.56
  15  -9   0    1.05    0.68
  15   9   0   -0.14    0.53
  15  -9   1    0.40    0.52
  15   9   1    1.03    0.63
  15  -9   2    4.06    0.81
  15 -10  -6   12.18    1.14
  15 -10  -5    0.01    0.51
  15 -10  -4    4.18    0.78
  15  10  -4    4.47    0.85
  15 -10  -3    4.99    0.84
  15  10  -3    3.23    0.78
  15 -10  -2    0.57    0.57
  15  10  -2    0.38    0.54
  15 -10  -1    2.41    0.67
  15  10  -1    2.46    0.73
  15 -10   0    5.52    0.85
  15  10   0    7.01    0.98
  15 -10   1    3.15    0.71
  15  10   1    1.41    0.65
  15 -10   2    6.54    0.92
  15  11  -4    3.82    0.83
  15 -11  -3    6.03    0.85
  15  11  -3    4.58    0.85
  15 -11  -2    2.77    0.69
  15  11  -2    2.45    0.71
  15 -11  -1    5.72    0.87
  15  11  -1    4.71    0.87
  15 -11   0    1.97    0.68
  15  11   0    1.88    0.72
  15 -11   1    1.63    0.61
  15  11   1    1.09    0.62
  15 -11   2    0.09    0.57
  15  12  -3    0.80    0.64
  15  12  -2    3.13    0.78
  16  -5  -3   -1.89    0.75
  16  -6  -3    0.57    0.64
  16  -7  -3   -0.71    0.59
  16  -8  -3    2.54    0.74
   0   0   0    0.00    0.00


TITL pvl507_autored in P2/c
REM P2/c (#13 in standard setting)
CELL 0.71073  12.865802  17.551634  13.010673  90.0000  96.5137  90.0000
ZERR    5.00   0.000394   0.000521   0.000472   0.0000   0.0031   0.0000
LATT  1
SYMM -x, y,-z+1/2
SFAC C H N O S Zn
UNIT 100.00 100.00 20.00 40.00 5.00 5.00
REM  CrysAlisPro recorded range (K): Min=150.0; max=150.0; aver:150.0
TEMP -123
TREF
HKLF 4
END
_computing_structure_solution     'SHELXT 2018/2 (Sheldrick, 2018)'
;
_shelx_hkl_checksum   19375

_shelx_fab_file
;
    0    0    2    -36.78      0.00
    0    0    4     -7.41      0.00
    0    0    6     -4.11      0.00
    0    0    8      1.67      0.00
    0    0   10      2.35      0.00
    0    0   12      0.44      0.00
    0    0   14      0.99      0.00
    0    0   16     -0.35      0.00
    0    1    1    -21.01      0.00
    0    1    2     31.35      0.00
    0    1    3      7.35      0.00
    0    1    4      8.39      0.00
    0    1    5     -2.10      0.00
    0    1    6      3.95      0.00
    0    1    7      0.42      0.00
    0    1    8     -1.90      0.00
    0    1    9      0.61      0.00
    0    1   10     -2.12      0.00
    0    1   11     -0.36      0.00
    0    1   12     -0.56      0.00
    0    1   13      0.17      0.00
    0    1   14     -0.79      0.00
    0    1   15     -0.02      0.00
    0    1   16      0.45      0.00
    0    2    0     79.65      0.00
    0    2    1     31.83      0.00
    0    2    2    -18.57      0.00
    0    2    3    -10.78      0.00
    0    2    4    -10.67      0.00
    0    2    5      3.61      0.00
    0    2    6     -3.34      0.00
    0    2    7     -1.08      0.00
    0    2    8      2.25      0.00
    0    2    9     -0.81      0.00
    0    2   10      1.68      0.00
    0    2   11      0.39      0.00
    0    2   12      0.77      0.00
    0    2   13     -0.10      0.00
    0    2   14      0.37      0.00
    0    2   15     -0.12      0.00
    0    2   16     -0.71      0.00
    0    3    0    -50.36      0.00
    0    3    1    -30.31      0.00
    0    3    2      5.78      0.00
    0    3    3      9.34      0.00
    0    3    4     12.79      0.00
    0    3    5     -4.05      0.00
    0    3    6      2.13      0.00
    0    3    7      1.76      0.00
    0    3    8     -2.20      0.00
    0    3    9      0.66      0.00
    0    3   10     -1.37      0.00
    0    3   11     -0.14      0.00
    0    3   12     -0.82      0.00
    0    3   13     -0.12      0.00
    0    3   14     -0.04      0.00
    0    3   15      0.33      0.00
    0    4    0     28.48      0.00
    0    4    1     21.97      0.00
    0    4    2      1.86      0.00
    0    4    3     -5.01      0.00
    0    4    4    -13.48      0.00
    0    4    5      3.36      0.00
    0    4    6     -0.56      0.00
    0    4    7     -1.99      0.00
    0    4    8      1.63      0.00
    0    4    9     -0.49      0.00
    0    4   10      1.28      0.00
    0    4   11     -0.17      0.00
    0    4   12      0.76      0.00
    0    4   13      0.26      0.00
    0    4   14     -0.06      0.00
    0    4   15     -0.41      0.00
    0    5    0    -16.14      0.00
    0    5    1    -13.74      0.00
    0    5    2     -3.84      0.00
    0    5    3      0.62      0.00
    0    5    4     12.41      0.00
    0    5    5     -1.99      0.00
    0    5    6     -0.83      0.00
    0    5    7      1.55      0.00
    0    5    8     -0.82      0.00
    0    5    9      0.50      0.00
    0    5   10     -1.27      0.00
    0    5   11      0.46      0.00
    0    5   12     -0.68      0.00
    0    5   13     -0.22      0.00
    0    5   14     -0.02      0.00
    0    5   15      0.16      0.00
    0    6    0     10.21      0.00
    0    6    1      9.15      0.00
    0    6    2      2.69      0.00
    0    6    3      1.99      0.00
    0    6    4    -10.12      0.00
    0    6    5      0.63      0.00
    0    6    6      1.61      0.00
    0    6    7     -0.65      0.00
    0    6    8      0.22      0.00
    0    6    9     -0.68      0.00
    0    6   10      1.29      0.00
    0    6   11     -0.66      0.00
    0    6   12      0.58      0.00
    0    6   13      0.00      0.00
    0    6   14      0.18      0.00
    0    6   15      0.44      0.00
    0    7    0     -6.77      0.00
    0    7    1     -7.80      0.00
    0    7    2     -1.28      0.00
    0    7    3     -2.59      0.00
    0    7    4      7.63      0.00
    0    7    5      0.27      0.00
    0    7    6     -1.62      0.00
    0    7    7     -0.26      0.00
    0    7    8     -0.12      0.00
    0    7    9      0.95      0.00
    0    7   10     -1.26      0.00
    0    7   11      0.62      0.00
    0    7   12     -0.42      0.00
    0    7   13      0.38      0.00
    0    7   14     -0.28      0.00
    0    7   15     -1.24      0.00
    0    8    0      3.73      0.00
    0    8    1      7.40      0.00
    0    8    2      1.02      0.00
    0    8    3      2.22      0.00
    0    8    4     -5.62      0.00
    0    8    5     -0.65      0.00
    0    8    6      1.08      0.00
    0    8    7      0.68      0.00
    0    8    8      0.48      0.00
    0    8    9     -1.16      0.00
    0    8   10      1.03      0.00
    0    8   11     -0.29      0.00
    0    8   12      0.35      0.00
    0    8   13     -0.82      0.00
    0    8   14      0.10      0.00
    0    9    0     -1.23      0.00
    0    9    1     -6.16      0.00
    0    9    2     -1.49      0.00
    0    9    3     -1.94      0.00
    0    9    4      4.19      0.00
    0    9    5      0.67      0.00
    0    9    6     -0.46      0.00
    0    9    7     -0.50      0.00
    0    9    8     -0.93      0.00
    0    9    9      1.21      0.00
    0    9   10     -0.53      0.00
    0    9   11     -0.10      0.00
    0    9   12     -0.48      0.00
    0    9   13      1.01      0.00
    0    9   14      0.39      0.00
    0   10    0      0.11      0.00
    0   10    1      4.20      0.00
    0   10    2      1.69      0.00
    0   10    3      1.99      0.00
    0   10    4     -3.12      0.00
    0   10    5     -0.60      0.00
    0   10    6      0.15      0.00
    0   10    7      0.13      0.00
    0   10    8      1.18      0.00
    0   10    9     -1.12      0.00
    0   10   10     -0.14      0.00
    0   10   11      0.22      0.00
    0   10   12      0.65      0.00
    0   10   13     -0.74      0.00
    0   10   14     -0.98      0.00
    0   11    0     -0.14      0.00
    0   11    1     -2.66      0.00
    0   11    2     -1.38      0.00
    0   11    3     -2.08      0.00
    0   11    4      2.32      0.00
    0   11    5      0.71      0.00
    0   11    6     -0.08      0.00
    0   11    7      0.06      0.00
    0   11    8     -1.29      0.00
    0   11    9      0.82      0.00
    0   11   10      0.70      0.00
    0   11   11      0.04      0.00
    0   11   12     -0.61      0.00
    0   11   13      0.16      0.00
    0   12    0      0.26      0.00
    0   12    1      1.94      0.00
    0   12    2      1.04      0.00
    0   12    3      2.13      0.00
    0   12    4     -1.74      0.00
    0   12    5     -0.99      0.00
    0   12    6     -0.03      0.00
    0   12    7     -0.16      0.00
    0   12    8      1.32      0.00
    0   12    9     -0.24      0.00
    0   12   10     -0.79      0.00
    0   12   11     -0.51      0.00
    0   12   12      0.29      0.00
    0   12   13      0.36      0.00
    0   13    0     -0.01      0.00
    0   13    1     -1.56      0.00
    0   13    2     -0.82      0.00
    0   13    3     -2.23      0.00
    0   13    4      1.29      0.00
    0   13    5      1.23      0.00
    0   13    6      0.17      0.00
    0   13    7      0.43      0.00
    0   13    8     -1.07      0.00
    0   13    9     -0.35      0.00
    0   13   10      0.25      0.00
    0   13   11      0.82      0.00
    0   13   12      0.18      0.00
    0   14    0     -0.27      0.00
    0   14    1      1.17      0.00
    0   14    2      0.46      0.00
    0   14    3      2.30      0.00
    0   14    4     -0.87      0.00
    0   14    5     -1.34      0.00
    0   14    6     -0.11      0.00
    0   14    7     -0.72      0.00
    0   14    8      0.55      0.00
    0   14    9      0.50      0.00
    0   14   10      0.52      0.00
    0   14   11     -0.67      0.00
    0   14   12     -0.57      0.00
    0   15    0      0.31      0.00
    0   15    1     -0.89      0.00
    0   15    2      0.12      0.00
    0   15    3     -2.04      0.00
    0   15    4      0.43      0.00
    0   15    5      1.42      0.00
    0   15    6     -0.10      0.00
    0   15    7      0.73      0.00
    0   15    8     -0.22      0.00
    0   15    9     -0.15      0.00
    0   15   10     -0.88      0.00
    0   15   11      0.18      0.00
    0   16    0     -0.19      0.00
    0   16    1      0.83      0.00
    0   16    2     -0.68      0.00
    0   16    3      1.32      0.00
    0   16    4      0.05      0.00
    0   16    5     -1.46      0.00
    0   16    6      0.16      0.00
    0   16    7     -0.55      0.00
    0   16    8      0.40      0.00
    0   16    9     -0.17      0.00
    0   16   10      0.61      0.00
    0   17    0      0.11      0.00
    0   17    1     -0.93      0.00
    0   17    2      0.96      0.00
    0   17    3     -0.23      0.00
    0   17    4     -0.43      0.00
    0   17    5      1.28      0.00
    0   17    6     -0.05      0.00
    0   17    7      0.45      0.00
    0   17    8     -0.81      0.00
    0   17    9      0.08      0.00
    0   18    0     -0.16      0.00
    0   18    1      1.05      0.00
    0   18    2     -0.79      0.00
    0   18    3     -0.88      0.00
    0   18    4      0.47      0.00
    0   18    5     -0.89      0.00
    0   18    6      0.01      0.00
    0   18    7     -0.43      0.00
    0   18    8      1.02      0.00
    0   19    0      0.36      0.00
    0   19    1     -0.97      0.00
    0   19    2      0.29      0.00
    0   19    3      1.52      0.00
    0   19    4     -0.17      0.00
    0   19    5      0.56      0.00
    0   19    6     -0.12      0.00
    0   19    7      0.34      0.00
    0   20    0     -0.52      0.00
    0   20    1      0.59      0.00
    0   20    2      0.19      0.00
    0   20    3     -1.53      0.00
    0   20    4     -0.14      0.00
    0   20    5     -0.44      0.00
    0   21    0      0.39      0.00
    0   21    1     -0.09      0.00
    0   21    2     -0.36      0.00
    0   21    3      1.18      0.00
   -1    0   16     -1.48      0.00
   -1    0   14     -1.37      0.00
   -1    0   12     -1.11      0.00
   -1    0   10     -0.94      0.00
   -1    0    8      0.58      0.00
   -1    0    6     11.81      0.00
   -1    0    4      0.39      0.00
   -1    0    2     -9.07      0.00
    1    0    2     39.34      0.00
    1    0    4      3.72      0.00
    1    0    6     -5.40      0.00
    1    0    8     -1.41      0.00
    1    0   10     -0.60      0.00
    1    0   12      1.20      0.00
    1    0   14     -0.16      0.00
    1    0   16     -0.33      0.00
   -1    1   16      1.37      0.00
   -1    1   15      0.05      0.00
   -1    1   14      1.30      0.00
   -1    1   13     -0.40      0.00
   -1    1   12      1.16      0.00
   -1    1   11      0.42      0.00
   -1    1   10      0.83      0.00
   -1    1    9     -0.10      0.00
   -1    1    8     -0.61      0.00
   -1    1    7     -0.44      0.00
   -1    1    6    -11.10      0.00
   -1    1    5      2.73      0.00
   -1    1    4     -1.95      0.00
   -1    1    3     -6.99      0.00
   -1    1    2     12.85      0.00
   -1    1    1     14.82      0.00
    1    1    0     56.26      0.00
    1    1    1     11.28      0.00
    1    1    2    -36.43      0.00
    1    1    3     -1.84      0.00
    1    1    4     -3.47      0.00
    1    1    5     -1.35      0.00
    1    1    6      4.82      0.00
    1    1    7      0.78      0.00
    1    1    8      1.72      0.00
    1    1    9     -0.39      0.00
    1    1   10      0.41      0.00
    1    1   11      0.47      0.00
    1    1   12     -1.05      0.00
    1    1   13     -0.05      0.00
    1    1   14     -0.04      0.00
    1    1   15     -0.01      0.00
    1    1   16      0.33      0.00
   -1    2   16     -1.02      0.00
   -1    2   15      0.00      0.00
   -1    2   14     -1.18      0.00
   -1    2   13      0.71      0.00
   -1    2   12     -1.24      0.00
   -1    2   11     -0.56      0.00
   -1    2   10     -0.63      0.00
   -1    2    9     -0.05      0.00
   -1    2    8      0.76      0.00
   -1    2    7      0.71      0.00
   -1    2    6      9.28      0.00
   -1    2    5     -4.06      0.00
   -1    2    4      5.34      0.00
   -1    2    3      9.08      0.00
   -1    2    2    -20.73      0.00
   -1    2    1    -20.86      0.00
    1    2    0    -39.49      0.00
    1    2    1    -16.96      0.00
    1    2    2     29.22      0.00
    1    2    3      3.19      0.00
    1    2    4      3.10      0.00
    1    2    5      1.64      0.00
    1    2    6     -3.65      0.00
    1    2    7     -0.74      0.00
    1    2    8     -2.28      0.00
    1    2    9      0.43      0.00
    1    2   10     -0.08      0.00
    1    2   11     -0.68      0.00
    1    2   12      0.78      0.00
    1    2   13     -0.10      0.00
    1    2   14      0.52      0.00
    1    2   15      0.08      0.00
    1    2   16     -0.35      0.00
   -1    3   15     -0.03      0.00
   -1    3   14      1.13      0.00
   -1    3   13     -0.99      0.00
   -1    3   12      1.32      0.00
   -1    3   11      0.40      0.00
   -1    3   10      0.50      0.00
   -1    3    9      0.43      0.00
   -1    3    8     -1.03      0.00
   -1    3    7     -0.67      0.00
   -1    3    6     -7.14      0.00
   -1    3    5      3.61      0.00
   -1    3    4     -7.94      0.00
   -1    3    3     -5.57      0.00
   -1    3    2     25.87      0.00
   -1    3    1     16.76      0.00
    1    3    0     22.21      0.00
    1    3    1     16.04      0.00
    1    3    2    -20.89      0.00
    1    3    3     -3.77      0.00
    1    3    4     -3.25      0.00
    1    3    5     -0.91      0.00
    1    3    6      2.99      0.00
    1    3    7     -0.04      0.00
    1    3    8      2.39      0.00
    1    3    9     -0.28      0.00
    1    3   10     -0.04      0.00
    1    3   11      0.67      0.00
    1    3   12     -0.67      0.00
    1    3   13      0.42      0.00
    1    3   14     -0.95      0.00
    1    3   15     -0.20      0.00
    1    3   16      0.41      0.00
   -1    4   15     -0.07      0.00
   -1    4   14     -1.06      0.00
   -1    4   13      1.30      0.00
   -1    4   12     -1.48      0.00
   -1    4   11      0.00      0.00
   -1    4   10     -0.44      0.00
   -1    4    9     -0.89      0.00
   -1    4    8      1.24      0.00
   -1    4    7      0.37      0.00
   -1    4    6      5.46      0.00
   -1    4    5     -2.16      0.00
   -1    4    4      8.13      0.00
   -1    4    3     -0.34      0.00
   -1    4    2    -24.56      0.00
   -1    4    1     -8.00      0.00
    1    4    0    -10.77      0.00
    1    4    1    -11.79      0.00
    1    4    2     13.93      0.00
    1    4    3      3.47      0.00
    1    4    4      4.01      0.00
    1    4    5      0.16      0.00
    1    4    6     -3.31      0.00
    1    4    7      0.76      0.00
    1    4    8     -1.86      0.00
    1    4    9      0.27      0.00
    1    4   10     -0.05      0.00
    1    4   11     -0.64      0.00
    1    4   12      0.81      0.00
    1    4   13     -0.76      0.00
    1    4   14      1.00      0.00
    1    4   15      0.32      0.00
   -1    5   15      0.26      0.00
   -1    5   14      0.86      0.00
   -1    5   13     -1.45      0.00
   -1    5   12      1.75      0.00
   -1    5   11     -0.55      0.00
   -1    5   10      0.47      0.00
   -1    5    9      1.32      0.00
   -1    5    8     -1.28      0.00
   -1    5    7     -0.11      0.00
   -1    5    6     -4.55      0.00
   -1    5    5      0.95      0.00
   -1    5    4     -6.14      0.00
   -1    5    3      4.86      0.00
   -1    5    2     18.20      0.00
   -1    5    1      0.82      0.00
    1    5    0      5.73      0.00
    1    5    1      7.92      0.00
    1    5    2     -9.21      0.00
    1    5    3     -2.46      0.00
    1    5    4     -4.73      0.00
    1    5    5     -0.31      0.00
    1    5    6      4.11      0.00
    1    5    7     -0.72      0.00
    1    5    8      1.02      0.00
    1    5    9     -0.50      0.00
    1    5   10      0.19      0.00
    1    5   11      0.62      0.00
    1    5   12     -1.10      0.00
    1    5   13      0.93      0.00
    1    5   14     -0.57      0.00
    1    5   15     -0.25      0.00
   -1    6   15     -0.38      0.00
   -1    6   14     -0.60      0.00
   -1    6   13      1.31      0.00
   -1    6   12     -1.88      0.00
   -1    6   11      1.07      0.00
   -1    6   10     -0.66      0.00
   -1    6    9     -1.56      0.00
   -1    6    8      1.21      0.00
   -1    6    7      0.04      0.00
   -1    6    6      4.06      0.00
   -1    6    5     -0.74      0.00
   -1    6    4      3.46      0.00
   -1    6    3     -6.17      0.00
   -1    6    2    -10.72      0.00
   -1    6    1      2.07      0.00
    1    6    0     -4.32      0.00
    1    6    1     -6.17      0.00
    1    6    2      6.37      0.00
    1    6    3      1.26      0.00
    1    6    4      4.68      0.00
    1    6    5      1.42      0.00
    1    6    6     -4.45      0.00
    1    6    7     -0.08      0.00
    1    6    8     -0.36      0.00
    1    6    9      0.80      0.00
    1    6   10     -0.30      0.00
    1    6   11     -0.63      0.00
    1    6   12      1.44      0.00
    1    6   13     -0.79      0.00
    1    6   14     -0.16      0.00
    1    6   15     -0.11      0.00
   -1    7   15      0.36      0.00
   -1    7   14      0.43      0.00
   -1    7   13     -0.97      0.00
   -1    7   12      1.72      0.00
   -1    7   11     -1.24      0.00
   -1    7   10      0.94      0.00
   -1    7    9      1.46      0.00
   -1    7    8     -1.04      0.00
   -1    7    7     -0.07      0.00
   -1    7    6     -3.55      0.00
   -1    7    5      1.38      0.00
   -1    7    4     -1.60      0.00
   -1    7    3      4.77      0.00
   -1    7    2      5.39      0.00
   -1    7    1     -1.60      0.00
    1    7    0      3.62      0.00
    1    7    1      6.13      0.00
    1    7    2     -4.56      0.00
    1    7    3     -0.38      0.00
    1    7    4     -3.71      0.00
    1    7    5     -2.78      0.00
    1    7    6      3.82      0.00
    1    7    7      1.07      0.00
    1    7    8      0.14      0.00
    1    7    9     -1.06      0.00
    1    7   10      0.33      0.00
    1    7   11      0.77      0.00
    1    7   12     -1.62      0.00
    1    7   13      0.30      0.00
    1    7   14      0.78      0.00
    1    7   15      0.70      0.00
   -1    8   14     -0.37      0.00
   -1    8   13      0.67      0.00
   -1    8   12     -1.37      0.00
   -1    8   11      0.96      0.00
   -1    8   10     -1.07      0.00
   -1    8    9     -1.15      0.00
   -1    8    8      0.74      0.00
   -1    8    7      0.16      0.00
   -1    8    6      2.87      0.00
   -1    8    5     -2.14      0.00
   -1    8    4      1.15      0.00
   -1    8    3     -2.58      0.00
   -1    8    2     -3.17      0.00
   -1    8    1      0.33      0.00
    1    8    0     -2.39      0.00
    1    8    1     -6.37      0.00
    1    8    2      3.08      0.00
    1    8    3     -0.04      0.00
    1    8    4      2.25      0.00
    1    8    5      3.60      0.00
    1    8    6     -2.47      0.00
    1    8    7     -1.57      0.00
    1    8    8     -0.28      0.00
    1    8    9      1.22      0.00
    1    8   10     -0.12      0.00
    1    8   11     -1.01      0.00
    1    8   12      1.37      0.00
    1    8   13      0.30      0.00
    1    8   14     -0.89      0.00
    1    8   15     -1.29      0.00
   -1    9   14      0.32      0.00
   -1    9   13     -0.45      0.00
   -1    9   12      1.07      0.00
   -1    9   11     -0.44      0.00
   -1    9   10      0.97      0.00
   -1    9    9      0.83      0.00
   -1    9    8     -0.51      0.00
   -1    9    7     -0.35      0.00
   -1    9    6     -2.10      0.00
   -1    9    5      2.42      0.00
   -1    9    4     -1.53      0.00
   -1    9    3      1.24      0.00
   -1    9    2      2.80      0.00
   -1    9    1     -0.13      0.00
    1    9    0      1.10      0.00
    1    9    1      5.87      0.00
    1    9    2     -1.88      0.00
    1    9    3      0.12      0.00
    1    9    4     -0.87      0.00
    1    9    5     -3.58      0.00
    1    9    6      1.12      0.00
    1    9    7      1.43      0.00
    1    9    8      0.56      0.00
    1    9    9     -1.23      0.00
    1    9   10     -0.42      0.00
    1    9   11      1.12      0.00
    1    9   12     -0.74      0.00
    1    9   13     -0.61      0.00
    1    9   14      0.41      0.00
   -1   10   14     -0.26      0.00
   -1   10   13      0.25      0.00
   -1   10   12     -0.87      0.00
   -1   10   11      0.01      0.00
   -1   10   10     -0.68      0.00
   -1   10    9     -0.56      0.00
   -1   10    8      0.55      0.00
   -1   10    7      0.53      0.00
   -1   10    6      1.30      0.00
   -1   10    5     -2.17      0.00
   -1   10    4      1.86      0.00
   -1   10    3     -1.02      0.00
   -1   10    2     -2.53      0.00
   -1   10    1      0.92      0.00
    1   10    0     -0.59      0.00
    1   10    1     -4.79      0.00
    1   10    2      1.13      0.00
    1   10    3      0.04      0.00
    1   10    4     -0.06      0.00
    1   10    5      3.00      0.00
    1   10    6     -0.26      0.00
    1   10    7     -0.98      0.00
    1   10    8     -0.87      0.00
    1   10    9      1.02      0.00
    1   10   10      1.10      0.00
    1   10   11     -0.89      0.00
    1   10   12      0.17      0.00
    1   10   13      0.43      0.00
    1   10   14      0.31      0.00
   -1   11   13     -0.11      0.00
   -1   11   12      0.75      0.00
   -1   11   11      0.12      0.00
   -1   11   10      0.27      0.00
   -1   11    9      0.32      0.00
   -1   11    8     -0.69      0.00
   -1   11    7     -0.50      0.00
   -1   11    6     -0.61      0.00
   -1   11    5      1.59      0.00
   -1   11    4     -1.85      0.00
   -1   11    3      1.28      0.00
   -1   11    2      1.79      0.00
   -1   11    1     -1.57      0.00
    1   11    0      0.70      0.00
    1   11    1      3.88      0.00
    1   11    2     -0.62      0.00
    1   11    3     -0.38      0.00
    1   11    4      0.51      0.00
    1   11    5     -2.34      0.00
    1   11    6     -0.22      0.00
    1   11    7      0.54      0.00
    1   11    8      1.19      0.00
    1   11    9     -0.50      0.00
    1   11   10     -1.58      0.00
    1   11   11      0.46      0.00
    1   11   12     -0.03      0.00
    1   11   13     -0.01      0.00
   -1   12   13      0.10      0.00
   -1   12   12     -0.67      0.00
   -1   12   11      0.08      0.00
   -1   12   10      0.05      0.00
   -1   12    9     -0.30      0.00
   -1   12    8      0.69      0.00
   -1   12    7      0.44      0.00
   -1   12    6      0.24      0.00
   -1   12    5     -0.90      0.00
   -1   12    4      1.68      0.00
   -1   12    3     -1.61      0.00
   -1   12    2     -1.07      0.00
   -1   12    1      1.62      0.00
    1   12    0     -0.64      0.00
    1   12    1     -3.28      0.00
    1   12    2      0.05      0.00
    1   12    3      0.68      0.00
    1   12    4     -0.64      0.00
    1   12    5      1.77      0.00
    1   12    6      0.60      0.00
    1   12    7     -0.09      0.00
    1   12    8     -1.33      0.00
    1   12    9     -0.28      0.00
    1   12   10      1.56      0.00
    1   12   11     -0.09      0.00
    1   12   12      0.29      0.00
    1   12   13     -0.24      0.00
   -1   13   12      0.62      0.00
   -1   13   11     -0.37      0.00
   -1   13   10      0.01      0.00
   -1   13    9      0.50      0.00
   -1   13    8     -0.74      0.00
   -1   13    7     -0.63      0.00
   -1   13    6     -0.14      0.00
   -1   13    5      0.29      0.00
   -1   13    4     -1.39      0.00
   -1   13    3      2.02      0.00
   -1   13    2      0.63      0.00
   -1   13    1     -1.47      0.00
    1   13    0      0.22      0.00
    1   13    1      2.62      0.00
    1   13    2      0.52      0.00
    1   13    3     -0.73      0.00
    1   13    4      0.60      0.00
    1   13    5     -1.24      0.00
    1   13    6     -0.83      0.00
    1   13    7     -0.35      0.00
    1   13    8      1.04      0.00
    1   13    9      0.90      0.00
    1   13   10     -1.03      0.00
    1   13   11     -0.01      0.00
    1   13   12     -0.64      0.00
   -1   14   12     -0.64      0.00
   -1   14   11      0.45      0.00
   -1   14   10     -0.42      0.00
   -1   14    9     -0.51      0.00
   -1   14    8      1.10      0.00
   -1   14    7      0.94      0.00
   -1   14    6      0.04      0.00
   -1   14    5      0.10      0.00
   -1   14    4      0.92      0.00
   -1   14    3     -2.32      0.00
   -1   14    2     -0.21      0.00
   -1   14    1      1.35      0.00
    1   14    0      0.13      0.00
    1   14    1     -1.80      0.00
    1   14    2     -0.79      0.00
    1   14    3      0.56      0.00
    1   14    4     -0.46      0.00
    1   14    5      0.84      0.00
    1   14    6      0.74      0.00
    1   14    7      0.52      0.00
    1   14    8     -0.46      0.00
    1   14    9     -0.92      0.00
    1   14   10      0.39      0.00
    1   14   11     -0.16      0.00
    1   14   12      0.84      0.00
   -1   15   11     -0.30      0.00
   -1   15   10      0.78      0.00
   -1   15    9      0.07      0.00
   -1   15    8     -1.48      0.00
   -1   15    7     -0.93      0.00
   -1   15    6      0.10      0.00
   -1   15    5     -0.31      0.00
   -1   15    4     -0.38      0.00
   -1   15    3      2.15      0.00
   -1   15    2     -0.31      0.00
   -1   15    1     -1.11      0.00
    1   15    0     -0.14      0.00
    1   15    1      1.12      0.00
    1   15    2      0.63      0.00
    1   15    3     -0.33      0.00
    1   15    4      0.34      0.00
    1   15    5     -0.70      0.00
    1   15    6     -0.44      0.00
    1   15    7     -0.31      0.00
    1   15    8      0.13      0.00
    1   15    9      0.47      0.00
    1   15   10     -0.16      0.00
    1   15   11      0.45      0.00
   -1   16   10     -0.80      0.00
   -1   16    9      0.54      0.00
   -1   16    8      1.40      0.00
   -1   16    7      0.57      0.00
   -1   16    6     -0.05      0.00
   -1   16    5      0.41      0.00
   -1   16    4     -0.03      0.00
   -1   16    3     -1.49      0.00
   -1   16    2      0.70      0.00
   -1   16    1      0.70      0.00
    1   16    0     -0.05      0.00
    1   16    1     -0.76      0.00
    1   16    2     -0.26      0.00
    1   16    3      0.29      0.00
    1   16    4     -0.36      0.00
    1   16    5      0.74      0.00
    1   16    6      0.14      0.00
    1   16    7      0.03      0.00
    1   16    8     -0.24      0.00
    1   16    9     -0.14      0.00
    1   16   10      0.44      0.00
   -1   17    9     -0.86      0.00
   -1   17    8     -0.84      0.00
   -1   17    7     -0.30      0.00
   -1   17    6     -0.25      0.00
   -1   17    5     -0.37      0.00
   -1   17    4      0.21      0.00
   -1   17    3      0.71      0.00
   -1   17    2     -0.84      0.00
   -1   17    1     -0.33      0.00
    1   17    0      0.21      0.00
    1   17    1      0.68      0.00
    1   17    2      0.03      0.00
    1   17    3     -0.59      0.00
    1   17    4      0.45      0.00
    1   17    5     -0.70      0.00
    1   17    6      0.15      0.00
    1   17    7      0.11      0.00
    1   17    8      0.42      0.00
    1   17    9      0.26      0.00
   -1   18    8      0.20      0.00
   -1   18    7      0.36      0.00
   -1   18    6      0.52      0.00
   -1   18    5      0.21      0.00
   -1   18    4     -0.16      0.00
   -1   18    3     -0.15      0.00
   -1   18    2      0.79      0.00
   -1   18    1      0.15      0.00
    1   18    0     -0.20      0.00
    1   18    1     -0.66      0.00
    1   18    2     -0.21      0.00
    1   18    3      1.01      0.00
    1   18    4     -0.39      0.00
    1   18    5      0.56      0.00
    1   18    6     -0.41      0.00
    1   18    7     -0.22      0.00
    1   18    8     -0.37      0.00
   -1   19    7     -0.58      0.00
   -1   19    6     -0.52      0.00
   -1   19    5     -0.09      0.00
   -1   19    4      0.00      0.00
   -1   19    3      0.00      0.00
   -1   19    2     -0.68      0.00
   -1   19    1     -0.19      0.00
    1   19    0      0.03      0.00
    1   19    1      0.41      0.00
    1   19    2      0.69      0.00
    1   19    3     -1.13      0.00
    1   19    4      0.22      0.00
    1   19    5     -0.40      0.00
    1   19    6      0.48      0.00
    1   19    7      0.42      0.00
   -1   20    5      0.09      0.00
   -1   20    4      0.07      0.00
   -1   20    3     -0.15      0.00
   -1   20    2      0.60      0.00
   -1   20    1      0.34      0.00
    1   20    0      0.08      0.00
    1   20    1      0.12      0.00
    1   20    2     -1.00      0.00
    1   20    3      0.84      0.00
    1   20    4     -0.15      0.00
    1   20    5      0.22      0.00
   -1   21    3      0.33      0.00
   -1   21    2     -0.57      0.00
   -1   21    1     -0.39      0.00
    1   21    0      0.01      0.00
    1   21    1     -0.61      0.00
    1   21    2      0.85      0.00
    1   21    3     -0.44      0.00
   -2    0   14     -0.73      0.00
   -2    0   12     -0.08      0.00
   -2    0   10     -1.22      0.00
   -2    0    8     -0.53      0.00
   -2    0    6     -5.75      0.00
   -2    0    4      6.78      0.00
   -2    0    2     30.28      0.00
    2    0    0    -18.19      0.00
    2    0    2      3.24      0.00
    2    0    4     -0.57      0.00
    2    0    6      3.63      0.00
    2    0    8     -1.52      0.00
    2    0   10     -1.06      0.00
    2    0   12      0.12      0.00
    2    0   14     -0.55      0.00
    2    0   16      0.83      0.00
   -2    1   15     -0.04      0.00
   -2    1   14      0.69      0.00
   -2    1   13      0.26      0.00
   -2    1   12      0.06      0.00
   -2    1   11     -0.52      0.00
   -2    1   10      1.22      0.00
   -2    1    9     -0.62      0.00
   -2    1    8      0.74      0.00
   -2    1    7      0.32      0.00
   -2    1    6      5.21      0.00
   -2    1    5      0.03      0.00
   -2    1    4     -5.46      0.00
   -2    1    3      1.96      0.00
   -2    1    2    -31.43      0.00
   -2    1    1     -2.78      0.00
    2    1    0     18.67      0.00
    2    1    1      3.96      0.00
    2    1    2     -1.81      0.00
    2    1    3     -4.42      0.00
    2    1    4     -0.86      0.00
    2    1    5      2.78      0.00
    2    1    6     -2.77      0.00
    2    1    7     -1.60      0.00
    2    1    8      1.27      0.00
    2    1    9      0.10      0.00
    2    1   10      1.06      0.00
    2    1   11     -0.29      0.00
    2    1   12     -0.04      0.00
    2    1   13     -0.03      0.00
    2    1   14      0.48      0.00
    2    1   15      0.22      0.00
    2    1   16     -0.80      0.00
   -2    2   15      0.06      0.00
   -2    2   14     -0.50      0.00
   -2    2   13     -0.50      0.00
   -2    2   12     -0.05      0.00
   -2    2   11      0.87      0.00
   -2    2   10     -1.15      0.00
   -2    2    9      1.10      0.00
   -2    2    8     -1.25      0.00
   -2    2    7     -0.24      0.00
   -2    2    6     -4.05      0.00
   -2    2    5     -1.00      0.00
   -2    2    4      2.79      0.00
   -2    2    3     -0.78      0.00
   -2    2    2     32.80      0.00
   -2    2    1      1.91      0.00
    2    2    0    -18.95      0.00
    2    2    1     -7.22      0.00
    2    2    2     -1.59      0.00
    2    2    3      6.41      0.00
    2    2    4      4.01      0.00
    2    2    5     -3.71      0.00
    2    2    6      0.92      0.00
    2    2    7      2.24      0.00
    2    2    8     -0.80      0.00
    2    2    9     -0.01      0.00
    2    2   10     -0.99      0.00
    2    2   11      0.48      0.00
    2    2   12     -0.17      0.00
    2    2   13     -0.03      0.00
    2    2   14     -0.37      0.00
    2    2   15     -0.26      0.00
    2    2   16      0.80      0.00
   -2    3   15     -0.12      0.00
   -2    3   14      0.18      0.00
   -2    3   13      0.79      0.00
   -2    3   12      0.07      0.00
   -2    3   11     -1.00      0.00
   -2    3   10      1.00      0.00
   -2    3    9     -1.31      0.00
   -2    3    8      1.70      0.00
   -2    3    7     -0.34      0.00
   -2    3    6      3.22      0.00
   -2    3    5      2.79      0.00
   -2    3    4     -1.20      0.00
   -2    3    3     -3.36      0.00
   -2    3    2    -30.68      0.00
   -2    3    1      2.44      0.00
    2    3    0     17.17      0.00
    2    3    1      8.93      0.00
    2    3    2      4.93      0.00
    2    3    3     -5.37      0.00
    2    3    4     -6.51      0.00
    2    3    5      2.52      0.00
    2    3    6      0.50      0.00
    2    3    7     -1.87      0.00
    2    3    8      0.55      0.00
    2    3    9     -0.13      0.00
    2    3   10      0.77      0.00
    2    3   11     -0.60      0.00
    2    3   12      0.43      0.00
    2    3   13      0.10      0.00
    2    3   14      0.29      0.00
    2    3   15      0.17      0.00
    2    3   16     -0.89      0.00
   -2    4   15      0.28      0.00
   -2    4   14      0.12      0.00
   -2    4   13     -1.05      0.00
   -2    4   12     -0.05      0.00
   -2    4   11      0.89      0.00
   -2    4   10     -0.87      0.00
   -2    4    9      1.34      0.00
   -2    4    8     -1.67      0.00
   -2    4    7      0.99      0.00
   -2    4    6     -3.39      0.00
   -2    4    5     -4.29      0.00
   -2    4    4      1.86      0.00
   -2    4    3      7.60      0.00
   -2    4    2     24.05      0.00
   -2    4    1     -7.13      0.00
    2    4    0    -13.12      0.00
    2    4    1     -8.76      0.00
    2    4    2     -6.53      0.00
    2    4    3      2.79      0.00
    2    4    4      6.81      0.00
    2    4    5     -0.58      0.00
    2    4    6     -0.63      0.00
    2    4    7      1.17      0.00
    2    4    8     -0.56      0.00
    2    4    9      0.13      0.00
    2    4   10     -0.57      0.00
    2    4   11      0.68      0.00
    2    4   12     -0.60      0.00
    2    4   13     -0.05      0.00
    2    4   14     -0.17      0.00
    2    4   15     -0.10      0.00
   -2    5   15     -0.36      0.00
   -2    5   14     -0.25      0.00
   -2    5   13      1.04      0.00
   -2    5   12      0.04      0.00
   -2    5   11     -0.49      0.00
   -2    5   10      0.70      0.00
   -2    5    9     -1.50      0.00
   -2    5    8      1.22      0.00
   -2    5    7     -1.07      0.00
   -2    5    6      4.38      0.00
   -2    5    5      4.46      0.00
   -2    5    4     -4.09      0.00
   -2    5    3     -9.41      0.00
   -2    5    2    -15.17      0.00
   -2    5    1      9.53      0.00
    2    5    0      8.21      0.00
    2    5    1      7.27      0.00
    2    5    2      6.20      0.00
    2    5    3     -0.66      0.00
    2    5    4     -5.25      0.00
    2    5    5     -0.49      0.00
    2    5    6     -0.16      0.00
    2    5    7     -0.82      0.00
    2    5    8      0.63      0.00
    2    5    9     -0.06      0.00
    2    5   10      0.48      0.00
    2    5   11     -0.66      0.00
    2    5   12      0.74      0.00
    2    5   13     -0.13      0.00
    2    5   14     -0.14      0.00
    2    5   15      0.10      0.00
   -2    6   15      0.16      0.00
   -2    6   14      0.31      0.00
   -2    6   13     -0.65      0.00
   -2    6   12     -0.20      0.00
   -2    6   11      0.02      0.00
   -2    6   10     -0.32      0.00
   -2    6    9      1.82      0.00
   -2    6    8     -0.85      0.00
   -2    6    7      0.39      0.00
   -2    6    6     -5.30      0.00
   -2    6    5     -3.05      0.00
   -2    6    4      6.30      0.00
   -2    6    3      8.14      0.00
   -2    6    2      7.23      0.00
   -2    6    1     -9.19      0.00
    2    6    0     -3.95      0.00
    2    6    1     -5.28      0.00
    2    6    2     -5.00      0.00
    2    6    3     -0.19      0.00
    2    6    4      3.41      0.00
    2    6    5      0.13      0.00
    2    6    6      0.89      0.00
    2    6    7      0.97      0.00
    2    6    8     -0.65      0.00
    2    6    9      0.04      0.00
    2    6   10     -0.40      0.00
    2    6   11      0.62      0.00
    2    6   12     -0.89      0.00
    2    6   13      0.28      0.00
    2    6   14      0.62      0.00
    2    6   15     -0.16      0.00
   -2    7   15      0.30      0.00
   -2    7   14     -0.43      0.00
   -2    7   13      0.08      0.00
   -2    7   12      0.49      0.00
   -2    7   11      0.18      0.00
   -2    7   10     -0.18      0.00
   -2    7    9     -2.02      0.00
   -2    7    8      0.85      0.00
   -2    7    7      0.56      0.00
   -2    7    6      5.28      0.00
   -2    7    5      0.77      0.00
   -2    7    4     -7.07      0.00
   -2    7    3     -4.88      0.00
   -2    7    2     -2.27      0.00
   -2    7    1      7.25      0.00
    2    7    0      1.12      0.00
    2    7    1      3.34      0.00
    2    7    2      3.94      0.00
    2    7    3      0.28      0.00
    2    7    4     -2.49      0.00
    2    7    5      0.96      0.00
    2    7    6     -0.84      0.00
    2    7    7     -1.31      0.00
    2    7    8      0.61      0.00
    2    7    9      0.00      0.00
    2    7   10      0.29      0.00
    2    7   11     -0.73      0.00
    2    7   12      0.94      0.00
    2    7   13     -0.22      0.00
    2    7   14     -1.07      0.00
    2    7   15      0.26      0.00
   -2    8   14      0.59      0.00
   -2    8   13      0.44      0.00
   -2    8   12     -0.65      0.00
   -2    8   11     -0.01      0.00
   -2    8   10      0.47      0.00
   -2    8    9      2.00      0.00
   -2    8    8     -1.09      0.00
   -2    8    7     -1.22      0.00
   -2    8    6     -4.25      0.00
   -2    8    5      1.16      0.00
   -2    8    4      6.00      0.00
   -2    8    3      1.54      0.00
   -2    8    2      0.47      0.00
   -2    8    1     -5.29      0.00
    2    8    0      0.31      0.00
    2    8    1     -1.76      0.00
    2    8    2     -3.36      0.00
    2    8    3     -0.45      0.00
    2    8    4      2.56      0.00
    2    8    5     -1.65      0.00
    2    8    6      0.14      0.00
    2    8    7      1.43      0.00
    2    8    8     -0.57      0.00
    2    8    9     -0.09      0.00
    2    8   10     -0.32      0.00
    2    8   11      0.92      0.00
    2    8   12     -0.71      0.00
    2    8   13     -0.01      0.00
    2    8   14      1.29      0.00
    2    8   15     -0.36      0.00
   -2    9   14     -0.67      0.00
   -2    9   13     -0.84      0.00
   -2    9   12      0.60      0.00
   -2    9   11     -0.28      0.00
   -2    9   10     -0.49      0.00
   -2    9    9     -1.88      0.00
   -2    9    8      1.38      0.00
   -2    9    7      1.46      0.00
   -2    9    6      2.77      0.00
   -2    9    5     -1.98      0.00
   -2    9    4     -3.97      0.00
   -2    9    3      0.44      0.00
   -2    9    2     -0.40      0.00
   -2    9    1      4.23      0.00
    2    9    0     -0.97      0.00
    2    9    1      0.65      0.00
    2    9    2      3.10      0.00
    2    9    3      1.06      0.00
    2    9    4     -2.94      0.00
    2    9    5      1.48      0.00
    2    9    6      0.56      0.00
    2    9    7     -1.22      0.00
    2    9    8      0.53      0.00
    2    9    9      0.15      0.00
    2    9   10      0.50      0.00
    2    9   11     -0.94      0.00
    2    9   12      0.32      0.00
    2    9   13      0.19      0.00
    2    9   14     -1.19      0.00
   -2   10   14      0.73      0.00
   -2   10   13      1.07      0.00
   -2   10   12     -0.50      0.00
   -2   10   11      0.54      0.00
   -2   10   10      0.38      0.00
   -2   10    9      1.65      0.00
   -2   10    8     -1.71      0.00
   -2   10    7     -1.42      0.00
   -2   10    6     -1.42      0.00
   -2   10    5      1.88      0.00
   -2   10    4      2.22      0.00
   -2   10    3     -1.04      0.00
   -2   10    2      0.45      0.00
   -2   10    1     -3.77      0.00
    2   10    0      1.43      0.00
    2   10    1      0.17      0.00
    2   10    2     -2.86      0.00
    2   10    3     -1.97      0.00
    2   10    4      2.98      0.00
    2   10    5     -0.79      0.00
    2   10    6     -0.87      0.00
    2   10    7      0.90      0.00
    2   10    8     -0.45      0.00
    2   10    9     -0.08      0.00
    2   10   10     -0.67      0.00
    2   10   11      0.75      0.00
    2   10   12     -0.07      0.00
    2   10   13     -0.25      0.00
    2   10   14      0.90      0.00
   -2   11   13     -1.01      0.00
   -2   11   12      0.48      0.00
   -2   11   11     -0.77      0.00
   -2   11   10     -0.13      0.00
   -2   11    9     -1.20      0.00
   -2   11    8      1.93      0.00
   -2   11    7      1.22      0.00
   -2   11    6      0.46      0.00
   -2   11    5     -1.47      0.00
   -2   11    4     -1.16      0.00
   -2   11    3      1.08      0.00
   -2   11    2     -0.16      0.00
   -2   11    1      3.18      0.00
    2   11    0     -1.55      0.00
    2   11    1     -0.89      0.00
    2   11    2      2.32      0.00
    2   11    3      2.80      0.00
    2   11    4     -2.58      0.00
    2   11    5      0.08      0.00
    2   11    6      0.95      0.00
    2   11    7     -0.58      0.00
    2   11    8      0.26      0.00
    2   11    9     -0.15      0.00
    2   11   10      0.70      0.00
    2   11   11     -0.61      0.00
    2   11   12      0.09      0.00
    2   11   13      0.34      0.00
   -2   12   13      0.56      0.00
   -2   12   12     -0.50      0.00
   -2   12   11      0.92      0.00
   -2   12   10     -0.27      0.00
   -2   12    9      0.74      0.00
   -2   12    8     -1.85      0.00
   -2   12    7     -1.01      0.00
   -2   12    6      0.09      0.00
   -2   12    5      1.06      0.00
   -2   12    4      0.59      0.00
   -2   12    3     -0.92      0.00
   -2   12    2     -0.02      0.00
   -2   12    1     -2.41      0.00
    2   12    0      1.06      0.00
    2   12    1      1.31      0.00
    2   12    2     -1.36      0.00
    2   12    3     -3.29      0.00
    2   12    4      1.95      0.00
    2   12    5      0.48      0.00
    2   12    6     -1.02      0.00
    2   12    7      0.22      0.00
    2   12    8     -0.13      0.00
    2   12    9      0.48      0.00
    2   12   10     -0.65      0.00
    2   12   11      0.68      0.00
    2   12   12     -0.13      0.00
    2   12   13     -0.58      0.00
   -2   13   12      0.45      0.00
   -2   13   11     -0.90      0.00
   -2   13   10      0.62      0.00
   -2   13    9     -0.54      0.00
   -2   13    8      1.68      0.00
   -2   13    7      0.95      0.00
   -2   13    6     -0.30      0.00
   -2   13    5     -0.66      0.00
   -2   13    4     -0.38      0.00
   -2   13    3      0.47      0.00
   -2   13    2     -0.04      0.00
   -2   13    1      1.91      0.00
    2   13    0     -0.26      0.00
    2   13    1     -1.17      0.00
    2   13    2      0.29      0.00
    2   13    3      3.34      0.00
    2   13    4     -1.25      0.00
    2   13    5     -0.96      0.00
    2   13    6      1.05      0.00
    2   13    7      0.11      0.00
    2   13    8      0.29      0.00
    2   13    9     -0.71      0.00
    2   13   10      0.56      0.00
    2   13   11     -0.79      0.00
    2   13   12     -0.08      0.00
   -2   14   12     -0.22      0.00
   -2   14   11      0.78      0.00
   -2   14   10     -0.70      0.00
   -2   14    9      0.43      0.00
   -2   14    8     -1.77      0.00
   -2   14    7     -0.92      0.00
   -2   14    6      0.34      0.00
   -2   14    5      0.37      0.00
   -2   14    4      0.55      0.00
   -2   14    3      0.06      0.00
   -2   14    2      0.06      0.00
   -2   14    1     -1.74      0.00
    2   14    0     -0.24      0.00
    2   14    1      0.63      0.00
    2   14    2      0.53      0.00
    2   14    3     -3.02      0.00
    2   14    4      0.55      0.00
    2   14    5      1.31      0.00
    2   14    6     -0.93      0.00
    2   14    7     -0.15      0.00
    2   14    8     -0.67      0.00
    2   14    9      0.59      0.00
    2   14   10     -0.44      0.00
    2   14   11      0.72      0.00
    2   14   12      0.48      0.00
   -2   15   11     -0.56      0.00
   -2   15   10      0.61      0.00
   -2   15    9     -0.06      0.00
   -2   15    8      1.99      0.00
   -2   15    7      0.60      0.00
   -2   15    6     -0.32      0.00
   -2   15    5     -0.29      0.00
   -2   15    4     -0.83      0.00
   -2   15    3     -0.27      0.00
   -2   15    2     -0.01      0.00
   -2   15    1      1.57      0.00
    2   15    0      0.21      0.00
    2   15    1     -0.10      0.00
    2   15    2     -0.86      0.00
    2   15    3      2.44      0.00
    2   15    4      0.04      0.00
    2   15    5     -1.42      0.00
    2   15    6      0.71      0.00
    2   15    7     -0.08      0.00
    2   15    8      0.91      0.00
    2   15    9     -0.19      0.00
    2   15   10      0.34      0.00
    2   15   11     -0.46      0.00
   -2   16   10     -0.56      0.00
   -2   16    9     -0.47      0.00
   -2   16    8     -1.86      0.00
   -2   16    7      0.00      0.00
   -2   16    6      0.20      0.00
   -2   16    5      0.35      0.00
   -2   16    4      0.80      0.00
   -2   16    3      0.12      0.00
   -2   16    2      0.11      0.00
   -2   16    1     -1.32      0.00
    2   16    0      0.12      0.00
    2   16    1     -0.14      0.00
    2   16    2      0.78      0.00
    2   16    3     -1.76      0.00
    2   16    4     -0.38      0.00
    2   16    5      1.28      0.00
    2   16    6     -0.44      0.00
    2   16    7      0.29      0.00
    2   16    8     -0.86      0.00
    2   16    9     -0.17      0.00
    2   16   10     -0.27      0.00
   -2   17    9      0.78      0.00
   -2   17    8      1.29      0.00
   -2   17    7     -0.46      0.00
   -2   17    6      0.04      0.00
   -2   17    5     -0.41      0.00
   -2   17    4     -0.39      0.00
   -2   17    3     -0.01      0.00
   -2   17    2     -0.36      0.00
   -2   17    1      1.15      0.00
    2   17    0     -0.44      0.00
    2   17    1      0.07      0.00
    2   17    2     -0.56      0.00
    2   17    3      1.15      0.00
    2   17    4      0.49      0.00
    2   17    5     -0.93      0.00
    2   17    6      0.09      0.00
    2   17    7     -0.34      0.00
    2   17    8      0.75      0.00
    2   17    9      0.26      0.00
   -2   18    8     -0.62      0.00
   -2   18    7      0.52      0.00
   -2   18    6     -0.29      0.00
   -2   18    5      0.39      0.00
   -2   18    4     -0.08      0.00
   -2   18    3      0.21      0.00
   -2   18    2      0.47      0.00
   -2   18    1     -1.18      0.00
    2   18    0      0.57      0.00
    2   18    1      0.08      0.00
    2   18    2      0.53      0.00
    2   18    3     -0.59      0.00
    2   18    4     -0.43      0.00
    2   18    5      0.38      0.00
    2   18    6      0.20      0.00
    2   18    7      0.38      0.00
    2   18    8     -0.71      0.00
   -2   19    7     -0.32      0.00
   -2   19    6      0.43      0.00
   -2   19    5     -0.31      0.00
   -2   19    4      0.23      0.00
   -2   19    3     -0.61      0.00
   -2   19    2     -0.24      0.00
   -2   19    1      1.36      0.00
    2   19    0     -0.53      0.00
    2   19    1     -0.01      0.00
    2   19    2     -0.69      0.00
    2   19    3     -0.06      0.00
    2   19    4      0.17      0.00
    2   19    5      0.16      0.00
    2   19    6     -0.13      0.00
    2   19    7     -0.41      0.00
   -2   20    5      0.32      0.00
   -2   20    4      0.02      0.00
   -2   20    3      0.92      0.00
   -2   20    2     -0.28      0.00
   -2   20    1     -1.48      0.00
    2   20    0      0.54      0.00
    2   20    1     -0.29      0.00
    2   20    2      0.72      0.00
    2   20    3      0.69      0.00
    2   20    4      0.25      0.00
    2   20    5     -0.34      0.00
   -2   21    2      0.80      0.00
   -2   21    1      1.25      0.00
    2   21    0     -0.65      0.00
    2   21    1      0.42      0.00
    2   21    2     -0.47      0.00
   -3    0   14      2.45      0.00
   -3    0   12      0.01      0.00
   -3    0   10      1.17      0.00
   -3    0    8     -1.59      0.00
   -3    0    6     -2.35      0.00
   -3    0    4     -3.78      0.00
   -3    0    2    -12.16      0.00
    3    0    0     30.40      0.00
    3    0    2    -24.44      0.00
    3    0    4      5.26      0.00
    3    0    6      1.80      0.00
    3    0    8      1.81      0.00
    3    0   10     -0.04      0.00
    3    0   12     -2.48      0.00
    3    0   14      1.93      0.00
    3    0   16     -0.38      0.00
   -3    1   15     -0.21      0.00
   -3    1   14     -2.36      0.00
   -3    1   13     -0.03      0.00
   -3    1   12     -0.06      0.00
   -3    1   11      0.21      0.00
   -3    1   10     -1.02      0.00
   -3    1    9      0.58      0.00
   -3    1    8      1.30      0.00
   -3    1    7     -0.72      0.00
   -3    1    6      2.49      0.00
   -3    1    5     -0.91      0.00
   -3    1    4      3.20      0.00
   -3    1    3      1.77      0.00
   -3    1    2     12.15      0.00
   -3    1    1     -2.62      0.00
    3    1    0    -28.28      0.00
    3    1    1     -8.64      0.00
    3    1    2     21.78      0.00
    3    1    3      5.80      0.00
    3    1    4     -3.75      0.00
    3    1    5     -1.69      0.00
    3    1    6     -2.40      0.00
    3    1    7      0.88      0.00
    3    1    8     -1.68      0.00
    3    1    9     -0.10      0.00
    3    1   10      0.11      0.00
    3    1   11     -0.22      0.00
    3    1   12      2.12      0.00
    3    1   13      0.43      0.00
    3    1   14     -1.59      0.00
    3    1   15     -0.46      0.00
    3    1   16      0.29      0.00
   -3    2   15      0.38      0.00
   -3    2   14      2.02      0.00
   -3    2   13     -0.05      0.00
   -3    2   12      0.28      0.00
   -3    2   11     -0.28      0.00
   -3    2   10      0.56      0.00
   -3    2    9     -0.77      0.00
   -3    2    8     -0.57      0.00
   -3    2    7      0.86      0.00
   -3    2    6     -2.62      0.00
   -3    2    5      2.36      0.00
   -3    2    4     -2.26      0.00
   -3    2    3     -4.53      0.00
   -3    2    2    -11.37      0.00
   -3    2    1      4.96      0.00
    3    2    0     22.65      0.00
    3    2    1     13.94      0.00
    3    2    2    -15.32      0.00
    3    2    3     -8.82      0.00
    3    2    4      0.26      0.00
    3    2    5      1.99      0.00
    3    2    6      3.68      0.00
    3    2    7     -1.26      0.00
    3    2    8      1.43      0.00
    3    2    9      0.15      0.00
    3    2   10     -0.29      0.00
    3    2   11      0.26      0.00
    3    2   12     -1.28      0.00
    3    2   13     -0.48      0.00
    3    2   14      0.82      0.00
    3    2   15      0.67      0.00
    3    2   16     -0.08      0.00
   -3    3   15     -0.36      0.00
   -3    3   14     -1.45      0.00
   -3    3   13      0.16      0.00
   -3    3   12     -0.72      0.00
   -3    3   11      0.29      0.00
   -3    3   10      0.03      0.00
   -3    3    9      0.34      0.00
   -3    3    8     -0.09      0.00
   -3    3    7     -0.28      0.00
   -3    3    6      2.16      0.00
   -3    3    5     -4.03      0.00
   -3    3    4      2.30      0.00
   -3    3    3      7.59      0.00
   -3    3    2      8.89      0.00
   -3    3    1     -6.25      0.00
    3    3    0    -15.55      0.00
    3    3    1    -14.60      0.00
    3    3    2      8.42      0.00
    3    3    3      8.26      0.00
    3    3    4      2.97      0.00
    3    3    5     -0.67      0.00
    3    3    6     -4.60      0.00
    3    3    7      1.16      0.00
    3    3    8     -1.21      0.00
    3    3    9     -0.27      0.00
    3    3   10      0.47      0.00
    3    3   11     -0.07      0.00
    3    3   12      0.53      0.00
    3    3   13      0.15      0.00
    3    3   14     -0.08      0.00
    3    3   15     -0.63      0.00
    3    3   16     -0.13      0.00
   -3    4   15      0.09      0.00
   -3    4   14      0.83      0.00
   -3    4   13     -0.26      0.00
   -3    4   12      1.25      0.00
   -3    4   11     -0.24      0.00
   -3    4   10     -0.40      0.00
   -3    4    9      0.44      0.00
   -3    4    8      0.20      0.00
   -3    4    7     -0.53      0.00
   -3    4    6     -0.91      0.00
   -3    4    5      5.05      0.00
   -3    4    4     -3.66      0.00
   -3    4    3     -9.34      0.00
   -3    4    2     -5.12      0.00
   -3    4    1      6.01      0.00
    3    4    0      9.32      0.00
    3    4    1     11.97      0.00
    3    4    2     -3.89      0.00
    3    4    3     -5.61      0.00
    3    4    4     -4.21      0.00
    3    4    5     -1.26      0.00
    3    4    6      4.57      0.00
    3    4    7     -0.87      0.00
    3    4    8      0.91      0.00
    3    4    9      0.42      0.00
    3    4   10     -0.45      0.00
    3    4   11     -0.13      0.00
    3    4   12     -0.21      0.00
    3    4   13      0.20      0.00
    3    4   14     -0.35      0.00
    3    4   15      0.48      0.00
   -3    5   15      0.32      0.00
   -3    5   14     -0.31      0.00
   -3    5   13      0.37      0.00
   -3    5   12     -1.77      0.00
   -3    5   11      0.06      0.00
   -3    5   10      0.44      0.00
   -3    5    9     -0.95      0.00
   -3    5    8      0.24      0.00
   -3    5    7      0.84      0.00
   -3    5    6     -0.75      0.00
   -3    5    5     -4.86      0.00
   -3    5    4      5.60      0.00
   -3    5    3      8.94      0.00
   -3    5    2      1.41      0.00
   -3    5    1     -4.79      0.00
    3    5    0     -5.14      0.00
    3    5    1     -8.70      0.00
    3    5    2      2.17      0.00
    3    5    3      3.16      0.00
    3    5    4      3.51      0.00
    3    5    5      2.53      0.00
    3    5    6     -3.78      0.00
    3    5    7      0.55      0.00
    3    5    8     -0.49      0.00
    3    5    9     -0.37      0.00
    3    5   10      0.27      0.00
    3    5   11      0.14      0.00
    3    5   12      0.25      0.00
    3    5   13     -0.29      0.00
    3    5   14      0.48      0.00
    3    5   15     -0.37      0.00
   -3    6   15     -0.72      0.00
   -3    6   14     -0.09      0.00
   -3    6   13     -0.44      0.00
   -3    6   12      2.25      0.00
   -3    6   11      0.14      0.00
   -3    6   10     -0.40      0.00
   -3    6    9      0.86      0.00
   -3    6    8     -0.65      0.00
   -3    6    7     -0.29      0.00
   -3    6    6      2.06      0.00
   -3    6    5      3.46      0.00
   -3    6    4     -7.11      0.00
   -3    6    3     -6.71      0.00
   -3    6    2      1.17      0.00
   -3    6    1      3.49      0.00
    3    6    0      2.65      0.00
    3    6    1      6.56      0.00
    3    6    2     -1.79      0.00
    3    6    3     -2.05      0.00
    3    6    4     -2.22      0.00
    3    6    5     -2.65      0.00
    3    6    6      2.82      0.00
    3    6    7     -0.21      0.00
    3    6    8      0.13      0.00
    3    6    9      0.08      0.00
    3    6   10     -0.16      0.00
    3    6   11      0.00      0.00
    3    6   12     -0.37      0.00
    3    6   13      0.14      0.00
    3    6   14     -0.47      0.00
    3    6   15      0.39      0.00
   -3    7   14      0.28      0.00
   -3    7   13      0.37      0.00
   -3    7   12     -2.49      0.00
   -3    7   11     -0.08      0.00
   -3    7   10      0.38      0.00
   -3    7    9     -0.46      0.00
   -3    7    8      0.59      0.00
   -3    7    7     -0.70      0.00
   -3    7    6     -2.36      0.00
   -3    7    5     -1.46      0.00
   -3    7    4      7.40      0.00
   -3    7    3      3.59      0.00
   -3    7    2     -2.29      0.00
   -3    7    1     -2.59      0.00
    3    7    0     -1.04      0.00
    3    7    1     -5.58      0.00
    3    7    2      1.26      0.00
    3    7    3      1.81      0.00
    3    7    4      1.59      0.00
    3    7    5      2.14      0.00
    3    7    6     -2.19      0.00
    3    7    7     -0.15      0.00
    3    7    8      0.00      0.00
    3    7    9      0.24      0.00
    3    7   10      0.17      0.00
    3    7   11     -0.10      0.00
    3    7   12      0.41      0.00
    3    7   13      0.09      0.00
    3    7   14      0.46      0.00
    3    7   15     -0.58      0.00
   -3    8   14     -0.12      0.00
   -3    8   13     -0.27      0.00
   -3    8   12      2.22      0.00
   -3    8   11     -0.18      0.00
   -3    8   10     -0.23      0.00
   -3    8    9      0.07      0.00
   -3    8    8     -0.20      0.00
   -3    8    7      1.46      0.00
   -3    8    6      1.66      0.00
   -3    8    5     -0.19      0.00
   -3    8    4     -6.31      0.00
   -3    8    3     -0.78      0.00
   -3    8    2      2.21      0.00
   -3    8    1      2.19      0.00
    3    8    0     -0.14      0.00
    3    8    1      5.03      0.00
    3    8    2     -0.24      0.00
    3    8    3     -1.44      0.00
    3    8    4     -1.76      0.00
    3    8    5     -1.85      0.00
    3    8    6      1.89      0.00
    3    8    7      0.51      0.00
    3    8    8      0.06      0.00
    3    8    9     -0.47      0.00
    3    8   10     -0.19      0.00
    3    8   11      0.16      0.00
    3    8   12     -0.37      0.00
    3    8   13     -0.24      0.00
    3    8   14     -0.59      0.00
    3    8   15      0.81      0.00
   -3    9   14     -0.36      0.00
   -3    9   13      0.48      0.00
   -3    9   12     -1.62      0.00
   -3    9   11      0.36      0.00
   -3    9   10      0.00      0.00
   -3    9    9      0.21      0.00
   -3    9    8     -0.16      0.00
   -3    9    7     -1.70      0.00
   -3    9    6     -0.59      0.00
   -3    9    5      0.87      0.00
   -3    9    4      4.54      0.00
   -3    9    3     -0.92      0.00
   -3    9    2     -1.75      0.00
   -3    9    1     -2.08      0.00
    3    9    0      1.02      0.00
    3    9    1     -4.36      0.00
    3    9    2     -0.86      0.00
    3    9    3      0.55      0.00
    3    9    4      2.03      0.00
    3    9    5      2.08      0.00
    3    9    6     -1.57      0.00
    3    9    7     -0.79      0.00
    3    9    8     -0.28      0.00
    3    9    9      0.66      0.00
    3    9   10      0.29      0.00
    3    9   11     -0.30      0.00
    3    9   12      0.19      0.00
    3    9   13      0.27      0.00
    3    9   14      0.80      0.00
   -3   10   13     -1.03      0.00
   -3   10   12      1.20      0.00
   -3   10   11     -0.41      0.00
   -3   10   10      0.09      0.00
   -3   10    9     -0.27      0.00
   -3   10    8      0.38      0.00
   -3   10    7      1.58      0.00
   -3   10    6     -0.24      0.00
   -3   10    5     -0.81      0.00
   -3   10    4     -3.01      0.00
   -3   10    3      1.63      0.00
   -3   10    2      1.59      0.00
   -3   10    1      1.79      0.00
    3   10    0     -1.59      0.00
    3   10    1      3.33      0.00
    3   10    2      1.60      0.00
    3   10    3      0.56      0.00
    3   10    4     -1.86      0.00
    3   10    5     -2.43      0.00
    3   10    6      1.00      0.00
    3   10    7      0.80      0.00
    3   10    8      0.62      0.00
    3   10    9     -0.71      0.00
    3   10   10     -0.64      0.00
    3   10   11      0.41      0.00
    3   10   12      0.15      0.00
    3   10   13     -0.14      0.00
    3   10   14     -0.93      0.00
   -3   11   13      1.56      0.00
   -3   11   12     -1.25      0.00
   -3   11   11      0.61      0.00
   -3   11   10     -0.06      0.00
   -3   11    9     -0.01      0.00
   -3   11    8     -0.42      0.00
   -3   11    7     -1.32      0.00
   -3   11    6      0.74      0.00
   -3   11    5      0.59      0.00
   -3   11    4      1.98      0.00
   -3   11    3     -1.96      0.00
   -3   11    2     -1.66      0.00
   -3   11    1     -1.04      0.00
    3   11    0      1.58      0.00
    3   11    1     -2.06      0.00
    3   11    2     -1.77      0.00
    3   11    3     -1.46      0.00
    3   11    4      1.29      0.00
    3   11    5      2.47      0.00
    3   11    6     -0.41      0.00
    3   11    7     -0.49      0.00
    3   11    8     -0.92      0.00
    3   11    9      0.44      0.00
    3   11   10      1.12      0.00
    3   11   11     -0.22      0.00
    3   11   12     -0.47      0.00
    3   11   13     -0.09      0.00
   -3   12   13     -1.62      0.00
   -3   12   12      1.59      0.00
   -3   12   11     -0.98      0.00
   -3   12   10      0.22      0.00
   -3   12    9      0.45      0.00
   -3   12    8      0.22      0.00
   -3   12    7      1.01      0.00
   -3   12    6     -1.04      0.00
   -3   12    5     -0.39      0.00
   -3   12    4     -1.24      0.00
   -3   12    3      2.04      0.00
   -3   12    2      1.49      0.00
   -3   12    1      0.20      0.00
    3   12    0     -0.96      0.00
    3   12    1      0.95      0.00
    3   12    2      1.44      0.00
    3   12    3      1.98      0.00
    3   12    4     -0.64      0.00
    3   12    5     -2.25      0.00
    3   12    6      0.06      0.00
    3   12    7      0.11      0.00
    3   12    8      1.02      0.00
    3   12    9      0.04      0.00
    3   12   10     -1.31      0.00
    3   12   11     -0.25      0.00
    3   12   12      0.50      0.00
    3   12   13      0.36      0.00
   -3   13   12     -1.86      0.00
   -3   13   11      1.25      0.00
   -3   13   10     -0.55      0.00
   -3   13    9     -0.64      0.00
   -3   13    8      0.09      0.00
   -3   13    7     -0.70      0.00
   -3   13    6      1.15      0.00
   -3   13    5      0.11      0.00
   -3   13    4      0.77      0.00
   -3   13    3     -1.74      0.00
   -3   13    2     -1.06      0.00
   -3   13    1      0.21      0.00
    3   13    0      0.13      0.00
    3   13    1     -0.33      0.00
    3   13    2     -0.82      0.00
    3   13    3     -2.19      0.00
    3   13    4      0.06      0.00
    3   13    5      2.02      0.00
    3   13    6      0.07      0.00
    3   13    7      0.15      0.00
    3   13    8     -1.00      0.00
    3   13    9     -0.46      0.00
    3   13   10      1.08      0.00
    3   13   11      0.63      0.00
    3   13   12     -0.09      0.00
   -3   14   11     -1.29      0.00
   -3   14   10      0.78      0.00
   -3   14    9      0.55      0.00
   -3   14    8     -0.28      0.00
   -3   14    7      0.42      0.00
   -3   14    6     -0.99      0.00
   -3   14    5      0.13      0.00
   -3   14    4     -0.74      0.00
   -3   14    3      1.27      0.00
   -3   14    2      0.66      0.00
   -3   14    1     -0.16      0.00
    3   14    0      0.39      0.00
    3   14    1      0.21      0.00
    3   14    2      0.16      0.00
    3   14    3      2.14      0.00
    3   14    4      0.45      0.00
    3   14    5     -1.92      0.00
    3   14    6     -0.08      0.00
    3   14    7     -0.31      0.00
    3   14    8      0.95      0.00
    3   14    9      0.68      0.00
    3   14   10     -0.68      0.00
    3   14   11     -0.59      0.00
    3   14   12     -0.53      0.00
   -3   15   11      1.09      0.00
   -3   15   10     -0.87      0.00
   -3   15    9     -0.43      0.00
   -3   15    8      0.36      0.00
   -3   15    7     -0.11      0.00
   -3   15    6      0.65      0.00
   -3   15    5     -0.10      0.00
   -3   15    4      0.88      0.00
   -3   15    3     -1.04      0.00
   -3   15    2     -0.29      0.00
   -3   15    1     -0.03      0.00
    3   15    0     -0.44      0.00
    3   15    1     -0.38      0.00
    3   15    2      0.34      0.00
    3   15    3     -1.82      0.00
    3   15    4     -0.88      0.00
    3   15    5      1.90      0.00
    3   15    6      0.01      0.00
    3   15    7      0.39      0.00
    3   15    8     -0.83      0.00
    3   15    9     -0.75      0.00
    3   15   10      0.44      0.00
    3   15   11      0.20      0.00
   -3   16   10      0.94      0.00
   -3   16    9      0.31      0.00
   -3   16    8     -0.57      0.00
   -3   16    7     -0.17      0.00
   -3   16    6     -0.33      0.00
   -3   16    5     -0.15      0.00
   -3   16    4     -0.74      0.00
   -3   16    3      1.11      0.00
   -3   16    2     -0.18      0.00
   -3   16    1      0.18      0.00
    3   16    0      0.14      0.00
    3   16    1      0.56      0.00
    3   16    2     -0.49      0.00
    3   16    3      1.29      0.00
    3   16    4      1.18      0.00
    3   16    5     -1.83      0.00
    3   16    6      0.01      0.00
    3   16    7     -0.32      0.00
    3   16    8      0.59      0.00
    3   16    9      0.75      0.00
    3   16   10     -0.45      0.00
   -3   17    9     -0.01      0.00
   -3   17    8      0.84      0.00
   -3   17    7      0.32      0.00
   -3   17    6      0.17      0.00
   -3   17    5      0.30      0.00
   -3   17    4      0.22      0.00
   -3   17    3     -1.17      0.00
   -3   17    2      0.66      0.00
   -3   17    1     -0.26      0.00
    3   17    0      0.28      0.00
    3   17    1     -0.47      0.00
    3   17    2      0.32      0.00
    3   17    3     -0.69      0.00
    3   17    4     -1.31      0.00
    3   17    5      1.48      0.00
    3   17    6      0.12      0.00
    3   17    7      0.16      0.00
    3   17    8     -0.35      0.00
    3   17    9     -0.70      0.00
   -3   18    8     -0.89      0.00
   -3   18    7     -0.35      0.00
   -3   18    6     -0.16      0.00
   -3   18    5     -0.15      0.00
   -3   18    4      0.32      0.00
   -3   18    3      1.03      0.00
   -3   18    2     -0.92      0.00
   -3   18    1      0.29      0.00
    3   18    0     -0.57      0.00
    3   18    1      0.07      0.00
    3   18    2     -0.10      0.00
    3   18    3      0.13      0.00
    3   18    4      1.16      0.00
    3   18    5     -0.72      0.00
    3   18    6     -0.24      0.00
    3   18    7     -0.06      0.00
    3   18    8      0.18      0.00
   -3   19    7      0.43      0.00
   -3   19    6      0.13      0.00
   -3   19    5     -0.16      0.00
   -3   19    4     -0.50      0.00
   -3   19    3     -0.74      0.00
   -3   19    2      0.80      0.00
   -3   19    1     -0.39      0.00
    3   19    0      0.61      0.00
    3   19    1      0.34      0.00
    3   19    2     -0.01      0.00
    3   19    3      0.30      0.00
    3   19    4     -0.67      0.00
    3   19    5     -0.11      0.00
    3   19    6      0.09      0.00
    3   19    7      0.00      0.00
   -3   20    5      0.31      0.00
   -3   20    4      0.25      0.00
   -3   20    3      0.51      0.00
   -3   20    2     -0.33      0.00
   -3   20    1      0.55      0.00
    3   20    0     -0.62      0.00
    3   20    1     -0.55      0.00
    3   20    2      0.06      0.00
    3   20    3     -0.50      0.00
    3   20    4      0.06      0.00
    3   20    5      0.53      0.00
   -3   21    2     -0.23      0.00
   -3   21    1     -0.59      0.00
    3   21    0      0.70      0.00
    3   21    1      0.65      0.00
    3   21    2     -0.11      0.00
   -4    0   14     -0.26      0.00
   -4    0   12      1.31      0.00
   -4    0   10     -0.37      0.00
   -4    0    8      0.69      0.00
   -4    0    6      2.27      0.00
   -4    0    4      0.00      0.00
   -4    0    2     -5.48      0.00
    4    0    0     -1.87      0.00
    4    0    2      7.12      0.00
    4    0    4     -7.59      0.00
    4    0    6     -1.70      0.00
    4    0    8      1.44      0.00
    4    0   10      0.83      0.00
    4    0   12      1.70      0.00
    4    0   14     -2.29      0.00
    4    0   16      0.26      0.00
   -4    1   15      0.28      0.00
   -4    1   14      0.31      0.00
   -4    1   13      0.24      0.00
   -4    1   12     -1.24      0.00
   -4    1   11      0.36      0.00
   -4    1   10      0.07      0.00
   -4    1    9     -0.36      0.00
   -4    1    8     -0.39      0.00
   -4    1    7      0.21      0.00
   -4    1    6     -2.37      0.00
   -4    1    5     -0.54      0.00
   -4    1    4      0.08      0.00
   -4    1    3     -1.38      0.00
   -4    1    2      5.79      0.00
   -4    1    1      1.58      0.00
    4    1    0      0.50      0.00
    4    1    1      3.32      0.00
    4    1    2     -6.17      0.00
    4    1    3     -2.50      0.00
    4    1    4      7.03      0.00
    4    1    5      0.33      0.00
    4    1    6      1.77      0.00
    4    1    7      0.33      0.00
    4    1    8     -1.40      0.00
    4    1    9     -0.01      0.00
    4    1   10     -0.86      0.00
    4    1   11      0.35      0.00
    4    1   12     -1.36      0.00
    4    1   13     -0.37      0.00
    4    1   14      2.03      0.00
    4    1   15      0.24      0.00
    4    1   16     -0.25      0.00
   -4    2   15     -0.51      0.00
   -4    2   14     -0.36      0.00
   -4    2   13     -0.31      0.00
   -4    2   12      0.95      0.00
   -4    2   11     -0.71      0.00
   -4    2   10      0.73      0.00
   -4    2    9      0.33      0.00
   -4    2    8     -0.31      0.00
   -4    2    7     -0.02      0.00
   -4    2    6      2.47      0.00
   -4    2    5      0.63      0.00
   -4    2    4     -0.02      0.00
   -4    2    3      2.68      0.00
   -4    2    2     -6.56      0.00
   -4    2    1     -1.81      0.00
    4    2    0      2.70      0.00
    4    2    1     -4.62      0.00
    4    2    2      3.96      0.00
    4    2    3      3.82      0.00
    4    2    4     -5.72      0.00
    4    2    5     -0.20      0.00
    4    2    6     -1.85      0.00
    4    2    7     -0.62      0.00
    4    2    8      1.21      0.00
    4    2    9      0.01      0.00
    4    2   10      0.94      0.00
    4    2   11     -0.43      0.00
    4    2   12      0.60      0.00
    4    2   13      0.43      0.00
    4    2   14     -1.39      0.00
    4    2   15     -0.44      0.00
    4    2   16      0.21      0.00
   -4    3   15      0.54      0.00
   -4    3   14      0.25      0.00
   -4    3   13      0.30      0.00
   -4    3   12     -0.40      0.00
   -4    3   11      0.90      0.00
   -4    3   10     -1.62      0.00
   -4    3    9      0.28      0.00
   -4    3    8      0.90      0.00
   -4    3    7     -0.57      0.00
   -4    3    6     -2.25      0.00
   -4    3    5     -0.43      0.00
   -4    3    4     -0.51      0.00
   -4    3    3     -3.37      0.00
   -4    3    2      7.16      0.00
   -4    3    1      0.17      0.00
    4    3    0     -5.63      0.00
    4    3    1      3.32      0.00
    4    3    2     -2.01      0.00
    4    3    3     -3.56      0.00
    4    3    4      4.45      0.00
    4    3    5     -0.37      0.00
    4    3    6      1.78      0.00
    4    3    7      0.67      0.00
    4    3    8     -0.96      0.00
    4    3    9      0.06      0.00
    4    3   10     -0.98      0.00
    4    3   11      0.23      0.00
    4    3   12      0.09      0.00
    4    3   13     -0.15      0.00
    4    3   14      0.69      0.00
    4    3   15      0.58      0.00
    4    3   16     -0.05      0.00
   -4    4   15     -0.29      0.00
   -4    4   14     -0.03      0.00
   -4    4   13     -0.36      0.00
   -4    4   12     -0.16      0.00
   -4    4   11     -0.87      0.00
   -4    4   10      1.99      0.00
   -4    4    9     -1.21      0.00
   -4    4    8     -0.90      0.00
   -4    4    7      1.21      0.00
   -4    4    6      1.71      0.00
   -4    4    5      0.31      0.00
   -4    4    4      1.25      0.00
   -4    4    3      3.12      0.00
   -4    4    2     -6.74      0.00
   -4    4    1      2.47      0.00
    4    4    0      6.47      0.00
    4    4    1     -0.72      0.00
    4    4    2      1.50      0.00
    4    4    3      2.43      0.00
    4    4    4     -3.79      0.00
    4    4    5      1.02      0.00
    4    4    6     -1.67      0.00
    4    4    7     -0.50      0.00
    4    4    8      0.91      0.00
    4    4    9     -0.14      0.00
    4    4   10      0.88      0.00
    4    4   11      0.00      0.00
    4    4   12     -0.38      0.00
    4    4   13     -0.20      0.00
    4    4   14     -0.13      0.00
    4    4   15     -0.62      0.00
   -4    5   15     -0.19      0.00
   -4    5   14     -0.24      0.00
   -4    5   13      0.48      0.00
   -4    5   12      0.60      0.00
   -4    5   11      0.87      0.00
   -4    5   10     -1.66      0.00
   -4    5    9      1.82      0.00
   -4    5    8      0.32      0.00
   -4    5    7     -1.45      0.00
   -4    5    6     -1.13      0.00
   -4    5    5     -0.39      0.00
   -4    5    4     -1.75      0.00
   -4    5    3     -2.21      0.00
   -4    5    2      5.08      0.00
   -4    5    1     -4.51      0.00
    4    5    0     -5.14      0.00
    4    5    1     -1.14      0.00
    4    5    2     -2.29      0.00
    4    5    3     -1.60      0.00
    4    5    4      3.68      0.00
    4    5    5     -1.44      0.00
    4    5    6      1.67      0.00
    4    5    7      0.46      0.00
    4    5    8     -1.11      0.00
    4    5    9      0.00      0.00
    4    5   10     -0.73      0.00
    4    5   11      0.01      0.00
    4    5   12      0.33      0.00
    4    5   13      0.39      0.00
    4    5   14     -0.15      0.00
    4    5   15      0.54      0.00
   -4    6   15      0.82      0.00
   -4    6   14      0.54      0.00
   -4    6   13     -0.71      0.00
   -4    6   12     -0.96      0.00
   -4    6   11     -0.96      0.00
   -4    6   10      1.03      0.00
   -4    6    9     -1.81      0.00
   -4    6    8      0.36      0.00
   -4    6    7      1.15      0.00
   -4    6    6      0.78      0.00
   -4    6    5      0.58      0.00
   -4    6    4      1.85      0.00
   -4    6    3      1.10      0.00
   -4    6    2     -2.89      0.00
   -4    6    1      5.06      0.00
    4    6    0      3.02      0.00
    4    6    1      1.25      0.00
    4    6    2      3.20      0.00
    4    6    3      1.61      0.00
    4    6    4     -3.57      0.00
    4    6    5      1.55      0.00
    4    6    6     -1.68      0.00
    4    6    7     -0.78      0.00
    4    6    8      1.29      0.00
    4    6    9      0.33      0.00
    4    6   10      0.68      0.00
    4    6   11     -0.25      0.00
    4    6   12     -0.14      0.00
    4    6   13     -0.31      0.00
    4    6   14      0.18      0.00
    4    6   15     -0.41      0.00
   -4    7   14     -0.67      0.00
   -4    7   13      1.13      0.00
   -4    7   12      1.13      0.00
   -4    7   11      0.92      0.00
   -4    7   10     -0.49      0.00
   -4    7    9      1.44      0.00
   -4    7    8     -0.70      0.00
   -4    7    7     -0.58      0.00
   -4    7    6     -0.80      0.00
   -4    7    5     -0.78      0.00
   -4    7    4     -1.54      0.00
   -4    7    3     -0.06      0.00
   -4    7    2      0.99      0.00
   -4    7    1     -4.41      0.00
    4    7    0     -1.40      0.00
    4    7    1     -0.18      0.00
    4    7    2     -3.28      0.00
    4    7    3     -2.08      0.00
    4    7    4      3.02      0.00
    4    7    5     -1.53      0.00
    4    7    6      1.56      0.00
    4    7    7      1.29      0.00
    4    7    8     -1.27      0.00
    4    7    9     -0.66      0.00
    4    7   10     -0.69      0.00
    4    7   11      0.57      0.00
    4    7   12      0.01      0.00
    4    7   13     -0.02      0.00
    4    7   14     -0.10      0.00
    4    7   15      0.34      0.00
   -4    8   14      0.34      0.00
   -4    8   13     -1.48      0.00
   -4    8   12     -0.91      0.00
   -4    8   11     -0.75      0.00
   -4    8   10      0.12      0.00
   -4    8    9     -1.12      0.00
   -4    8    8      0.75      0.00
   -4    8    7      0.18      0.00
   -4    8    6      1.11      0.00
   -4    8    5      0.76      0.00
   -4    8    4      0.89      0.00
   -4    8    3     -0.65      0.00
   -4    8    2      0.18      0.00
   -4    8    1      3.24      0.00
    4    8    0      0.58      0.00
    4    8    1     -1.08      0.00
    4    8    2      2.61      0.00
    4    8    3      2.31      0.00
    4    8    4     -2.18      0.00
    4    8    5      1.61      0.00
    4    8    6     -1.25      0.00
    4    8    7     -1.74      0.00
    4    8    8      1.13      0.00
    4    8    9      0.94      0.00
    4    8   10      0.65      0.00
    4    8   11     -0.89      0.00
    4    8   12     -0.07      0.00
    4    8   13      0.42      0.00
    4    8   14      0.11      0.00
    4    8   15     -0.30      0.00
   -4    9   14      0.43      0.00
   -4    9   13      1.29      0.00
   -4    9   12      0.46      0.00
   -4    9   11      0.68      0.00
   -4    9   10      0.04      0.00
   -4    9    9      0.96      0.00
   -4    9    8     -0.79      0.00
   -4    9    7     -0.10      0.00
   -4    9    6     -1.35      0.00
   -4    9    5     -0.42      0.00
   -4    9    4     -0.26      0.00
   -4    9    3      0.86      0.00
   -4    9    2     -0.40      0.00
   -4    9    1     -2.04      0.00
    4    9    0     -0.36      0.00
    4    9    1      1.99      0.00
    4    9    2     -1.73      0.00
    4    9    3     -2.15      0.00
    4    9    4      1.53      0.00
    4    9    5     -1.78      0.00
    4    9    6      0.70      0.00
    4    9    7      2.00      0.00
    4    9    8     -0.84      0.00
    4    9    9     -1.21      0.00
    4    9   10     -0.70      0.00
    4    9   11      1.16      0.00
    4    9   12      0.31      0.00
    4    9   13     -0.70      0.00
    4    9   14     -0.24      0.00
   -4   10   13     -0.49      0.00
   -4   10   12     -0.27      0.00
   -4   10   11     -0.67      0.00
   -4   10   10      0.14      0.00
   -4   10    9     -0.94      0.00
   -4   10    8      0.93      0.00
   -4   10    7      0.16      0.00
   -4   10    6      1.29      0.00
   -4   10    5      0.03      0.00
   -4   10    4     -0.05      0.00
   -4   10    3     -0.82      0.00
   -4   10    2     -0.24      0.00
   -4   10    1      1.22      0.00
    4   10    0      0.49      0.00
    4   10    1     -2.45      0.00
    4   10    2      0.94      0.00
    4   10    3      1.89      0.00
    4   10    4     -1.29      0.00
    4   10    5      1.78      0.00
    4   10    6      0.03      0.00
    4   10    7     -1.92      0.00
    4   10    8      0.30      0.00
    4   10    9      1.27      0.00
    4   10   10      1.03      0.00
    4   10   11     -1.24      0.00
    4   10   12     -0.68      0.00
    4   10   13      0.79      0.00
    4   10   14      0.34      0.00
   -4   11   13     -0.44      0.00
   -4   11   12      0.49      0.00
   -4   11   11      0.43      0.00
   -4   11   10     -0.51      0.00
   -4   11    9      1.10      0.00
   -4   11    8     -1.13      0.00
   -4   11    7     -0.20      0.00
   -4   11    6     -1.11      0.00
   -4   11    5      0.15      0.00
   -4   11    4      0.18      0.00
   -4   11    3      0.87      0.00
   -4   11    2      1.13      0.00
   -4   11    1     -0.95      0.00
    4   11    0     -0.67      0.00
    4   11    1      2.42      0.00
    4   11    2     -0.22      0.00
    4   11    3     -1.75      0.00
    4   11    4      1.21      0.00
    4   11    5     -1.42      0.00
    4   11    6     -0.64      0.00
    4   11    7      1.41      0.00
    4   11    8      0.27      0.00
    4   11    9     -0.84      0.00
    4   11   10     -1.51      0.00
    4   11   11      1.00      0.00
    4   11   12      1.03      0.00
    4   11   13     -0.78      0.00
   -4   12   12     -0.82      0.00
   -4   12   11      0.02      0.00
   -4   12   10      0.71      0.00
   -4   12    9     -1.31      0.00
   -4   12    8      1.36      0.00
   -4   12    7      0.29      0.00
   -4   12    6      0.99      0.00
   -4   12    5     -0.21      0.00
   -4   12    4     -0.37      0.00
   -4   12    3     -0.93      0.00
   -4   12    2     -1.63      0.00
   -4   12    1      0.99      0.00
    4   12    0      0.66      0.00
    4   12    1     -2.00      0.00
    4   12    2     -0.41      0.00
    4   12    3      1.63      0.00
    4   12    4     -1.02      0.00
    4   12    5      0.87      0.00
    4   12    6      0.90      0.00
    4   12    7     -0.75      0.00
    4   12    8     -0.56      0.00
    4   12    9      0.04      0.00
    4   12   10      1.78      0.00
    4   12   11     -0.50      0.00
    4   12   12     -1.26      0.00
    4   12   13      0.69      0.00
   -4   13   12      1.00      0.00
   -4   13   11     -0.36      0.00
   -4   13   10     -0.70      0.00
   -4   13    9      1.33      0.00
   -4   13    8     -1.59      0.00
   -4   13    7     -0.47      0.00
   -4   13    6     -0.80      0.00
   -4   13    5      0.39      0.00
   -4   13    4      0.51      0.00
   -4   13    3      0.83      0.00
   -4   13    2      1.64      0.00
   -4   13    1     -0.98      0.00
    4   13    0     -0.43      0.00
    4   13    1      1.44      0.00
    4   13    2      0.75      0.00
    4   13    3     -1.41      0.00
    4   13    4      0.72      0.00
    4   13    5     -0.42      0.00
    4   13    6     -0.86      0.00
    4   13    7      0.26      0.00
    4   13    8      0.52      0.00
    4   13    9      0.65      0.00
    4   13   10     -1.62      0.00
    4   13   11     -0.03      0.00
    4   13   12      1.25      0.00
   -4   14   11      0.46      0.00
   -4   14   10      0.73      0.00
   -4   14    9     -1.13      0.00
   -4   14    8      1.76      0.00
   -4   14    7      0.61      0.00
   -4   14    6      0.37      0.00
   -4   14    5     -0.56      0.00
   -4   14    4     -0.39      0.00
   -4   14    3     -0.71      0.00
   -4   14    2     -1.35      0.00
   -4   14    1      0.87      0.00
    4   14    0      0.15      0.00
    4   14    1     -1.01      0.00
    4   14    2     -0.70      0.00
    4   14    3      1.14      0.00
    4   14    4     -0.46      0.00
    4   14    5      0.20      0.00
    4   14    6      0.71      0.00
    4   14    7      0.00      0.00
    4   14    8     -0.32      0.00
    4   14    9     -0.95      0.00
    4   14   10      1.16      0.00
    4   14   11      0.32      0.00
    4   14   12     -0.94      0.00
   -4   15   11     -0.46      0.00
   -4   15   10     -0.80      0.00
   -4   15    9      0.92      0.00
   -4   15    8     -1.89      0.00
   -4   15    7     -0.53      0.00
   -4   15    6      0.18      0.00
   -4   15    5      0.51      0.00
   -4   15    4      0.16      0.00
   -4   15    3      0.76      0.00
   -4   15    2      0.86      0.00
   -4   15    1     -0.73      0.00
    4   15    0      0.05      0.00
    4   15    1      0.89      0.00
    4   15    2      0.36      0.00
    4   15    3     -0.96      0.00
    4   15    4      0.35      0.00
    4   15    5     -0.19      0.00
    4   15    6     -0.53      0.00
    4   15    7     -0.10      0.00
    4   15    8      0.09      0.00
    4   15    9      0.86      0.00
    4   15   10     -0.67      0.00
    4   15   11     -0.29      0.00
   -4   16   10      0.71      0.00
   -4   16    9     -0.63      0.00
   -4   16    8      2.00      0.00
   -4   16    7      0.19      0.00
   -4   16    6     -0.52      0.00
   -4   16    5     -0.29      0.00
   -4   16    4     -0.09      0.00
   -4   16    3     -0.93      0.00
   -4   16    2     -0.31      0.00
   -4   16    1      0.60      0.00
    4   16    0     -0.01      0.00
    4   16    1     -1.01      0.00
    4   16    2     -0.07      0.00
    4   16    3      0.91      0.00
    4   16    4     -0.39      0.00
    4   16    5      0.34      0.00
    4   16    6      0.38      0.00
    4   16    7      0.06      0.00
    4   16    8      0.16      0.00
    4   16    9     -0.55      0.00
    4   16   10      0.35      0.00
   -4   17    9      0.11      0.00
   -4   17    8     -1.93      0.00
   -4   17    7      0.32      0.00
   -4   17    6      0.46      0.00
   -4   17    5      0.19      0.00
   -4   17    4      0.22      0.00
   -4   17    3      1.07      0.00
   -4   17    2     -0.08      0.00
   -4   17    1     -0.61      0.00
    4   17    0     -0.32      0.00
    4   17    1      1.00      0.00
    4   17    2      0.05      0.00
    4   17    3     -0.92      0.00
    4   17    4      0.53      0.00
    4   17    5     -0.43      0.00
    4   17    6     -0.39      0.00
    4   17    7      0.07      0.00
    4   17    8     -0.32      0.00
    4   17    9      0.22      0.00
   -4   18    8      1.48      0.00
   -4   18    7     -0.69      0.00
   -4   18    6     -0.09      0.00
   -4   18    5     -0.37      0.00
   -4   18    4     -0.42      0.00
   -4   18    3     -1.16      0.00
   -4   18    2      0.26      0.00
   -4   18    1      0.82      0.00
    4   18    0      0.63      0.00
    4   18    1     -0.58      0.00
    4   18    2     -0.23      0.00
    4   18    3      0.85      0.00
    4   18    4     -0.55      0.00
    4   18    5      0.25      0.00
    4   18    6      0.46      0.00
    4   18    7     -0.12      0.00
    4   18    8      0.36      0.00
   -4   19    7      0.69      0.00
   -4   19    6     -0.26      0.00
   -4   19    5      0.73      0.00
   -4   19    4      0.51      0.00
   -4   19    3      1.21      0.00
   -4   19    2     -0.34      0.00
   -4   19    1     -1.03      0.00
    4   19    0     -0.62      0.00
    4   19    1     -0.08      0.00
    4   19    2      0.37      0.00
    4   19    3     -0.56      0.00
    4   19    4      0.30      0.00
    4   19    5      0.05      0.00
    4   19    6     -0.35      0.00
   -4   20    5     -0.99      0.00
   -4   20    4     -0.42      0.00
   -4   20    3     -1.19      0.00
   -4   20    2      0.33      0.00
   -4   20    1      0.96      0.00
    4   20    0      0.36      0.00
    4   20    1      0.57      0.00
    4   20    2     -0.33      0.00
    4   20    3      0.09      0.00
    4   20    4      0.01      0.00
    4   20    5     -0.16      0.00
   -4   21    2     -0.20      0.00
   -4   21    1     -0.63      0.00
    4   21    0     -0.14      0.00
    4   21    1     -0.66      0.00
    4   21    2      0.14      0.00
   -5    0   14     -2.26      0.00
   -5    0   12     -1.49      0.00
   -5    0   10      0.83      0.00
   -5    0    8      1.84      0.00
   -5    0    6     -0.49      0.00
   -5    0    4     -0.05      0.00
   -5    0    2      6.28      0.00
    5    0    0     -9.70      0.00
    5    0    2     10.23      0.00
    5    0    4      2.14      0.00
    5    0    6     -0.02      0.00
    5    0    8     -2.73      0.00
    5    0   10      0.08      0.00
    5    0   12      0.42      0.00
    5    0   14      0.88      0.00
    5    0   16     -0.70      0.00
   -5    1   15      0.02      0.00
   -5    1   14      2.04      0.00
   -5    1   13     -0.38      0.00
   -5    1   12      1.44      0.00
   -5    1   11     -0.46      0.00
   -5    1   10     -0.57      0.00
   -5    1    9      0.68      0.00
   -5    1    8     -1.97      0.00
   -5    1    7      0.65      0.00
   -5    1    6      0.60      0.00
   -5    1    5      0.54      0.00
   -5    1    4      0.21      0.00
   -5    1    3      0.21      0.00
   -5    1    2     -6.69      0.00
   -5    1    1      0.21      0.00
    5    1    0     10.03      0.00
    5    1    1      1.81      0.00
    5    1    2     -9.76      0.00
    5    1    3     -0.70      0.00
    5    1    4     -2.42      0.00
    5    1    5      0.51      0.00
    5    1    6      0.32      0.00
    5    1    7     -0.77      0.00
    5    1    8      2.62      0.00
    5    1    9      0.10      0.00
    5    1   10     -0.09      0.00
    5    1   11     -0.01      0.00
    5    1   12     -0.47      0.00
    5    1   13     -0.43      0.00
    5    1   14     -0.90      0.00
    5    1   15      0.40      0.00
    5    1   16      0.77      0.00
   -5    2   15      0.09      0.00
   -5    2   14     -1.55      0.00
   -5    2   13      0.68      0.00
   -5    2   12     -1.25      0.00
   -5    2   11      0.68      0.00
   -5    2   10     -0.09      0.00
   -5    2    9     -0.99      0.00
   -5    2    8      2.21      0.00
   -5    2    7     -1.37      0.00
   -5    2    6     -0.75      0.00
   -5    2    5     -0.98      0.00
   -5    2    4     -0.65      0.00
   -5    2    3      0.18      0.00
   -5    2    2      7.43      0.00
   -5    2    1     -1.44      0.00
    5    2    0    -10.62      0.00
    5    2    1     -3.66      0.00
    5    2    2      8.47      0.00
    5    2    3      1.15      0.00
    5    2    4      3.20      0.00
    5    2    5     -0.74      0.00
    5    2    6     -1.15      0.00
    5    2    7      1.28      0.00
    5    2    8     -2.27      0.00
    5    2    9     -0.25      0.00
    5    2   10      0.10      0.00
    5    2   11     -0.06      0.00
    5    2   12      0.59      0.00
    5    2   13      0.76      0.00
    5    2   14      0.89      0.00
    5    2   15     -0.58      0.00
    5    2   16     -0.91      0.00
   -5    3   15     -0.30      0.00
   -5    3   14      1.05      0.00
   -5    3   13     -1.01      0.00
   -5    3   12      0.99      0.00
   -5    3   11     -0.47      0.00
   -5    3   10      0.71      0.00
   -5    3    9      0.77      0.00
   -5    3    8     -2.20      0.00
   -5    3    7      1.98      0.00
   -5    3    6      0.76      0.00
   -5    3    5      1.46      0.00
   -5    3    4      1.08      0.00
   -5    3    3     -1.38      0.00
   -5    3    2     -7.37      0.00
   -5    3    1      3.90      0.00
    5    3    0     10.47      0.00
    5    3    1      5.47      0.00
    5    3    2     -6.54      0.00
    5    3    3     -1.23      0.00
    5    3    4     -4.14      0.00
    5    3    5      0.40      0.00
    5    3    6      2.06      0.00
    5    3    7     -1.23      0.00
    5    3    8      1.82      0.00
    5    3    9      0.40      0.00
    5    3   10     -0.10      0.00
    5    3   11      0.17      0.00
    5    3   12     -0.71      0.00
    5    3   13     -0.91      0.00
    5    3   14     -0.75      0.00
    5    3   15      0.46      0.00
    5    3   16      0.92      0.00
   -5    4   15      0.54      0.00
   -5    4   14     -0.59      0.00
   -5    4   13      1.37      0.00
   -5    4   12     -0.92      0.00
   -5    4   11     -0.01      0.00
   -5    4   10     -0.77      0.00
   -5    4    9     -0.31      0.00
   -5    4    8      1.76      0.00
   -5    4    7     -2.17      0.00
   -5    4    6     -0.76      0.00
   -5    4    5     -1.97      0.00
   -5    4    4     -1.01      0.00
   -5    4    3      2.88      0.00
   -5    4    2      5.60      0.00
   -5    4    1     -6.60      0.00
    5    4    0     -8.75      0.00
    5    4    1     -6.74      0.00
    5    4    2      4.18      0.00
    5    4    3      0.94      0.00
    5    4    4      4.74      0.00
    5    4    5      0.42      0.00
    5    4    6     -2.33      0.00
    5    4    7      0.71      0.00
    5    4    8     -1.54      0.00
    5    4    9     -0.54      0.00
    5    4   10      0.06      0.00
    5    4   11     -0.24      0.00
    5    4   12      0.80      0.00
    5    4   13      0.89      0.00
    5    4   14      0.42      0.00
    5    4   15     -0.19      0.00
   -5    5   15     -0.83      0.00
   -5    5   14      0.28      0.00
   -5    5   13     -1.53      0.00
   -5    5   12      1.06      0.00
   -5    5   11      0.25      0.00
   -5    5   10      0.27      0.00
   -5    5    9      0.08      0.00
   -5    5    8     -1.08      0.00
   -5    5    7      1.93      0.00
   -5    5    6      0.98      0.00
   -5    5    5      2.22      0.00
   -5    5    4      0.35      0.00
   -5    5    3     -3.76      0.00
   -5    5    2     -2.48      0.00
   -5    5    1      8.12      0.00
    5    5    0      5.78      0.00
    5    5    1      6.84      0.00
    5    5    2     -1.80      0.00
    5    5    3     -0.38      0.00
    5    5    4     -4.71      0.00
    5    5    5     -1.12      0.00
    5    5    6      1.76      0.00
    5    5    7     -0.25      0.00
    5    5    8      1.50      0.00
    5    5    9      0.70      0.00
    5    5   10      0.06      0.00
    5    5   11      0.22      0.00
    5    5   12     -0.84      0.00
    5    5   13     -0.80      0.00
    5    5   14     -0.01      0.00
    5    5   15     -0.03      0.00
   -5    6   14     -0.27      0.00
   -5    6   13      1.44      0.00
   -5    6   12     -1.09      0.00
   -5    6   11     -0.02      0.00
   -5    6   10      0.31      0.00
   -5    6    9     -0.21      0.00
   -5    6    8      0.54      0.00
   -5    6    7     -1.49      0.00
   -5    6    6     -1.38      0.00
   -5    6    5     -1.94      0.00
   -5    6    4      0.56      0.00
   -5    6    3      3.64      0.00
   -5    6    2     -0.70      0.00
   -5    6    1     -7.99      0.00
    5    6    0     -2.78      0.00
    5    6    1     -5.73      0.00
    5    6    2     -0.02      0.00
    5    6    3     -0.26      0.00
    5    6    4      4.19      0.00
    5    6    5      1.25      0.00
    5    6    6     -0.85      0.00
    5    6    7      0.21      0.00
    5    6    8     -1.53      0.00
    5    6    9     -0.83      0.00
    5    6   10     -0.26      0.00
    5    6   11     -0.12      0.00
    5    6   12      0.79      0.00
    5    6   13      0.66      0.00
    5    6   14     -0.25      0.00
    5    6   15      0.12      0.00
   -5    7   14      0.51      0.00
   -5    7   13     -1.33      0.00
   -5    7   12      0.90      0.00
   -5    7   11     -0.37      0.00
   -5    7   10     -0.52      0.00
   -5    7    9      0.40      0.00
   -5    7    8     -0.30      0.00
   -5    7    7      1.20      0.00
   -5    7    6      1.78      0.00
   -5    7    5      1.19      0.00
   -5    7    4     -1.39      0.00
   -5    7    3     -2.84      0.00
   -5    7    2      2.90      0.00
   -5    7    1      6.82      0.00
    5    7    0      0.66      0.00
    5    7    1      4.12      0.00
    5    7    2      1.02      0.00
    5    7    3      0.77      0.00
    5    7    4     -3.53      0.00
    5    7    5     -0.95      0.00
    5    7    6      0.24      0.00
    5    7    7     -0.45      0.00
    5    7    8      1.51      0.00
    5    7    9      0.87      0.00
    5    7   10      0.41      0.00
    5    7   11     -0.03      0.00
    5    7   12     -0.63      0.00
    5    7   13     -0.40      0.00
    5    7   14      0.28      0.00
    5    7   15     -0.12      0.00
   -5    8   14     -0.64      0.00
   -5    8   13      1.27      0.00
   -5    8   12     -0.70      0.00
   -5    8   11      0.65      0.00
   -5    8   10      0.42      0.00
   -5    8    9     -0.35      0.00
   -5    8    8      0.21      0.00
   -5    8    7     -1.19      0.00
   -5    8    6     -1.92      0.00
   -5    8    5     -0.21      0.00
   -5    8    4      1.99      0.00
   -5    8    3      1.69      0.00
   -5    8    2     -3.89      0.00
   -5    8    1     -5.31      0.00
    5    8    0      0.57      0.00
    5    8    1     -2.62      0.00
    5    8    2     -1.46      0.00
    5    8    3     -1.08      0.00
    5    8    4      2.95      0.00
    5    8    5      0.58      0.00
    5    8    6     -0.07      0.00
    5    8    7      0.77      0.00
    5    8    8     -1.46      0.00
    5    8    9     -0.93      0.00
    5    8   10     -0.42      0.00
    5    8   11      0.21      0.00
    5    8   12      0.48      0.00
    5    8   13      0.02      0.00
    5    8   14     -0.16      0.00
    5    8   15      0.07      0.00
   -5    9   14      0.49      0.00
   -5    9   13     -1.07      0.00
   -5    9   12      0.59      0.00
   -5    9   11     -0.80      0.00
   -5    9   10     -0.15      0.00
   -5    9    9      0.12      0.00
   -5    9    8     -0.02      0.00
   -5    9    7      1.33      0.00
   -5    9    6      1.66      0.00
   -5    9    5     -0.72      0.00
   -5    9    4     -2.16      0.00
   -5    9    3     -0.44      0.00
   -5    9    2      3.66      0.00
   -5    9    1      3.70      0.00
    5    9    0     -1.12      0.00
    5    9    1      1.27      0.00
    5    9    2      1.66      0.00
    5    9    3      1.38      0.00
    5    9    4     -2.55      0.00
    5    9    5     -0.42      0.00
    5    9    6      0.21      0.00
    5    9    7     -1.08      0.00
    5    9    8      1.29      0.00
    5    9    9      1.10      0.00
    5    9   10      0.37      0.00
    5    9   11     -0.37      0.00
    5    9   12     -0.41      0.00
    5    9   13      0.39      0.00
    5    9   14      0.02      0.00
   -5   10   13      0.72      0.00
   -5   10   12     -0.43      0.00
   -5   10   11      0.80      0.00
   -5   10   10     -0.22      0.00
   -5   10    9      0.12      0.00
   -5   10    8     -0.28      0.00
   -5   10    7     -1.36      0.00
   -5   10    6     -1.09      0.00
   -5   10    5      1.22      0.00
   -5   10    4      1.87      0.00
   -5   10    3     -0.50      0.00
   -5   10    2     -2.41      0.00
   -5   10    1     -2.25      0.00
    5   10    0      1.03      0.00
    5   10    1      0.01      0.00
    5   10    2     -1.59      0.00
    5   10    3     -1.89      0.00
    5   10    4      2.20      0.00
    5   10    5      0.56      0.00
    5   10    6     -0.46      0.00
    5   10    7      1.25      0.00
    5   10    8     -0.88      0.00
    5   10    9     -1.24      0.00
    5   10   10     -0.37      0.00
    5   10   11      0.49      0.00
    5   10   12      0.43      0.00
    5   10   13     -0.72      0.00
    5   10   14      0.08      0.00
   -5   11   13     -0.47      0.00
   -5   11   12      0.29      0.00
   -5   11   11     -0.53      0.00
   -5   11   10      0.62      0.00
   -5   11    9     -0.27      0.00
   -5   11    8      0.51      0.00
   -5   11    7      1.23      0.00
   -5   11    6      0.52      0.00
   -5   11    5     -1.22      0.00
   -5   11    4     -1.38      0.00
   -5   11    3      0.81      0.00
   -5   11    2      0.77      0.00
   -5   11    1      1.30      0.00
    5   11    0     -0.44      0.00
    5   11    1     -1.00      0.00
    5   11    2      1.12      0.00
    5   11    3      2.54      0.00
    5   11    4     -1.69      0.00
    5   11    5     -0.91      0.00
    5   11    6      0.57      0.00
    5   11    7     -1.16      0.00
    5   11    8      0.38      0.00
    5   11    9      1.15      0.00
    5   11   10      0.44      0.00
    5   11   11     -0.56      0.00
    5   11   12     -0.60      0.00
    5   11   13      0.92      0.00
   -5   12   12     -0.42      0.00
   -5   12   11      0.19      0.00
   -5   12   10     -0.91      0.00
   -5   12    9      0.29      0.00
   -5   12    8     -0.56      0.00
   -5   12    7     -1.13      0.00
   -5   12    6     -0.12      0.00
   -5   12    5      1.05      0.00
   -5   12    4      0.97      0.00
   -5   12    3     -0.67      0.00
   -5   12    2      0.50      0.00
   -5   12    1     -0.91      0.00
    5   12    0     -0.20      0.00
    5   12    1      1.43      0.00
    5   12    2     -0.37      0.00
    5   12    3     -2.99      0.00
    5   12    4      0.97      0.00
    5   12    5      1.22      0.00
    5   12    6     -0.42      0.00
    5   12    7      0.95      0.00
    5   12    8     -0.06      0.00
    5   12    9     -0.80      0.00
    5   12   10     -0.56      0.00
    5   12   11      0.49      0.00
    5   12   12      0.94      0.00
    5   12   13     -0.89      0.00
   -5   13   12      0.75      0.00
   -5   13   11     -0.13      0.00
   -5   13   10      1.21      0.00
   -5   13    9     -0.20      0.00
   -5   13    8      0.44      0.00
   -5   13    7      1.14      0.00
   -5   13    6     -0.26      0.00
   -5   13    5     -0.97      0.00
   -5   13    4     -0.59      0.00
   -5   13    3      0.43      0.00
   -5   13    2     -1.10      0.00
   -5   13    1      0.82      0.00
    5   13    0      0.52      0.00
    5   13    1     -1.31      0.00
    5   13    2     -0.28      0.00
    5   13    3      3.04      0.00
    5   13    4     -0.24      0.00
    5   13    5     -1.33      0.00
    5   13    6      0.21      0.00
    5   13    7     -0.76      0.00
    5   13    8     -0.04      0.00
    5   13    9      0.36      0.00
    5   13   10      0.61      0.00
    5   13   11     -0.21      0.00
    5   13   12     -1.24      0.00
   -5   14   11      0.30      0.00
   -5   14   10     -1.67      0.00
   -5   14    9      0.18      0.00
   -5   14    8     -0.25      0.00
   -5   14    7     -1.13      0.00
   -5   14    6      0.69      0.00
   -5   14    5      0.92      0.00
   -5   14    4      0.19      0.00
   -5   14    3     -0.21      0.00
   -5   14    2      1.12      0.00
   -5   14    1     -0.81      0.00
    5   14    0     -0.48      0.00
    5   14    1      0.97      0.00
    5   14    2      0.56      0.00
    5   14    3     -2.78      0.00
    5   14    4     -0.33      0.00
    5   14    5      1.30      0.00
    5   14    6     -0.10      0.00
    5   14    7      0.58      0.00
    5   14    8      0.02      0.00
    5   14    9      0.00      0.00
    5   14   10     -0.45      0.00
    5   14   11     -0.16      0.00
    5   14   12      1.24      0.00
   -5   15   11     -0.33      0.00
   -5   15   10      2.09      0.00
   -5   15    9     -0.39      0.00
   -5   15    8      0.13      0.00
   -5   15    7      0.92      0.00
   -5   15    6     -1.02      0.00
   -5   15    5     -0.82      0.00
   -5   15    4      0.08      0.00
   -5   15    3      0.09      0.00
   -5   15    2     -0.73      0.00
   -5   15    1      0.74      0.00
    5   15    0      0.23      0.00
    5   15    1     -0.72      0.00
    5   15    2     -0.48      0.00
    5   15    3      2.36      0.00
    5   15    4      0.71      0.00
    5   15    5     -1.18      0.00
    5   15    6      0.02      0.00
    5   15    7     -0.35      0.00
    5   15    8      0.08      0.00
    5   15    9     -0.10      0.00
    5   15   10      0.10      0.00
    5   15   11      0.31      0.00
   -5   16   10     -2.05      0.00
   -5   16    9      0.65      0.00
   -5   16    8     -0.15      0.00
   -5   16    7     -0.47      0.00
   -5   16    6      1.08      0.00
   -5   16    5      0.76      0.00
   -5   16    4     -0.16      0.00
   -5   16    3     -0.17      0.00
   -5   16    2      0.27      0.00
   -5   16    1     -0.57      0.00
    5   16    0     -0.11      0.00
    5   16    1      0.68      0.00
    5   16    2      0.25      0.00
    5   16    3     -1.90      0.00
    5   16    4     -0.88      0.00
    5   16    5      0.88      0.00
    5   16    6      0.10      0.00
    5   16    7      0.22      0.00
    5   16    8     -0.17      0.00
    5   16    9     -0.11      0.00
    5   16   10      0.18      0.00
   -5   17    9     -0.63      0.00
   -5   17    8      0.21      0.00
   -5   17    7     -0.14      0.00
   -5   17    6     -0.87      0.00
   -5   17    5     -0.78      0.00
   -5   17    4      0.21      0.00
   -5   17    3      0.33      0.00
   -5   17    2     -0.08      0.00
   -5   17    1      0.47      0.00
    5   17    0      0.26      0.00
    5   17    1     -0.65      0.00
    5   17    2     -0.08      0.00
    5   17    3      1.48      0.00
    5   17    4      0.78      0.00
    5   17    5     -0.44      0.00
    5   17    6     -0.11      0.00
    5   17    7     -0.22      0.00
    5   17    8      0.10      0.00
    5   17    9      0.41      0.00
   -5   18    8     -0.13      0.00
   -5   18    7      0.67      0.00
   -5   18    6      0.49      0.00
   -5   18    5      0.77      0.00
   -5   18    4     -0.28      0.00
   -5   18    3     -0.29      0.00
   -5   18    2      0.12      0.00
   -5   18    1     -0.65      0.00
    5   18    0     -0.48      0.00
    5   18    1      0.41      0.00
    5   18    2      0.03      0.00
    5   18    3     -1.16      0.00
    5   18    4     -0.52      0.00
    5   18    5      0.10      0.00
    5   18    6      0.00      0.00
    5   18    7      0.18      0.00
    5   18    8      0.08      0.00
   -5   19    6     -0.12      0.00
   -5   19    5     -0.72      0.00
   -5   19    4      0.25      0.00
   -5   19    3      0.04      0.00
   -5   19    2     -0.10      0.00
   -5   19    1      0.98      0.00
    5   19    0      0.41      0.00
    5   19    1      0.02      0.00
    5   19    2      0.01      0.00
    5   19    3      0.87      0.00
    5   19    4      0.37      0.00
    5   19    5      0.06      0.00
    5   19    6      0.04      0.00
   -5   20    4     -0.15      0.00
   -5   20    3      0.19      0.00
   -5   20    2     -0.03      0.00
   -5   20    1     -1.08      0.00
    5   20    0     -0.02      0.00
    5   20    1     -0.34      0.00
    5   20    2     -0.13      0.00
    5   20    3     -0.51      0.00
    5   20    4     -0.33      0.00
   -5   21    1      0.83      0.00
    5   21    0     -0.35      0.00
    5   21    1      0.30      0.00
   -6    0   14      1.02      0.00
   -6    0   12      0.35      0.00
   -6    0   10     -1.14      0.00
   -6    0    8     -1.11      0.00
   -6    0    6      0.02      0.00
   -6    0    4     -0.91      0.00
   -6    0    2     -0.14      0.00
    6    0    0      4.00      0.00
    6    0    2     -9.29      0.00
    6    0    4      2.77      0.00
    6    0    6     -1.31      0.00
    6    0    8      0.90      0.00
    6    0   10     -0.24      0.00
    6    0   12     -0.79      0.00
    6    0   14      0.17      0.00
   -6    1   15     -0.07      0.00
   -6    1   14     -0.90      0.00
   -6    1   13     -0.20      0.00
   -6    1   12     -0.25      0.00
   -6    1   11      0.11      0.00
   -6    1   10      1.05      0.00
   -6    1    9     -0.58      0.00
   -6    1    8      1.04      0.00
   -6    1    7     -0.38      0.00
   -6    1    6      0.00      0.00
   -6    1    5      0.48      0.00
   -6    1    4      0.53      0.00
   -6    1    3     -0.69      0.00
   -6    1    2      0.58      0.00
   -6    1    1     -0.14      0.00
    6    1    0     -3.86      0.00
    6    1    1     -2.65      0.00
    6    1    2      8.72      0.00
    6    1    3      1.15      0.00
    6    1    4     -2.33      0.00
    6    1    5     -0.66      0.00
    6    1    6      0.97      0.00
    6    1    7      0.39      0.00
    6    1    8     -0.90      0.00
    6    1    9      0.16      0.00
    6    1   10      0.28      0.00
    6    1   11     -0.22      0.00
    6    1   12      0.65      0.00
    6    1   13      0.63      0.00
    6    1   14     -0.05      0.00
    6    1   15     -0.51      0.00
   -6    2   15     -0.10      0.00
   -6    2   14      0.65      0.00
   -6    2   13      0.34      0.00
   -6    2   12     -0.05      0.00
   -6    2   11      0.00      0.00
   -6    2   10     -0.85      0.00
   -6    2    9      0.97      0.00
   -6    2    8     -0.78      0.00
   -6    2    7      0.73      0.00
   -6    2    6     -0.10      0.00
   -6    2    5     -0.68      0.00
   -6    2    4      0.36      0.00
   -6    2    3      0.53      0.00
   -6    2    2     -1.49      0.00
   -6    2    1      0.83      0.00
    6    2    0      3.44      0.00
    6    2    1      4.63      0.00
    6    2    2     -7.24      0.00
    6    2    3     -1.84      0.00
    6    2    4      1.13      0.00
    6    2    5      0.91      0.00
    6    2    6      0.00      0.00
    6    2    7     -0.66      0.00
    6    2    8      0.86      0.00
    6    2    9     -0.21      0.00
    6    2   10     -0.40      0.00
    6    2   11      0.37      0.00
    6    2   12     -0.30      0.00
    6    2   13     -1.03      0.00
    6    2   14     -0.24      0.00
    6    2   15      0.85      0.00
   -6    3   15      0.47      0.00
   -6    3   14     -0.37      0.00
   -6    3   13     -0.28      0.00
   -6    3   12      0.31      0.00
   -6    3   11     -0.44      0.00
   -6    3   10      0.74      0.00
   -6    3    9     -1.14      0.00
   -6    3    8      0.29      0.00
   -6    3    7     -0.82      0.00
   -6    3    6      0.25      0.00
   -6    3    5      0.42      0.00
   -6    3    4     -1.10      0.00
   -6    3    3      0.64      0.00
   -6    3    2      1.88      0.00
   -6    3    1     -2.23      0.00
    6    3    0     -2.70      0.00
    6    3    1     -5.67      0.00
    6    3    2      5.39      0.00
    6    3    3      1.72      0.00
    6    3    4      0.36      0.00
    6    3    5     -0.36      0.00
    6    3    6     -1.20      0.00
    6    3    7      0.62      0.00
    6    3    8     -0.76      0.00
    6    3    9      0.13      0.00
    6    3   10      0.49      0.00
    6    3   11     -0.43      0.00
    6    3   12     -0.02      0.00
    6    3   13      1.07      0.00
    6    3   14      0.53      0.00
    6    3   15     -0.90      0.00
   -6    4   15     -0.96      0.00
   -6    4   14     -0.04      0.00
   -6    4   13      0.09      0.00
   -6    4   12     -0.20      0.00
   -6    4   11      1.00      0.00
   -6    4   10     -0.92      0.00
   -6    4    9      1.27      0.00
   -6    4    8      0.24      0.00
   -6    4    7      0.48      0.00
   -6    4    6     -0.18      0.00
   -6    4    5      0.11      0.00
   -6    4    4      1.14      0.00
   -6    4    3     -2.02      0.00
   -6    4    2     -1.05      0.00
   -6    4    1      3.74      0.00
    6    4    0      1.49      0.00
    6    4    1      5.78      0.00
    6    4    2     -3.69      0.00
    6    4    3     -0.93      0.00
    6    4    4     -1.31      0.00
    6    4    5     -0.84      0.00
    6    4    6      1.91      0.00
    6    4    7     -0.26      0.00
    6    4    8      0.66      0.00
    6    4    9      0.03      0.00
    6    4   10     -0.47      0.00
    6    4   11      0.48      0.00
    6    4   12      0.14      0.00
    6    4   13     -0.89      0.00
    6    4   14     -0.61      0.00
    6    4   15      0.67      0.00
   -6    5   14      0.51      0.00
   -6    5   13     -0.11      0.00
   -6    5   12     -0.26      0.00
   -6    5   11     -1.20      0.00
   -6    5   10      1.25      0.00
   -6    5    9     -1.50      0.00
   -6    5    8     -0.50      0.00
   -6    5    7      0.14      0.00
   -6    5    6     -0.25      0.00
   -6    5    5     -0.47      0.00
   -6    5    4     -0.60      0.00
   -6    5    3      2.61      0.00
   -6    5    2     -0.65      0.00
   -6    5    1     -4.46      0.00
    6    5    0     -0.06      0.00
    6    5    1     -5.07      0.00
    6    5    2      2.49      0.00
    6    5    3      0.09      0.00
    6    5    4      1.31      0.00
    6    5    5      1.85      0.00
    6    5    6     -1.83      0.00
    6    5    7     -0.13      0.00
    6    5    8     -0.60      0.00
    6    5    9     -0.18      0.00
    6    5   10      0.34      0.00
    6    5   11     -0.62      0.00
    6    5   12     -0.05      0.00
    6    5   13      0.75      0.00
    6    5   14      0.45      0.00
    6    5   15     -0.30      0.00
   -6    6   14     -0.72      0.00
   -6    6   13      0.46      0.00
   -6    6   12      0.64      0.00
   -6    6   11      0.90      0.00
   -6    6   10     -1.38      0.00
   -6    6    9      1.76      0.00
   -6    6    8      0.35      0.00
   -6    6    7     -0.64      0.00
   -6    6    6      0.90      0.00
   -6    6    5      0.46      0.00
   -6    6    4     -0.03      0.00
   -6    6    3     -2.23      0.00
   -6    6    2      2.17      0.00
   -6    6    1      4.22      0.00
    6    6    0     -0.96      0.00
    6    6    1      3.93      0.00
    6    6    2     -1.81      0.00
    6    6    3      0.25      0.00
    6    6    4     -0.78      0.00
    6    6    5     -2.04      0.00
    6    6    6      1.29      0.00
    6    6    7      0.37      0.00
    6    6    8      0.57      0.00
    6    6    9      0.25      0.00
    6    6   10     -0.15      0.00
    6    6   11      0.84      0.00
    6    6   12     -0.03      0.00
    6    6   13     -0.75      0.00
    6    6   14     -0.20      0.00
    6    6   15     -0.03      0.00
   -6    7   14      0.51      0.00
   -6    7   13     -0.80      0.00
   -6    7   12     -0.67      0.00
   -6    7   11     -0.44      0.00
   -6    7   10      1.15      0.00
   -6    7    9     -1.79      0.00
   -6    7    8      0.03      0.00
   -6    7    7      0.75      0.00
   -6    7    6     -1.44      0.00
   -6    7    5     -0.13      0.00
   -6    7    4      0.57      0.00
   -6    7    3      1.41      0.00
   -6    7    2     -3.01      0.00
   -6    7    1     -3.60      0.00
    6    7    0      1.33      0.00
    6    7    1     -2.91      0.00
    6    7    2      1.41      0.00
    6    7    3     -0.07      0.00
    6    7    4      0.37      0.00
    6    7    5      1.61      0.00
    6    7    6     -0.74      0.00
    6    7    7     -0.46      0.00
    6    7    8     -0.62      0.00
    6    7    9     -0.27      0.00
    6    7   10      0.01      0.00
    6    7   11     -1.02      0.00
    6    7   12     -0.04      0.00
    6    7   13      0.80      0.00
    6    7   14      0.05      0.00
    6    7   15      0.24      0.00
   -6    8   14     -0.11      0.00
   -6    8   13      0.89      0.00
   -6    8   12      0.51      0.00
   -6    8   11      0.16      0.00
   -6    8   10     -0.75      0.00
   -6    8    9      1.48      0.00
   -6    8    8     -0.31      0.00
   -6    8    7     -0.49      0.00
   -6    8    6      1.58      0.00
   -6    8    5     -0.42      0.00
   -6    8    4     -1.05      0.00
   -6    8    3     -0.43      0.00
   -6    8    2      3.35      0.00
   -6    8    1      3.00      0.00
    6    8    0     -1.38      0.00
    6    8    1      2.28      0.00
    6    8    2     -0.98      0.00
    6    8    3     -0.26      0.00
    6    8    4     -0.32      0.00
    6    8    5     -1.08      0.00
    6    8    6      0.33      0.00
    6    8    7      0.38      0.00
    6    8    8      0.73      0.00
    6    8    9      0.34      0.00
    6    8   10      0.06      0.00
    6    8   11      1.02      0.00
    6    8   12      0.24      0.00
    6    8   13     -0.68      0.00
    6    8   14     -0.04      0.00
   -6    9   13     -0.77      0.00
   -6    9   12     -0.32      0.00
   -6    9   11     -0.11      0.00
   -6    9   10      0.43      0.00
   -6    9    9     -1.01      0.00
   -6    9    8      0.32      0.00
   -6    9    7      0.15      0.00
   -6    9    6     -1.21      0.00
   -6    9    5      0.98      0.00
   -6    9    4      1.25      0.00
   -6    9    3     -0.68      0.00
   -6    9    2     -3.20      0.00
   -6    9    1     -2.30      0.00
    6    9    0      1.33      0.00
    6    9    1     -1.84      0.00
    6    9    2      0.42      0.00
    6    9    3      0.37      0.00
    6    9    4      0.46      0.00
    6    9    5      0.79      0.00
    6    9    6     -0.08      0.00
    6    9    7     -0.11      0.00
    6    9    8     -0.73      0.00
    6    9    9     -0.52      0.00
    6    9   10     -0.06      0.00
    6    9   11     -0.85      0.00
    6    9   12     -0.41      0.00
    6    9   13      0.34      0.00
    6    9   14      0.08      0.00
   -6   10   13      0.46      0.00
   -6   10   12      0.14      0.00
   -6   10   11      0.23      0.00
   -6   10   10     -0.22      0.00
   -6   10    9      0.64      0.00
   -6   10    8     -0.22      0.00
   -6   10    7      0.01      0.00
   -6   10    6      0.57      0.00
   -6   10    5     -1.24      0.00
   -6   10    4     -0.98      0.00
   -6   10    3      1.56      0.00
   -6   10    2      2.37      0.00
   -6   10    1      1.57      0.00
    6   10    0     -1.06      0.00
    6   10    1      1.36      0.00
    6   10    2      0.12      0.00
    6   10    3     -0.10      0.00
    6   10    4     -0.59      0.00
    6   10    5     -0.81      0.00
    6   10    6     -0.04      0.00
    6   10    7     -0.16      0.00
    6   10    8      0.49      0.00
    6   10    9      0.71      0.00
    6   10   10     -0.02      0.00
    6   10   11      0.54      0.00
    6   10   12      0.44      0.00
    6   10   13      0.09      0.00
    6   10   14     -0.05      0.00
   -6   11   13      0.09      0.00
   -6   11   12     -0.12      0.00
   -6   11   11     -0.45      0.00
   -6   11   10      0.10      0.00
   -6   11    9     -0.48      0.00
   -6   11    8      0.24      0.00
   -6   11    7     -0.03      0.00
   -6   11    6     -0.08      0.00
   -6   11    5      1.11      0.00
   -6   11    4      0.42      0.00
   -6   11    3     -1.77      0.00
   -6   11    2     -1.13      0.00
   -6   11    1     -1.19      0.00
    6   11    0      0.54      0.00
    6   11    1     -0.93      0.00
    6   11    2     -0.40      0.00
    6   11    3     -0.42      0.00
    6   11    4      0.52      0.00
    6   11    5      1.03      0.00
    6   11    6      0.16      0.00
    6   11    7      0.27      0.00
    6   11    8     -0.15      0.00
    6   11    9     -0.83      0.00
    6   11   10      0.13      0.00
    6   11   11     -0.17      0.00
    6   11   12     -0.26      0.00
    6   11   13     -0.38      0.00
   -6   12   12      0.43      0.00
   -6   12   11      0.52      0.00
   -6   12   10      0.01      0.00
   -6   12    9      0.55      0.00
   -6   12    8     -0.44      0.00
   -6   12    7      0.08      0.00
   -6   12    6     -0.13      0.00
   -6   12    5     -0.84      0.00
   -6   12    4      0.07      0.00
   -6   12    3      1.43      0.00
   -6   12    2      0.13      0.00
   -6   12    1      1.20      0.00
    6   12    0     -0.07      0.00
    6   12    1      0.70      0.00
    6   12    2      0.38      0.00
    6   12    3      0.91      0.00
    6   12    4     -0.25      0.00
    6   12    5     -1.15      0.00
    6   12    6     -0.35      0.00
    6   12    7     -0.29      0.00
    6   12    8     -0.13      0.00
    6   12    9      0.80      0.00
    6   12   10     -0.12      0.00
    6   12   11     -0.08      0.00
    6   12   12     -0.02      0.00
    6   12   13      0.37      0.00
   -6   13   12     -0.87      0.00
   -6   13   11     -0.22      0.00
   -6   13   10     -0.31      0.00
   -6   13    9     -0.76      0.00
   -6   13    8      0.75      0.00
   -6   13    7     -0.16      0.00
   -6   13    6      0.23      0.00
   -6   13    5      0.65      0.00
   -6   13    4     -0.42      0.00
   -6   13    3     -1.01      0.00
   -6   13    2      0.29      0.00
   -6   13    1     -1.25      0.00
    6   13    0     -0.11      0.00
    6   13    1     -0.65      0.00
    6   13    2     -0.21      0.00
    6   13    3     -1.14      0.00
    6   13    4     -0.05      0.00
    6   13    5      1.06      0.00
    6   13    6      0.47      0.00
    6   13    7      0.28      0.00
    6   13    8      0.28      0.00
    6   13    9     -0.54      0.00
    6   13   10      0.06      0.00
    6   13   11      0.03      0.00
    6   13   12      0.19      0.00
   -6   14   11     -0.22      0.00
   -6   14   10      0.88      0.00
   -6   14    9      0.87      0.00
   -6   14    8     -1.07      0.00
   -6   14    7      0.12      0.00
   -6   14    6     -0.25      0.00
   -6   14    5     -0.51      0.00
   -6   14    4      0.66      0.00
   -6   14    3      0.78      0.00
   -6   14    2     -0.30      0.00
   -6   14    1      1.04      0.00
    6   14    0      0.07      0.00
    6   14    1      0.66      0.00
    6   14    2      0.00      0.00
    6   14    3      1.10      0.00
    6   14    4      0.28      0.00
    6   14    5     -0.88      0.00
    6   14    6     -0.46      0.00
    6   14    7     -0.21      0.00
    6   14    8     -0.22      0.00
    6   14    9      0.13      0.00
    6   14   10     -0.18      0.00
    6   14   11      0.16      0.00
    6   14   12     -0.12      0.00
   -6   15   10     -1.39      0.00
   -6   15    9     -0.69      0.00
   -6   15    8      1.29      0.00
   -6   15    7      0.02      0.00
   -6   15    6      0.10      0.00
   -6   15    5      0.44      0.00
   -6   15    4     -0.71      0.00
   -6   15    3     -0.80      0.00
   -6   15    2      0.13      0.00
   -6   15    1     -0.63      0.00
    6   15    0      0.01      0.00
    6   15    1     -0.70      0.00
    6   15    2      0.15      0.00
    6   15    3     -0.81      0.00
    6   15    4     -0.51      0.00
    6   15    5      0.72      0.00
    6   15    6      0.47      0.00
    6   15    7      0.11      0.00
    6   15    8     -0.06      0.00
    6   15    9      0.10      0.00
    6   15   10      0.46      0.00
    6   15   11     -0.17      0.00
   -6   16   10      1.43      0.00
   -6   16    9      0.31      0.00
   -6   16    8     -1.28      0.00
   -6   16    7     -0.11      0.00
   -6   16    6      0.11      0.00
   -6   16    5     -0.59      0.00
   -6   16    4      0.68      0.00
   -6   16    3      1.04      0.00
   -6   16    2      0.01      0.00
   -6   16    1      0.18      0.00
    6   16    0     -0.03      0.00
    6   16    1      0.76      0.00
    6   16    2     -0.15      0.00
    6   16    3      0.31      0.00
    6   16    4      0.68      0.00
    6   16    5     -0.44      0.00
    6   16    6     -0.55      0.00
    6   16    7     -0.17      0.00
    6   16    8      0.30      0.00
    6   16    9      0.04      0.00
    6   16   10     -0.59      0.00
   -6   17    9     -0.02      0.00
   -6   17    8      1.04      0.00
   -6   17    7      0.14      0.00
   -6   17    6     -0.12      0.00
   -6   17    5      0.83      0.00
   -6   17    4     -0.81      0.00
   -6   17    3     -1.27      0.00
   -6   17    2      0.06      0.00
   -6   17    1      0.11      0.00
    6   17    0     -0.04      0.00
    6   17    1     -0.83      0.00
    6   17    2     -0.10      0.00
    6   17    3      0.13      0.00
    6   17    4     -0.54      0.00
    6   17    5      0.08      0.00
    6   17    6      0.49      0.00
    6   17    7      0.34      0.00
    6   17    8     -0.21      0.00
    6   17    9     -0.28      0.00
   -6   18    7     -0.15      0.00
   -6   18    6     -0.07      0.00
   -6   18    5     -0.79      0.00
   -6   18    4      1.06      0.00
   -6   18    3      1.14      0.00
   -6   18    2     -0.26      0.00
   -6   18    1     -0.08      0.00
    6   18    0      0.11      0.00
    6   18    1      0.87      0.00
    6   18    2      0.45      0.00
    6   18    3     -0.19      0.00
    6   18    4      0.17      0.00
    6   18    5      0.09      0.00
    6   18    6     -0.29      0.00
    6   18    7     -0.35      0.00
   -6   19    6      0.24      0.00
   -6   19    5      0.44      0.00
   -6   19    4     -1.10      0.00
   -6   19    3     -0.69      0.00
   -6   19    2      0.32      0.00
   -6   19    1     -0.14      0.00
    6   19    0     -0.05      0.00
    6   19    1     -0.86      0.00
    6   19    2     -0.65      0.00
    6   19    3     -0.11      0.00
    6   19    4      0.06      0.00
    6   19    5     -0.02      0.00
    6   19    6      0.18      0.00
   -6   20    4      0.84      0.00
   -6   20    3      0.27      0.00
   -6   20    2     -0.18      0.00
   -6   20    1      0.25      0.00
    6   20    0     -0.16      0.00
    6   20    1      0.78      0.00
    6   20    2      0.62      0.00
    6   20    3      0.42      0.00
    6   20    4      0.00      0.00
   -7    0   14      1.35      0.00
   -7    0   12      0.35      0.00
   -7    0   10      0.12      0.00
   -7    0    8     -0.70      0.00
   -7    0    6      0.79      0.00
   -7    0    4      1.25      0.00
   -7    0    2     -4.10      0.00
    7    0    0      1.68      0.00
    7    0    2      1.20      0.00
    7    0    4     -1.05      0.00
    7    0    6      2.25      0.00
    7    0    8      0.39      0.00
    7    0   10     -0.50      0.00
    7    0   12      0.27      0.00
    7    0   14      0.20      0.00
   -7    1   15      0.06      0.00
   -7    1   14     -1.33      0.00
   -7    1   13      0.68      0.00
   -7    1   12     -0.45      0.00
   -7    1   11      0.08      0.00
   -7    1   10     -0.22      0.00
   -7    1    9     -0.20      0.00
   -7    1    8      0.84      0.00
   -7    1    7     -0.10      0.00
   -7    1    6     -0.87      0.00
   -7    1    5     -0.64      0.00
   -7    1    4     -0.89      0.00
   -7    1    3      1.10      0.00
   -7    1    2      3.77      0.00
   -7    1    1     -0.79      0.00
    7    1    0     -1.91      0.00
    7    1    1      1.12      0.00
    7    1    2     -1.12      0.00
    7    1    3     -0.23      0.00
    7    1    4      0.95      0.00
    7    1    5      0.15      0.00
    7    1    6     -2.13      0.00
    7    1    7      0.15      0.00
    7    1    8     -0.30      0.00
    7    1    9     -0.20      0.00
    7    1   10      0.45      0.00
    7    1   11     -0.03      0.00
    7    1   12     -0.18      0.00
    7    1   13      0.25      0.00
    7    1   14     -0.18      0.00
   -7    2   15      0.03      0.00
   -7    2   14      1.18      0.00
   -7    2   13     -1.26      0.00
   -7    2   12      0.77      0.00
   -7    2   11     -0.07      0.00
   -7    2   10      0.41      0.00
   -7    2    9      0.15      0.00
   -7    2    8     -1.20      0.00
   -7    2    7      0.33      0.00
   -7    2    6      1.06      0.00
   -7    2    5      0.89      0.00
   -7    2    4      0.09      0.00
   -7    2    3     -1.60      0.00
   -7    2    2     -2.93      0.00
   -7    2    1      1.48      0.00
    7    2    0      2.41      0.00
    7    2    1     -1.82      0.00
    7    2    2      0.87      0.00
    7    2    3      0.39      0.00
    7    2    4     -0.58      0.00
    7    2    5     -0.23      0.00
    7    2    6      1.73      0.00
    7    2    7     -0.17      0.00
    7    2    8      0.09      0.00
    7    2    9      0.32      0.00
    7    2   10     -0.34      0.00
    7    2   11      0.08      0.00
    7    2   12     -0.05      0.00
    7    2   13     -0.38      0.00
    7    2   14      0.20      0.00
   -7    3   15     -0.13      0.00
   -7    3   14     -0.92      0.00
   -7    3   13      1.55      0.00
   -7    3   12     -1.16      0.00
   -7    3   11      0.05      0.00
   -7    3   10     -0.54      0.00
   -7    3    9      0.21      0.00
   -7    3    8      1.58      0.00
   -7    3    7     -0.80      0.00
   -7    3    6     -1.15      0.00
   -7    3    5     -0.64      0.00
   -7    3    4      0.49      0.00
   -7    3    3      1.36      0.00
   -7    3    2      2.09      0.00
   -7    3    1     -1.87      0.00
    7    3    0     -2.85      0.00
    7    3    1      1.88      0.00
    7    3    2     -0.58      0.00
    7    3    3     -0.22      0.00
    7    3    4      0.05      0.00
    7    3    5      0.00      0.00
    7    3    6     -1.07      0.00
    7    3    7      0.03      0.00
    7    3    8      0.11      0.00
    7    3    9     -0.33      0.00
    7    3   10      0.24      0.00
    7    3   11     -0.12      0.00
    7    3   12      0.32      0.00
    7    3   13      0.40      0.00
    7    3   14     -0.39      0.00
   -7    4   14      0.77      0.00
   -7    4   13     -1.52      0.00
   -7    4   12      1.33      0.00
   -7    4   11     -0.05      0.00
   -7    4   10      0.55      0.00
   -7    4    9     -0.73      0.00
   -7    4    8     -1.73      0.00
   -7    4    7      1.45      0.00
   -7    4    6      0.92      0.00
   -7    4    5      0.21      0.00
   -7    4    4     -0.48      0.00
   -7    4    3     -0.95      0.00
   -7    4    2     -1.68      0.00
   -7    4    1      2.00      0.00
    7    4    0      3.05      0.00
    7    4    1     -1.39      0.00
    7    4    2      0.59      0.00
    7    4    3     -0.35      0.00
    7    4    4      0.11      0.00
    7    4    5      0.53      0.00
    7    4    6      0.35      0.00
    7    4    7      0.15      0.00
    7    4    8     -0.15      0.00
    7    4    9      0.24      0.00
    7    4   10     -0.20      0.00
    7    4   11      0.08      0.00
    7    4   12     -0.51      0.00
    7    4   13     -0.37      0.00
    7    4   14      0.70      0.00
   -7    5   14     -0.84      0.00
   -7    5   13      1.44      0.00
   -7    5   12     -1.19      0.00
   -7    5   11      0.05      0.00
   -7    5   10     -0.47      0.00
   -7    5    9      1.18      0.00
   -7    5    8      1.55      0.00
   -7    5    7     -2.02      0.00
   -7    5    6     -0.46      0.00
   -7    5    5      0.03      0.00
   -7    5    4      0.20      0.00
   -7    5    3      0.96      0.00
   -7    5    2      1.51      0.00
   -7    5    1     -2.12      0.00
    7    5    0     -2.88      0.00
    7    5    1      0.66      0.00
    7    5    2     -1.07      0.00
    7    5    3      0.81      0.00
    7    5    4      0.35      0.00
    7    5    5     -0.99      0.00
    7    5    6      0.24      0.00
    7    5    7     -0.21      0.00
    7    5    8     -0.01      0.00
    7    5    9     -0.12      0.00
    7    5   10      0.23      0.00
    7    5   11      0.10      0.00
    7    5   12      0.56      0.00
    7    5   13      0.26      0.00
    7    5   14     -0.93      0.00
   -7    6   14      0.89      0.00
   -7    6   13     -1.43      0.00
   -7    6   12      0.91      0.00
   -7    6   11     -0.02      0.00
   -7    6   10      0.30      0.00
   -7    6    9     -1.34      0.00
   -7    6    8     -1.14      0.00
   -7    6    7      2.26      0.00
   -7    6    6      0.01      0.00
   -7    6    5     -0.15      0.00
   -7    6    4     -0.19      0.00
   -7    6    3     -1.24      0.00
   -7    6    2     -1.12      0.00
   -7    6    1      2.16      0.00
    7    6    0      2.23      0.00
    7    6    1     -0.08      0.00
    7    6    2      1.77      0.00
    7    6    3     -0.68      0.00
    7    6    4     -1.06      0.00
    7    6    5      1.08      0.00
    7    6    6     -0.61      0.00
    7    6    7     -0.02      0.00
    7    6    8      0.25      0.00
    7    6    9      0.07      0.00
    7    6   10     -0.27      0.00
    7    6   11     -0.37      0.00
    7    6   12     -0.57      0.00
    7    6   13     -0.04      0.00
    7    6   14      0.93      0.00
   -7    7   14     -0.77      0.00
   -7    7   13      1.38      0.00
   -7    7   12     -0.66      0.00
   -7    7   11      0.06      0.00
   -7    7   10     -0.13      0.00
   -7    7    9      1.16      0.00
   -7    7    8      0.75      0.00
   -7    7    7     -2.11      0.00
   -7    7    6      0.26      0.00
   -7    7    5      0.34      0.00
   -7    7    4      0.34      0.00
   -7    7    3      1.24      0.00
   -7    7    2      0.58      0.00
   -7    7    1     -1.79      0.00
    7    7    0     -1.29      0.00
    7    7    1     -0.07      0.00
    7    7    2     -2.25      0.00
    7    7    3      0.04      0.00
    7    7    4      1.50      0.00
    7    7    5     -0.85      0.00
    7    7    6      0.61      0.00
    7    7    7      0.44      0.00
    7    7    8     -0.33      0.00
    7    7    9     -0.07      0.00
    7    7   10      0.29      0.00
    7    7   11      0.60      0.00
    7    7   12      0.67      0.00
    7    7   13     -0.23      0.00
    7    7   14     -0.76      0.00
   -7    8   14      0.59      0.00
   -7    8   13     -1.22      0.00
   -7    8   12      0.43      0.00
   -7    8   11     -0.21      0.00
   -7    8   10      0.05      0.00
   -7    8    9     -0.77      0.00
   -7    8    8     -0.57      0.00
   -7    8    7      1.71      0.00
   -7    8    6     -0.28      0.00
   -7    8    5     -0.50      0.00
   -7    8    4     -0.27      0.00
   -7    8    3     -1.05      0.00
   -7    8    2     -0.39      0.00
   -7    8    1      1.05      0.00
    7    8    0      0.45      0.00
    7    8    1     -0.25      0.00
    7    8    2      2.30      0.00
    7    8    3      0.72      0.00
    7    8    4     -1.51      0.00
    7    8    5      0.41      0.00
    7    8    6     -0.26      0.00
    7    8    7     -0.69      0.00
    7    8    8      0.21      0.00
    7    8    9      0.06      0.00
    7    8   10     -0.28      0.00
    7    8   11     -0.63      0.00
    7    8   12     -0.85      0.00
    7    8   13      0.34      0.00
    7    8   14      0.51      0.00
   -7    9   13      1.04      0.00
   -7    9   12     -0.25      0.00
   -7    9   11      0.36      0.00
   -7    9   10     -0.06      0.00
   -7    9    9      0.42      0.00
   -7    9    8      0.53      0.00
   -7    9    7     -1.34      0.00
   -7    9    6      0.05      0.00
   -7    9    5      0.44      0.00
   -7    9    4      0.11      0.00
   -7    9    3      1.18      0.00
   -7    9    2      0.52      0.00
   -7    9    1     -0.38      0.00
    7    9    0      0.02      0.00
    7    9    1      0.86      0.00
    7    9    2     -1.93      0.00
    7    9    3     -1.33      0.00
    7    9    4      1.16      0.00
    7    9    5      0.08      0.00
    7    9    6     -0.11      0.00
    7    9    7      0.60      0.00
    7    9    8     -0.08      0.00
    7    9    9     -0.02      0.00
    7    9   10      0.23      0.00
    7    9   11      0.42      0.00
    7    9   12      0.96      0.00
    7    9   13     -0.18      0.00
   -7   10   13     -0.82      0.00
   -7   10   12      0.19      0.00
   -7   10   11     -0.49      0.00
   -7   10   10      0.09      0.00
   -7   10    9     -0.19      0.00
   -7   10    8     -0.42      0.00
   -7   10    7      1.17      0.00
   -7   10    6      0.25      0.00
   -7   10    5     -0.37      0.00
   -7   10    4     -0.26      0.00
   -7   10    3     -1.52      0.00
   -7   10    2     -0.46      0.00
   -7   10    1     -0.03      0.00
    7   10    0     -0.23      0.00
    7   10    1     -1.46      0.00
    7   10    2      1.26      0.00
    7   10    3      1.62      0.00
    7   10    4     -0.61      0.00
    7   10    5     -0.41      0.00
    7   10    6      0.24      0.00
    7   10    7     -0.36      0.00
    7   10    8      0.09      0.00
    7   10    9     -0.05      0.00
    7   10   10     -0.17      0.00
    7   10   11     -0.08      0.00
    7   10   12     -0.80      0.00
    7   10   13     -0.11      0.00
   -7   11   12     -0.15      0.00
   -7   11   11      0.57      0.00
   -7   11   10     -0.17      0.00
   -7   11    9      0.04      0.00
   -7   11    8      0.13      0.00
   -7   11    7     -1.07      0.00
   -7   11    6     -0.28      0.00
   -7   11    5      0.51      0.00
   -7   11    4      0.61      0.00
   -7   11    3      1.52      0.00
   -7   11    2      0.16      0.00
   -7   11    1      0.39      0.00
    7   11    0      0.26      0.00
    7   11    1      1.83      0.00
    7   11    2     -0.56      0.00
    7   11    3     -1.53      0.00
    7   11    4      0.13      0.00
    7   11    5      0.43      0.00
    7   11    6     -0.22      0.00
    7   11    7      0.21      0.00
    7   11    8     -0.20      0.00
    7   11    9      0.12      0.00
    7   11   10      0.11      0.00
    7   11   11     -0.14      0.00
    7   11   12      0.44      0.00
    7   11   13      0.25      0.00
   -7   12   12      0.00      0.00
   -7   12   11     -0.51      0.00
   -7   12   10      0.29      0.00
   -7   12    9      0.02      0.00
   -7   12    8      0.11      0.00
   -7   12    7      0.86      0.00
   -7   12    6      0.00      0.00
   -7   12    5     -0.73      0.00
   -7   12    4     -0.72      0.00
   -7   12    3     -1.13      0.00
   -7   12    2     -0.07      0.00
   -7   12    1     -0.68      0.00
    7   12    0     -0.11      0.00
    7   12    1     -1.85      0.00
    7   12    2      0.08      0.00
    7   12    3      1.23      0.00
    7   12    4      0.12      0.00
    7   12    5     -0.32      0.00
    7   12    6      0.21      0.00
    7   12    7     -0.16      0.00
    7   12    8      0.33      0.00
    7   12    9     -0.13      0.00
    7   12   10     -0.08      0.00
    7   12   11      0.09      0.00
    7   12   12     -0.18      0.00
   -7   13   11      0.25      0.00
   -7   13   10     -0.32      0.00
   -7   13    9      0.11      0.00
   -7   13    8     -0.06      0.00
   -7   13    7     -0.69      0.00
   -7   13    6      0.33      0.00
   -7   13    5      0.84      0.00
   -7   13    4      0.54      0.00
   -7   13    3      0.80      0.00
   -7   13    2      0.29      0.00
   -7   13    1      0.62      0.00
    7   13    0     -0.10      0.00
    7   13    1      1.58      0.00
    7   13    2      0.07      0.00
    7   13    3     -0.95      0.00
    7   13    4     -0.19      0.00
    7   13    5      0.28      0.00
    7   13    6     -0.18      0.00
    7   13    7      0.19      0.00
    7   13    8     -0.37      0.00
    7   13    9     -0.06      0.00
    7   13   10     -0.07      0.00
    7   13   11      0.15      0.00
    7   13   12      0.25      0.00
   -7   14   11     -0.01      0.00
   -7   14   10      0.16      0.00
   -7   14    9     -0.40      0.00
   -7   14    8     -0.14      0.00
   -7   14    7      0.80      0.00
   -7   14    6     -0.59      0.00
   -7   14    5     -0.88      0.00
   -7   14    4     -0.32      0.00
   -7   14    3     -0.74      0.00
   -7   14    2     -0.44      0.00
   -7   14    1     -0.16      0.00
    7   14    0      0.14      0.00
    7   14    1     -1.22      0.00
    7   14    2      0.05      0.00
    7   14    3      0.82      0.00
    7   14    4      0.23      0.00
    7   14    5     -0.27      0.00
    7   14    6      0.12      0.00
    7   14    7     -0.28      0.00
    7   14    8      0.14      0.00
    7   14    9      0.36      0.00
    7   14   10      0.44      0.00
    7   14   11     -0.29      0.00
   -7   15   10      0.07      0.00
   -7   15    9      0.69      0.00
   -7   15    8      0.23      0.00
   -7   15    7     -1.05      0.00
   -7   15    6      0.91      0.00
   -7   15    5      0.82      0.00
   -7   15    4      0.18      0.00
   -7   15    3      0.79      0.00
   -7   15    2      0.30      0.00
   -7   15    1     -0.34      0.00
    7   15    0      0.01      0.00
    7   15    1      1.03      0.00
    7   15    2     -0.26      0.00
    7   15    3     -0.90      0.00
    7   15    4     -0.23      0.00
    7   15    5      0.26      0.00
    7   15    6     -0.11      0.00
    7   15    7      0.27      0.00
    7   15    8      0.35      0.00
    7   15    9     -0.45      0.00
    7   15   10     -0.84      0.00
   -7   16    9     -0.84      0.00
   -7   16    8     -0.15      0.00
   -7   16    7      1.06      0.00
   -7   16    6     -1.15      0.00
   -7   16    5     -0.50      0.00
   -7   16    4     -0.17      0.00
   -7   16    3     -0.78      0.00
   -7   16    2      0.03      0.00
   -7   16    1      0.58      0.00
    7   16    0     -0.18      0.00
    7   16    1     -1.10      0.00
    7   16    2      0.26      0.00
    7   16    3      1.22      0.00
    7   16    4      0.30      0.00
    7   16    5     -0.33      0.00
    7   16    6      0.08      0.00
    7   16    7     -0.01      0.00
    7   16    8     -0.71      0.00
    7   16    9      0.21      0.00
    7   16   10      0.90      0.00
   -7   17    8      0.04      0.00
   -7   17    7     -0.73      0.00
   -7   17    6      0.99      0.00
   -7   17    5      0.05      0.00
   -7   17    4      0.39      0.00
   -7   17    3      0.62      0.00
   -7   17    2     -0.34      0.00
   -7   17    1     -0.57      0.00
    7   17    0      0.18      0.00
    7   17    1      1.25      0.00
    7   17    2      0.10      0.00
    7   17    3     -1.48      0.00
    7   17    4     -0.59      0.00
    7   17    5      0.34      0.00
    7   17    6      0.12      0.00
    7   17    7     -0.27      0.00
    7   17    8      0.61      0.00
    7   17    9      0.02      0.00
   -7   18    7      0.31      0.00
   -7   18    6     -0.50      0.00
   -7   18    5      0.16      0.00
   -7   18    4     -0.69      0.00
   -7   18    3     -0.26      0.00
   -7   18    2      0.47      0.00
   -7   18    1      0.44      0.00
    7   18    0     -0.06      0.00
    7   18    1     -1.18      0.00
    7   18    2     -0.61      0.00
    7   18    3      1.27      0.00
    7   18    4      0.95      0.00
    7   18    5     -0.08      0.00
    7   18    6     -0.34      0.00
    7   18    7      0.29      0.00
   -7   19    6      0.05      0.00
   -7   19    5     -0.03      0.00
   -7   19    4      0.76      0.00
   -7   19    3     -0.18      0.00
   -7   19    2     -0.35      0.00
   -7   19    1     -0.33      0.00
    7   19    0     -0.04      0.00
    7   19    1      0.88      0.00
    7   19    2      0.80      0.00
    7   19    3     -0.61      0.00
    7   19    4     -0.92      0.00
    7   19    5     -0.36      0.00
    7   19    6      0.28      0.00
   -7   20    4     -0.52      0.00
   -7   20    3      0.44      0.00
   -7   20    2      0.06      0.00
   -7   20    1      0.35      0.00
    7   20    0      0.05      0.00
    7   20    1     -0.57      0.00
    7   20    2     -0.52      0.00
    7   20    3      0.02      0.00
    7   20    4      0.45      0.00
   -8    0   14     -1.52      0.00
   -8    0   12      0.10      0.00
   -8    0   10      0.94      0.00
   -8    0    8      0.44      0.00
   -8    0    6      0.16      0.00
   -8    0    4      0.64      0.00
   -8    0    2      2.66      0.00
    8    0    0     -2.54      0.00
    8    0    2      2.79      0.00
    8    0    4     -1.78      0.00
    8    0    6     -0.74      0.00
    8    0    8     -0.81      0.00
    8    0   10      0.84      0.00
    8    0   12     -0.29      0.00
   -8    1   14      1.54      0.00
   -8    1   13     -0.30      0.00
   -8    1   12     -0.16      0.00
   -8    1   11     -0.13      0.00
   -8    1   10     -0.68      0.00
   -8    1    9      0.61      0.00
   -8    1    8     -0.53      0.00
   -8    1    7      0.08      0.00
   -8    1    6     -0.05      0.00
   -8    1    5      0.51      0.00
   -8    1    4     -0.76      0.00
   -8    1    3     -0.42      0.00
   -8    1    2     -2.64      0.00
   -8    1    1      0.65      0.00
    8    1    0      2.75      0.00
    8    1    1      0.18      0.00
    8    1    2     -2.56      0.00
    8    1    3     -0.12      0.00
    8    1    4      1.64      0.00
    8    1    5      0.16      0.00
    8    1    6      0.82      0.00
    8    1    7     -0.44      0.00
    8    1    8      0.75      0.00
    8    1    9     -0.12      0.00
    8    1   10     -0.78      0.00
    8    1   11      0.42      0.00
    8    1   12      0.32      0.00
   -8    2   14     -1.46      0.00
   -8    2   13      0.62      0.00
   -8    2   12      0.17      0.00
   -8    2   11     -0.05      0.00
   -8    2   10      0.17      0.00
   -8    2    9     -0.77      0.00
   -8    2    8      0.66      0.00
   -8    2    7     -0.33      0.00
   -8    2    6     -0.19      0.00
   -8    2    5     -0.63      0.00
   -8    2    4      0.98      0.00
   -8    2    3      0.72      0.00
   -8    2    2      2.47      0.00
   -8    2    1     -1.60      0.00
    8    2    0     -3.19      0.00
    8    2    1     -0.44      0.00
    8    2    2      2.05      0.00
    8    2    3      0.15      0.00
    8    2    4     -1.34      0.00
    8    2    5     -0.22      0.00
    8    2    6     -1.02      0.00
    8    2    7      0.73      0.00
    8    2    8     -0.55      0.00
    8    2    9      0.18      0.00
    8    2   10      0.64      0.00
    8    2   11     -0.74      0.00
    8    2   12     -0.35      0.00
   -8    3   14      1.20      0.00
   -8    3   13     -0.79      0.00
   -8    3   12      0.05      0.00
   -8    3   11      0.45      0.00
   -8    3   10      0.09      0.00
   -8    3    9      0.46      0.00
   -8    3    8     -0.61      0.00
   -8    3    7      0.78      0.00
   -8    3    6      0.28      0.00
   -8    3    5      0.33      0.00
   -8    3    4     -0.97      0.00
   -8    3    3     -0.83      0.00
   -8    3    2     -2.06      0.00
   -8    3    1      2.75      0.00
    8    3    0      3.48      0.00
    8    3    1      0.91      0.00
    8    3    2     -1.46      0.00
    8    3    3     -0.23      0.00
    8    3    4      0.97      0.00
    8    3    5      0.17      0.00
    8    3    6      1.17      0.00
    8    3    7     -0.76      0.00
    8    3    8      0.24      0.00
    8    3    9     -0.14      0.00
    8    3   10     -0.48      0.00
    8    3   11      0.93      0.00
    8    3   12      0.24      0.00
   -8    4   14     -0.87      0.00
   -8    4   13      0.68      0.00
   -8    4   12     -0.44      0.00
   -8    4   11     -0.72      0.00
   -8    4   10      0.11      0.00
   -8    4    9     -0.05      0.00
   -8    4    8      0.28      0.00
   -8    4    7     -1.16      0.00
   -8    4    6     -0.14      0.00
   -8    4    5      0.00      0.00
   -8    4    4      0.61      0.00
   -8    4    3      0.97      0.00
   -8    4    2      1.48      0.00
   -8    4    1     -3.77      0.00
    8    4    0     -3.34      0.00
    8    4    1     -1.54      0.00
    8    4    2      0.70      0.00
    8    4    3      0.45      0.00
    8    4    4     -0.51      0.00
    8    4    5     -0.03      0.00
    8    4    6     -1.04      0.00
    8    4    7      0.48      0.00
    8    4    8      0.04      0.00
    8    4    9      0.05      0.00
    8    4   10      0.34      0.00
    8    4   11     -0.99      0.00
    8    4   12      0.01      0.00
   -8    5   14      0.63      0.00
   -8    5   13     -0.43      0.00
   -8    5   12      0.80      0.00
   -8    5   11      0.67      0.00
   -8    5   10     -0.54      0.00
   -8    5    9     -0.11      0.00
   -8    5    8      0.14      0.00
   -8    5    7      1.22      0.00
   -8    5    6     -0.01      0.00
   -8    5    5     -0.04      0.00
   -8    5    4     -0.34      0.00
   -8    5    3     -1.31      0.00
   -8    5    2     -0.71      0.00
   -8    5    1      4.41      0.00
    8    5    0      2.72      0.00
    8    5    1      1.99      0.00
    8    5    2      0.27      0.00
    8    5    3     -0.57      0.00
    8    5    4     -0.03      0.00
    8    5    5     -0.10      0.00
    8    5    6      0.47      0.00
    8    5    7     -0.15      0.00
    8    5    8     -0.09      0.00
    8    5    9      0.03      0.00
    8    5   10     -0.28      0.00
    8    5   11      0.98      0.00
    8    5   12     -0.26      0.00
   -8    6   14     -0.44      0.00
   -8    6   13      0.20      0.00
   -8    6   12     -0.96      0.00
   -8    6   11     -0.37      0.00
   -8    6   10      0.86      0.00
   -8    6    9     -0.07      0.00
   -8    6    8     -0.36      0.00
   -8    6    7     -0.95      0.00
   -8    6    6     -0.12      0.00
   -8    6    5      0.00      0.00
   -8    6    4      0.62      0.00
   -8    6    3      1.54      0.00
   -8    6    2     -0.28      0.00
   -8    6    1     -4.48      0.00
    8    6    0     -1.78      0.00
    8    6    1     -2.03      0.00
    8    6    2     -1.14      0.00
    8    6    3      0.38      0.00
    8    6    4      0.48      0.00
    8    6    5      0.06      0.00
    8    6    6      0.29      0.00
    8    6    7      0.12      0.00
    8    6    8     -0.12      0.00
    8    6    9     -0.12      0.00
    8    6   10      0.35      0.00
    8    6   11     -0.89      0.00
    8    6   12      0.39      0.00
   -8    7   14      0.28      0.00
   -8    7   13     -0.05      0.00
   -8    7   12      0.88      0.00
   -8    7   11      0.07      0.00
   -8    7   10     -0.89      0.00
   -8    7    9      0.36      0.00
   -8    7    8      0.24      0.00
   -8    7    7      0.53      0.00
   -8    7    6      0.44      0.00
   -8    7    5     -0.29      0.00
   -8    7    4     -1.16      0.00
   -8    7    3     -1.18      0.00
   -8    7    2      1.17      0.00
   -8    7    1      3.90      0.00
    8    7    0      0.77      0.00
    8    7    1      1.65      0.00
    8    7    2      1.67      0.00
    8    7    3      0.02      0.00
    8    7    4     -0.81      0.00
    8    7    5      0.12      0.00
    8    7    6     -0.69      0.00
    8    7    7     -0.42      0.00
    8    7    8      0.40      0.00
    8    7    9      0.29      0.00
    8    7   10     -0.49      0.00
    8    7   11      0.73      0.00
    8    7   12     -0.46      0.00
   -8    8   13      0.06      0.00
   -8    8   12     -0.59      0.00
   -8    8   11      0.05      0.00
   -8    8   10      0.69      0.00
   -8    8    9     -0.49      0.00
   -8    8    8      0.14      0.00
   -8    8    7     -0.17      0.00
   -8    8    6     -0.69      0.00
   -8    8    5      0.75      0.00
   -8    8    4      1.30      0.00
   -8    8    3      0.48      0.00
   -8    8    2     -1.45      0.00
   -8    8    1     -2.89      0.00
    8    8    0      0.07      0.00
    8    8    1     -0.98      0.00
    8    8    2     -1.83      0.00
    8    8    3     -0.52      0.00
    8    8    4      1.04      0.00
    8    8    5     -0.08      0.00
    8    8    6      0.54      0.00
    8    8    7      0.68      0.00
    8    8    8     -0.52      0.00
    8    8    9     -0.52      0.00
    8    8   10      0.54      0.00
    8    8   11     -0.64      0.00
    8    8   12      0.55      0.00
   -8    9   13     -0.26      0.00
   -8    9   12      0.27      0.00
   -8    9   11      0.05      0.00
   -8    9   10     -0.48      0.00
   -8    9    9      0.34      0.00
   -8    9    8     -0.52      0.00
   -8    9    7      0.05      0.00
   -8    9    6      0.81      0.00
   -8    9    5     -0.98      0.00
   -8    9    4     -1.06      0.00
   -8    9    3     -0.11      0.00
   -8    9    2      1.15      0.00
   -8    9    1      1.87      0.00
    8    9    0     -0.55      0.00
    8    9    1      0.13      0.00
    8    9    2      1.69      0.00
    8    9    3      1.01      0.00
    8    9    4     -1.02      0.00
    8    9    5     -0.34      0.00
    8    9    6     -0.20      0.00
    8    9    7     -0.65      0.00
    8    9    8      0.46      0.00
    8    9    9      0.66      0.00
    8    9   10     -0.45      0.00
    8    9   11      0.74      0.00
    8    9   12     -0.55      0.00
   -8   10   13      0.48      0.00
   -8   10   12     -0.07      0.00
   -8   10   11     -0.20      0.00
   -8   10   10      0.38      0.00
   -8   10    9     -0.10      0.00
   -8   10    8      0.59      0.00
   -8   10    7     -0.21      0.00
   -8   10    6     -0.77      0.00
   -8   10    5      1.00      0.00
   -8   10    4      0.92      0.00
   -8   10    3      0.13      0.00
   -8   10    2     -0.71      0.00
   -8   10    1     -1.09      0.00
    8   10    0      0.57      0.00
    8   10    1      0.64      0.00
    8   10    2     -1.24      0.00
    8   10    3     -1.31      0.00
    8   10    4      0.68      0.00
    8   10    5      0.79      0.00
    8   10    6      0.05      0.00
    8   10    7      0.39      0.00
    8   10    8     -0.27      0.00
    8   10    9     -0.59      0.00
    8   10   10      0.32      0.00
    8   10   11     -0.93      0.00
    8   10   12      0.33      0.00
   -8   11   12     -0.04      0.00
   -8   11   11      0.23      0.00
   -8   11   10     -0.32      0.00
   -8   11    9      0.10      0.00
   -8   11    8     -0.35      0.00
   -8   11    7      0.36      0.00
   -8   11    6      0.46      0.00
   -8   11    5     -1.10      0.00
   -8   11    4     -0.93      0.00
   -8   11    3     -0.09      0.00
   -8   11    2      0.34      0.00
   -8   11    1      0.60      0.00
    8   11    0     -0.24      0.00
    8   11    1     -0.97      0.00
    8   11    2      0.69      0.00
    8   11    3      1.23      0.00
    8   11    4     -0.29      0.00
    8   11    5     -0.92      0.00
    8   11    6     -0.07      0.00
    8   11    7     -0.12      0.00
    8   11    8      0.09      0.00
    8   11    9      0.34      0.00
    8   11   10     -0.23      0.00
    8   11   11      0.90      0.00
    8   11   12      0.04      0.00
   -8   12   12      0.12      0.00
   -8   12   11     -0.18      0.00
   -8   12   10      0.14      0.00
   -8   12    9     -0.41      0.00
   -8   12    8      0.25      0.00
   -8   12    7     -0.21      0.00
   -8   12    6      0.02      0.00
   -8   12    5      1.22      0.00
   -8   12    4      0.74      0.00
   -8   12    3     -0.13      0.00
   -8   12    2      0.10      0.00
   -8   12    1     -0.43      0.00
    8   12    0     -0.16      0.00
    8   12    1      0.78      0.00
    8   12    2     -0.36      0.00
    8   12    3     -0.95      0.00
    8   12    4      0.12      0.00
    8   12    5      0.80      0.00
    8   12    6      0.12      0.00
    8   12    7     -0.06      0.00
    8   12    8     -0.02      0.00
    8   12    9     -0.07      0.00
    8   12   10      0.10      0.00
    8   12   11     -0.55      0.00
   -8   13   11      0.12      0.00
   -8   13   10      0.14      0.00
   -8   13    9      0.69      0.00
   -8   13    8     -0.65      0.00
   -8   13    7     -0.03      0.00
   -8   13    6     -0.31      0.00
   -8   13    5     -1.16      0.00
   -8   13    4     -0.34      0.00
   -8   13    3      0.24      0.00
   -8   13    2     -0.49      0.00
   -8   13    1      0.59      0.00
    8   13    0      0.29      0.00
    8   13    1     -0.32      0.00
    8   13    2      0.32      0.00
    8   13    3      0.73      0.00
    8   13    4     -0.07      0.00
    8   13    5     -0.63      0.00
    8   13    6     -0.23      0.00
    8   13    7      0.03      0.00
    8   13    8      0.06      0.00
    8   13    9     -0.01      0.00
    8   13   10      0.20      0.00
    8   13   11      0.11      0.00
   -8   14   11     -0.01      0.00
   -8   14   10     -0.34      0.00
   -8   14    9     -0.61      0.00
   -8   14    8      1.29      0.00
   -8   14    7     -0.06      0.00
   -8   14    6      0.34      0.00
   -8   14    5      1.02      0.00
   -8   14    4      0.07      0.00
   -8   14    3     -0.13      0.00
   -8   14    2      0.51      0.00
   -8   14    1     -0.83      0.00
    8   14    0     -0.07      0.00
    8   14    1     -0.03      0.00
    8   14    2     -0.42      0.00
    8   14    3     -0.66      0.00
    8   14    4     -0.05      0.00
    8   14    5      0.44      0.00
    8   14    6      0.37      0.00
    8   14    7      0.20      0.00
    8   14    8      0.03      0.00
    8   14    9     -0.03      0.00
    8   14   10     -0.64      0.00
   -8   15   10      0.34      0.00
   -8   15    9      0.19      0.00
   -8   15    8     -1.59      0.00
   -8   15    7      0.45      0.00
   -8   15    6     -0.36      0.00
   -8   15    5     -0.95      0.00
   -8   15    4     -0.03      0.00
   -8   15    3      0.12      0.00
   -8   15    2     -0.12      0.00
   -8   15    1      0.84      0.00
    8   15    0     -0.30      0.00
    8   15    1      0.08      0.00
    8   15    2      0.47      0.00
    8   15    3      0.71      0.00
    8   15    4      0.26      0.00
    8   15    5     -0.25      0.00
    8   15    6     -0.43      0.00
    8   15    7     -0.39      0.00
    8   15    8     -0.29      0.00
    8   15    9     -0.02      0.00
    8   15   10      0.90      0.00
   -8   16    9      0.26      0.00
   -8   16    8      1.37      0.00
   -8   16    7     -0.70      0.00
   -8   16    6      0.47      0.00
   -8   16    5      0.83      0.00
   -8   16    4      0.06      0.00
   -8   16    3     -0.36      0.00
   -8   16    2     -0.30      0.00
   -8   16    1     -0.55      0.00
    8   16    0      0.47      0.00
    8   16    1      0.10      0.00
    8   16    2     -0.33      0.00
    8   16    3     -0.83      0.00
    8   16    4     -0.53      0.00
    8   16    5      0.14      0.00
    8   16    6      0.51      0.00
    8   16    7      0.31      0.00
    8   16    8      0.43      0.00
    8   16    9      0.17      0.00
   -8   17    8     -0.90      0.00
   -8   17    7      0.61      0.00
   -8   17    6     -0.44      0.00
   -8   17    5     -0.63      0.00
   -8   17    4     -0.09      0.00
   -8   17    3      0.71      0.00
   -8   17    2      0.44      0.00
   -8   17    1      0.24      0.00
    8   17    0     -0.33      0.00
    8   17    1     -0.26      0.00
    8   17    2     -0.05      0.00
    8   17    3      0.88      0.00
    8   17    4      0.88      0.00
    8   17    5     -0.01      0.00
    8   17    6     -0.69      0.00
    8   17    7     -0.15      0.00
    8   17    8     -0.29      0.00
   -8   18    7     -0.40      0.00
   -8   18    6      0.23      0.00
   -8   18    5      0.48      0.00
   -8   18    4      0.07      0.00
   -8   18    3     -0.98      0.00
   -8   18    2     -0.27      0.00
   -8   18    1     -0.13      0.00
    8   18    0      0.06      0.00
    8   18    1      0.16      0.00
    8   18    2      0.43      0.00
    8   18    3     -0.60      0.00
    8   18    4     -1.08      0.00
    8   18    5     -0.32      0.00
    8   18    6      0.76      0.00
    8   18    7      0.15      0.00
   -8   19    5     -0.40      0.00
   -8   19    4      0.05      0.00
   -8   19    3      1.04      0.00
   -8   19    2     -0.05      0.00
   -8   19    1      0.22      0.00
    8   19    0      0.08      0.00
    8   19    1      0.12      0.00
    8   19    2     -0.46      0.00
    8   19    3      0.12      0.00
    8   19    4      0.84      0.00
    8   19    5      0.65      0.00
   -8   20    3     -0.87      0.00
   -8   20    2      0.31      0.00
   -8   20    1     -0.37      0.00
    8   20    0     -0.03      0.00
    8   20    1     -0.29      0.00
    8   20    2      0.11      0.00
    8   20    3      0.15      0.00
   -9    0   14      0.26      0.00
   -9    0   12     -0.55      0.00
   -9    0   10     -1.41      0.00
   -9    0    8      0.11      0.00
   -9    0    6     -1.61      0.00
   -9    0    4     -1.59      0.00
   -9    0    2      1.39      0.00
    9    0    0      0.30      0.00
    9    0    2     -1.86      0.00
    9    0    4      1.03      0.00
    9    0    6      0.28      0.00
    9    0    8      0.78      0.00
    9    0   10     -0.63      0.00
   -9    1   14     -0.30      0.00
   -9    1   13     -0.08      0.00
   -9    1   12      0.64      0.00
   -9    1   11      0.04      0.00
   -9    1   10      1.10      0.00
   -9    1    9     -0.45      0.00
   -9    1    8     -0.10      0.00
   -9    1    7     -0.08      0.00
   -9    1    6      1.53      0.00
   -9    1    5     -0.19      0.00
   -9    1    4      1.51      0.00
   -9    1    3     -0.35      0.00
   -9    1    2     -1.15      0.00
   -9    1    1      0.47      0.00
    9    1    0     -0.51      0.00
    9    1    1     -0.33      0.00
    9    1    2      1.69      0.00
    9    1    3     -0.18      0.00
    9    1    4     -0.99      0.00
    9    1    5      0.33      0.00
    9    1    6     -0.20      0.00
    9    1    7      0.14      0.00
    9    1    8     -0.90      0.00
    9    1    9      0.16      0.00
    9    1   10      0.54      0.00
    9    1   11     -0.16      0.00
    9    1   12     -0.37      0.00
   -9    2   14      0.33      0.00
   -9    2   13      0.05      0.00
   -9    2   12     -0.73      0.00
   -9    2   11      0.17      0.00
   -9    2   10     -0.44      0.00
   -9    2    9      0.62      0.00
   -9    2    8      0.18      0.00
   -9    2    7      0.19      0.00
   -9    2    6     -1.37      0.00
   -9    2    5      0.21      0.00
   -9    2    4     -1.30      0.00
   -9    2    3      0.52      0.00
   -9    2    2      0.70      0.00
   -9    2    1     -0.49      0.00
    9    2    0      1.02      0.00
    9    2    1      0.60      0.00
    9    2    2     -1.31      0.00
    9    2    3      0.31      0.00
    9    2    4      0.85      0.00
    9    2    5     -0.50      0.00
    9    2    6      0.07      0.00
    9    2    7     -0.49      0.00
    9    2    8      1.11      0.00
    9    2    9     -0.18      0.00
    9    2   10     -0.34      0.00
    9    2   11      0.27      0.00
    9    2   12      0.39      0.00
   -9    3   14     -0.25      0.00
   -9    3   13     -0.01      0.00
   -9    3   12      0.58      0.00
   -9    3   11     -0.49      0.00
   -9    3   10      0.01      0.00
   -9    3    9     -0.58      0.00
   -9    3    8     -0.49      0.00
   -9    3    7     -0.28      0.00
   -9    3    6      1.27      0.00
   -9    3    5     -0.05      0.00
   -9    3    4      0.97      0.00
   -9    3    3     -0.52      0.00
   -9    3    2     -0.44      0.00
   -9    3    1     -0.01      0.00
    9    3    0     -1.54      0.00
    9    3    1     -0.90      0.00
    9    3    2      0.87      0.00
    9    3    3     -0.35      0.00
    9    3    4     -0.57      0.00
    9    3    5      0.60      0.00
    9    3    6     -0.09      0.00
    9    3    7      0.97      0.00
    9    3    8     -1.14      0.00
    9    3    9     -0.05      0.00
    9    3   10      0.08      0.00
    9    3   11     -0.31      0.00
    9    3   12     -0.24      0.00
   -9    4   14      0.15      0.00
   -9    4   13      0.08      0.00
   -9    4   12     -0.23      0.00
   -9    4   11      0.53      0.00
   -9    4   10      0.00      0.00
   -9    4    9      0.64      0.00
   -9    4    8      1.00      0.00
   -9    4    7      0.17      0.00
   -9    4    6     -1.34      0.00
   -9    4    5     -0.03      0.00
   -9    4    4     -0.54      0.00
   -9    4    3      0.42      0.00
   -9    4    2      0.54      0.00
   -9    4    1      0.71      0.00
    9    4    0      1.75      0.00
    9    4    1      1.21      0.00
    9    4    2     -0.40      0.00
    9    4    3      0.33      0.00
    9    4    4      0.28      0.00
    9    4    5     -0.80      0.00
    9    4    6      0.18      0.00
    9    4    7     -1.21      0.00
    9    4    8      0.79      0.00
    9    4    9      0.39      0.00
    9    4   10      0.20      0.00
    9    4   11      0.36      0.00
    9    4   12     -0.10      0.00
   -9    5   14     -0.13      0.00
   -9    5   13     -0.20      0.00
   -9    5   12     -0.07      0.00
   -9    5   11     -0.23      0.00
   -9    5   10      0.18      0.00
   -9    5    9     -0.91      0.00
   -9    5    8     -1.45      0.00
   -9    5    7      0.27      0.00
   -9    5    6      1.32      0.00
   -9    5    5     -0.23      0.00
   -9    5    4      0.33      0.00
   -9    5    3     -0.22      0.00
   -9    5    2     -0.92      0.00
   -9    5    1     -1.30      0.00
    9    5    0     -1.63      0.00
    9    5    1     -1.36      0.00
    9    5    2     -0.04      0.00
    9    5    3     -0.31      0.00
    9    5    4     -0.21      0.00
    9    5    5      0.98      0.00
    9    5    6     -0.03      0.00
    9    5    7      1.01      0.00
    9    5    8     -0.28      0.00
    9    5    9     -0.56      0.00
    9    5   10     -0.39      0.00
    9    5   11     -0.52      0.00
    9    5   12      0.40      0.00
   -9    6   14      0.13      0.00
   -9    6   13      0.25      0.00
   -9    6   12      0.16      0.00
   -9    6   11     -0.16      0.00
   -9    6   10     -0.28      0.00
   -9    6    9      1.24      0.00
   -9    6    8      1.56      0.00
   -9    6    7     -0.85      0.00
   -9    6    6     -0.94      0.00
   -9    6    5      0.55      0.00
   -9    6    4     -0.65      0.00
   -9    6    3      0.14      0.00
   -9    6    2      1.41      0.00
   -9    6    1      1.62      0.00
    9    6    0      1.34      0.00
    9    6    1      1.29      0.00
    9    6    2      0.26      0.00
    9    6    3      0.19      0.00
    9    6    4      0.33      0.00
    9    6    5     -0.79      0.00
    9    6    6     -0.39      0.00
    9    6    7     -0.57      0.00
    9    6    8      0.04      0.00
    9    6    9      0.53      0.00
    9    6   10      0.29      0.00
    9    6   11      0.71      0.00
   -9    7   13     -0.19      0.00
   -9    7   12     -0.07      0.00
   -9    7   11      0.33      0.00
   -9    7   10      0.22      0.00
   -9    7    9     -1.35      0.00
   -9    7    8     -1.24      0.00
   -9    7    7      1.26      0.00
   -9    7    6      0.33      0.00
   -9    7    5     -0.46      0.00
   -9    7    4      1.23      0.00
   -9    7    3     -0.47      0.00
   -9    7    2     -1.78      0.00
   -9    7    1     -1.67      0.00
    9    7    0     -1.00      0.00
    9    7    1     -1.13      0.00
    9    7    2     -0.30      0.00
    9    7    3      0.07      0.00
    9    7    4     -0.26      0.00
    9    7    5      0.21      0.00
    9    7    6      0.70      0.00
    9    7    7      0.25      0.00
    9    7    8     -0.20      0.00
    9    7    9     -0.52      0.00
    9    7   10      0.05      0.00
    9    7   11     -0.80      0.00
   -9    8   13      0.02      0.00
   -9    8   12     -0.08      0.00
   -9    8   11     -0.20      0.00
   -9    8   10     -0.08      0.00
   -9    8    9      1.12      0.00
   -9    8    8      0.61      0.00
   -9    8    7     -1.35      0.00
   -9    8    6      0.09      0.00
   -9    8    5      0.03      0.00
   -9    8    4     -1.44      0.00
   -9    8    3      1.07      0.00
   -9    8    2      1.81      0.00
   -9    8    1      1.49      0.00
    9    8    0      0.62      0.00
    9    8    1      0.91      0.00
    9    8    2      0.31      0.00
    9    8    3     -0.27      0.00
    9    8    4     -0.16      0.00
    9    8    5      0.26      0.00
    9    8    6     -0.60      0.00
    9    8    7     -0.18      0.00
    9    8    8      0.49      0.00
    9    8    9      0.70      0.00
    9    8   10     -0.36      0.00
    9    8   11      0.83      0.00
   -9    9   13      0.21      0.00
   -9    9   12      0.18      0.00
   -9    9   11     -0.08      0.00
   -9    9   10      0.00      0.00
   -9    9    9     -0.56      0.00
   -9    9    8      0.06      0.00
   -9    9    7      1.10      0.00
   -9    9    6     -0.23      0.00
   -9    9    5      0.27      0.00
   -9    9    4      1.17      0.00
   -9    9    3     -1.49      0.00
   -9    9    2     -1.45      0.00
   -9    9    1     -1.06      0.00
    9    9    0     -0.34      0.00
    9    9    1     -0.56      0.00
    9    9    2     -0.27      0.00
    9    9    3      0.25      0.00
    9    9    4      0.59      0.00
    9    9    5     -0.29      0.00
    9    9    6      0.24      0.00
    9    9    7      0.22      0.00
    9    9    8     -0.56      0.00
    9    9    9     -0.88      0.00
    9    9   10      0.46      0.00
    9    9   11     -0.94      0.00
   -9   10   12     -0.20      0.00
   -9   10   11      0.30      0.00
   -9   10   10     -0.06      0.00
   -9   10    9     -0.06      0.00
   -9   10    8     -0.41      0.00
   -9   10    7     -0.60      0.00
   -9   10    6      0.17      0.00
   -9   10    5     -0.29      0.00
   -9   10    4     -0.84      0.00
   -9   10    3      1.57      0.00
   -9   10    2      0.89      0.00
   -9   10    1      0.55      0.00
    9   10    0      0.41      0.00
    9   10    1      0.20      0.00
    9   10    2      0.08      0.00
    9   10    3     -0.18      0.00
    9   10    4     -0.72      0.00
    9   10    5      0.08      0.00
    9   10    6      0.10      0.00
    9   10    7     -0.22      0.00
    9   10    8      0.35      0.00
    9   10    9      0.84      0.00
    9   10   10     -0.44      0.00
    9   10   11      1.08      0.00
   -9   11   12      0.24      0.00
   -9   11   11     -0.31      0.00
   -9   11   10      0.17      0.00
   -9   11    9      0.31      0.00
   -9   11    8      0.33      0.00
   -9   11    7      0.18      0.00
   -9   11    6      0.06      0.00
   -9   11    5      0.21      0.00
   -9   11    4      0.65      0.00
   -9   11    3     -1.48      0.00
   -9   11    2     -0.29      0.00
   -9   11    1     -0.23      0.00
    9   11    0     -0.76      0.00
    9   11    1     -0.14      0.00
    9   11    2      0.10      0.00
    9   11    3      0.25      0.00
    9   11    4      0.71      0.00
    9   11    5      0.10      0.00
    9   11    6     -0.31      0.00
    9   11    7      0.10      0.00
    9   11    8     -0.05      0.00
    9   11    9     -0.56      0.00
    9   11   10      0.40      0.00
    9   11   11     -1.06      0.00
   -9   12   11      0.22      0.00
   -9   12   10     -0.14      0.00
   -9   12    9     -0.03      0.00
   -9   12    8     -0.18      0.00
   -9   12    7     -0.15      0.00
   -9   12    6     -0.35      0.00
   -9   12    5     -0.07      0.00
   -9   12    4     -0.45      0.00
   -9   12    3      1.29      0.00
   -9   12    2     -0.18      0.00
   -9   12    1      0.25      0.00
    9   12    0      0.96      0.00
    9   12    1      0.38      0.00
    9   12    2     -0.06      0.00
    9   12    3     -0.30      0.00
    9   12    4     -0.71      0.00
    9   12    5     -0.25      0.00
    9   12    6      0.30      0.00
    9   12    7      0.10      0.00
    9   12    8     -0.09      0.00
    9   12    9      0.21      0.00
    9   12   10     -0.28      0.00
    9   12   11      0.77      0.00
   -9   13   11     -0.15      0.00
   -9   13   10     -0.08      0.00
   -9   13    9     -0.39      0.00
   -9   13    8      0.38      0.00
   -9   13    7      0.37      0.00
   -9   13    6      0.41      0.00
   -9   13    5     -0.18      0.00
   -9   13    4      0.29      0.00
   -9   13    3     -0.95      0.00
   -9   13    2      0.30      0.00
   -9   13    1     -0.42      0.00
    9   13    0     -0.72      0.00
    9   13    1     -0.60      0.00
    9   13    2     -0.13      0.00
    9   13    3      0.17      0.00
    9   13    4      0.59      0.00
    9   13    5      0.36      0.00
    9   13    6      0.01      0.00
    9   13    7     -0.16      0.00
    9   13    8     -0.01      0.00
    9   13    9      0.04      0.00
    9   13   10     -0.01      0.00
   -9   14   10      0.26      0.00
   -9   14    9      0.49      0.00
   -9   14    8     -0.77      0.00
   -9   14    7     -0.36      0.00
   -9   14    6     -0.17      0.00
   -9   14    5      0.35      0.00
   -9   14    4     -0.32      0.00
   -9   14    3      0.61      0.00
   -9   14    2     -0.05      0.00
   -9   14    1      0.38      0.00
    9   14    0      0.21      0.00
    9   14    1      0.60      0.00
    9   14    2      0.23      0.00
    9   14    3     -0.03      0.00
    9   14    4     -0.28      0.00
    9   14    5     -0.27      0.00
    9   14    6     -0.42      0.00
    9   14    7     -0.06      0.00
    9   14    8      0.15      0.00
    9   14    9     -0.19      0.00
   -9   15   10     -0.22      0.00
   -9   15    9     -0.26      0.00
   -9   15    8      0.87      0.00
   -9   15    7      0.04      0.00
   -9   15    6     -0.08      0.00
   -9   15    5     -0.23      0.00
   -9   15    4      0.50      0.00
   -9   15    3     -0.53      0.00
   -9   15    2     -0.29      0.00
   -9   15    1     -0.04      0.00
    9   15    0      0.18      0.00
    9   15    1     -0.44      0.00
    9   15    2     -0.21      0.00
    9   15    3      0.04      0.00
    9   15    4     -0.02      0.00
    9   15    5      0.01      0.00
    9   15    6      0.63      0.00
    9   15    7      0.36      0.00
    9   15    8     -0.17      0.00
   -9   16    9      0.06      0.00
   -9   16    8     -0.59      0.00
   -9   16    7      0.22      0.00
   -9   16    6      0.13      0.00
   -9   16    5     -0.08      0.00
   -9   16    4     -0.56      0.00
   -9   16    3      0.72      0.00
   -9   16    2      0.39      0.00
   -9   16    1     -0.34      0.00
    9   16    0     -0.21      0.00
    9   16    1      0.29      0.00
    9   16    2      0.12      0.00
    9   16    3     -0.14      0.00
    9   16    4      0.20      0.00
    9   16    5      0.21      0.00
    9   16    6     -0.60      0.00
    9   16    7     -0.44      0.00
   -9   17    8      0.28      0.00
   -9   17    7     -0.24      0.00
   -9   17    6     -0.13      0.00
   -9   17    5      0.37      0.00
   -9   17    4      0.43      0.00
   -9   17    3     -0.93      0.00
   -9   17    2     -0.18      0.00
   -9   17    1      0.44      0.00
    9   17    0     -0.02      0.00
    9   17    1     -0.25      0.00
    9   17    2      0.02      0.00
    9   17    3      0.25      0.00
    9   17    4     -0.31      0.00
    9   17    5     -0.33      0.00
    9   17    6      0.51      0.00
    9   17    7      0.33      0.00
   -9   18    6      0.16      0.00
   -9   18    5     -0.56      0.00
   -9   18    4     -0.21      0.00
   -9   18    3      0.95      0.00
   -9   18    2     -0.10      0.00
   -9   18    1     -0.22      0.00
    9   18    0      0.24      0.00
    9   18    1      0.34      0.00
    9   18    2     -0.14      0.00
    9   18    3     -0.40      0.00
    9   18    4      0.33      0.00
    9   18    5      0.44      0.00
    9   18    6     -0.38      0.00
   -9   19    5      0.56      0.00
   -9   19    4     -0.01      0.00
   -9   19    3     -0.74      0.00
   -9   19    2      0.26      0.00
   -9   19    1     -0.08      0.00
    9   19    0     -0.27      0.00
    9   19    1     -0.41      0.00
    9   19    2      0.10      0.00
    9   19    3      0.49      0.00
    9   19    4     -0.16      0.00
   -9   20    2     -0.23      0.00
   -9   20    1      0.23      0.00
    9   20    0      0.14      0.00
    9   20    1      0.31      0.00
    9   20    2      0.06      0.00
  -10    0   14      0.74      0.00
  -10    0   12      0.32      0.00
  -10    0   10      1.30      0.00
  -10    0    8      0.39      0.00
  -10    0    6      0.71      0.00
  -10    0    4      0.97      0.00
  -10    0    2     -2.52      0.00
   10    0    0      0.81      0.00
   10    0    2      0.67      0.00
   10    0    4     -0.26      0.00
   10    0    6     -1.33      0.00
   10    0    8      0.68      0.00
   10    0   10      0.26      0.00
  -10    1   14     -0.77      0.00
  -10    1   13      0.01      0.00
  -10    1   12     -0.24      0.00
  -10    1   11      0.15      0.00
  -10    1   10     -1.13      0.00
  -10    1    9      0.00      0.00
  -10    1    8     -0.31      0.00
  -10    1    7      0.15      0.00
  -10    1    6     -0.77      0.00
  -10    1    5     -0.53      0.00
  -10    1    4     -0.76      0.00
  -10    1    3      0.66      0.00
  -10    1    2      2.29      0.00
  -10    1    1     -0.95      0.00
   10    1    0     -0.72      0.00
   10    1    1      0.20      0.00
   10    1    2     -0.58      0.00
   10    1    3      0.16      0.00
   10    1    4      0.31      0.00
   10    1    5     -0.86      0.00
   10    1    6      0.93      0.00
   10    1    7      0.73      0.00
   10    1    8     -0.29      0.00
   10    1    9     -0.30      0.00
   10    1   10     -0.25      0.00
   10    1   11     -0.35      0.00
  -10    2   14      0.88      0.00
  -10    2   13      0.03      0.00
  -10    2   12     -0.05      0.00
  -10    2   11     -0.40      0.00
  -10    2   10      0.77      0.00
  -10    2    9      0.02      0.00
  -10    2    8      0.11      0.00
  -10    2    7     -0.14      0.00
  -10    2    6      0.88      0.00
  -10    2    5      0.84      0.00
  -10    2    4      0.27      0.00
  -10    2    3     -1.01      0.00
  -10    2    2     -1.80      0.00
  -10    2    1      1.62      0.00
   10    2    0      0.48      0.00
   10    2    1     -0.25      0.00
   10    2    2      0.35      0.00
   10    2    3     -0.25      0.00
   10    2    4     -0.34      0.00
   10    2    5      1.27      0.00
   10    2    6     -0.03      0.00
   10    2    7     -0.84      0.00
   10    2    8     -0.66      0.00
   10    2    9      0.42      0.00
   10    2   10      0.22      0.00
   10    2   11      0.65      0.00
  -10    3   14     -0.98      0.00
  -10    3   13     -0.04      0.00
  -10    3   12      0.50      0.00
  -10    3   11      0.56      0.00
  -10    3   10     -0.48      0.00
  -10    3    9      0.05      0.00
  -10    3    8      0.19      0.00
  -10    3    7     -0.05      0.00
  -10    3    6     -1.02      0.00
  -10    3    5     -0.90      0.00
  -10    3    4      0.24      0.00
  -10    3    3      1.07      0.00
  -10    3    2      1.40      0.00
  -10    3    1     -1.90      0.00
   10    3    0     -0.13      0.00
   10    3    1      0.14      0.00
   10    3    2     -0.07      0.00
   10    3    3      0.33      0.00
   10    3    4      0.16      0.00
   10    3    5     -1.22      0.00
   10    3    6     -0.68      0.00
   10    3    7      0.17      0.00
   10    3    8      1.54      0.00
   10    3    9     -0.23      0.00
   10    3   10     -0.15      0.00
   10    3   11     -0.85      0.00
  -10    4   14      0.92      0.00
  -10    4   13     -0.04      0.00
  -10    4   12     -0.81      0.00
  -10    4   11     -0.39      0.00
  -10    4   10      0.25      0.00
  -10    4    9     -0.31      0.00
  -10    4    8     -0.49      0.00
  -10    4    7      0.39      0.00
  -10    4    6      1.20      0.00
  -10    4    5      0.67      0.00
  -10    4    4     -0.65      0.00
  -10    4    3     -1.03      0.00
  -10    4    2     -1.23      0.00
  -10    4    1      1.90      0.00
   10    4    0     -0.20      0.00
   10    4    1      0.08      0.00
   10    4    2     -0.12      0.00
   10    4    3     -0.53      0.00
   10    4    4      0.08      0.00
   10    4    5      1.05      0.00
   10    4    6      0.77      0.00
   10    4    7      0.72      0.00
   10    4    8     -1.73      0.00
   10    4    9     -0.13      0.00
   10    4   10     -0.03      0.00
   10    4   11      0.82      0.00
  -10    5   14     -0.63      0.00
  -10    5   13      0.08      0.00
  -10    5   12      0.66      0.00
  -10    5   11      0.01      0.00
  -10    5   10      0.09      0.00
  -10    5    9      0.70      0.00
  -10    5    8      0.66      0.00
  -10    5    7     -0.86      0.00
  -10    5    6     -1.27      0.00
  -10    5    5     -0.10      0.00
  -10    5    4      0.81      0.00
  -10    5    3      1.01      0.00
  -10    5    2      1.16      0.00
  -10    5    1     -1.76      0.00
   10    5    0      0.49      0.00
   10    5    1     -0.33      0.00
   10    5    2     -0.01      0.00
   10    5    3      0.71      0.00
   10    5    4     -0.03      0.00
   10    5    5     -0.93      0.00
   10    5    6     -0.44      0.00
   10    5    7     -1.05      0.00
   10    5    8      1.20      0.00
   10    5    9      0.28      0.00
   10    5   10      0.23      0.00
   10    5   11     -0.52      0.00
  -10    6   13      0.05      0.00
  -10    6   12     -0.17      0.00
  -10    6   11      0.25      0.00
  -10    6   10     -0.49      0.00
  -10    6    9     -0.98      0.00
  -10    6    8     -0.60      0.00
  -10    6    7      1.25      0.00
  -10    6    6      1.00      0.00
  -10    6    5     -0.49      0.00
  -10    6    4     -0.55      0.00
  -10    6    3     -1.06      0.00
  -10    6    2     -1.06      0.00
  -10    6    1      1.46      0.00
   10    6    0     -0.81      0.00
   10    6    1      0.41      0.00
   10    6    2      0.45      0.00
   10    6    3     -0.49      0.00
   10    6    4     -0.32      0.00
   10    6    5      0.64      0.00
   10    6    6      0.16      0.00
   10    6    7      0.64      0.00
   10    6    8     -0.59      0.00
   10    6    9     -0.11      0.00
   10    6   10     -0.24      0.00
   10    6   11      0.09      0.00
  -10    7   13     -0.25      0.00
  -10    7   12     -0.30      0.00
  -10    7   11     -0.24      0.00
  -10    7   10      0.77      0.00
  -10    7    9      1.03      0.00
  -10    7    8      0.35      0.00
  -10    7    7     -1.30      0.00
  -10    7    6     -0.55      0.00
  -10    7    5      0.66      0.00
  -10    7    4      0.04      0.00
  -10    7    3      1.23      0.00
  -10    7    2      0.93      0.00
  -10    7    1     -0.96      0.00
   10    7    0      1.05      0.00
   10    7    1     -0.20      0.00
   10    7    2     -0.87      0.00
   10    7    3     -0.16      0.00
   10    7    4      0.51      0.00
   10    7    5     -0.04      0.00
   10    7    6     -0.08      0.00
   10    7    7     -0.01      0.00
   10    7    8      0.38      0.00
   10    7    9     -0.06      0.00
   10    7   10      0.03      0.00
  -10    8   13      0.37      0.00
  -10    8   12      0.48      0.00
  -10    8   11      0.13      0.00
  -10    8   10     -0.82      0.00
  -10    8    9     -0.88      0.00
  -10    8    8      0.02      0.00
  -10    8    7      1.04      0.00
  -10    8    6      0.30      0.00
  -10    8    5     -0.42      0.00
  -10    8    4      0.27      0.00
  -10    8    3     -1.50      0.00
  -10    8    2     -0.84      0.00
  -10    8    1      0.43      0.00
   10    8    0     -1.05      0.00
   10    8    1     -0.15      0.00
   10    8    2      1.03      0.00
   10    8    3      0.81      0.00
   10    8    4     -0.25      0.00
   10    8    5     -0.58      0.00
   10    8    6     -0.02      0.00
   10    8    7     -0.29      0.00
   10    8    8     -0.45      0.00
   10    8    9     -0.03      0.00
   10    8   10      0.26      0.00
  -10    9   12     -0.40      0.00
  -10    9   11     -0.07      0.00
  -10    9   10      0.70      0.00
  -10    9    9      0.54      0.00
  -10    9    8     -0.43      0.00
  -10    9    7     -0.60      0.00
  -10    9    6     -0.35      0.00
  -10    9    5      0.22      0.00
  -10    9    4     -0.23      0.00
  -10    9    3      1.69      0.00
  -10    9    2      0.76      0.00
  -10    9    1     -0.18      0.00
   10    9    0      0.89      0.00
   10    9    1      0.35      0.00
   10    9    2     -1.00      0.00
   10    9    3     -1.09      0.00
   10    9    4     -0.15      0.00
   10    9    5      0.88      0.00
   10    9    6      0.26      0.00
   10    9    7      0.20      0.00
   10    9    8      0.44      0.00
   10    9    9      0.31      0.00
   10    9   10     -0.47      0.00
  -10   10   12      0.23      0.00
  -10   10   11      0.09      0.00
  -10   10   10     -0.48      0.00
  -10   10    9     -0.06      0.00
  -10   10    8      0.65      0.00
  -10   10    7      0.11      0.00
  -10   10    6      0.50      0.00
  -10   10    5     -0.31      0.00
  -10   10    4      0.02      0.00
  -10   10    3     -1.70      0.00
  -10   10    2     -0.54      0.00
  -10   10    1      0.26      0.00
   10   10    0     -0.86      0.00
   10   10    1     -0.41      0.00
   10   10    2      0.95      0.00
   10   10    3      1.13      0.00
   10   10    4      0.42      0.00
   10   10    5     -0.83      0.00
   10   10    6     -0.59      0.00
   10   10    7     -0.03      0.00
   10   10    8     -0.24      0.00
   10   10    9     -0.52      0.00
   10   10   10      0.63      0.00
  -10   11   12     -0.16      0.00
  -10   11   11     -0.15      0.00
  -10   11   10      0.21      0.00
  -10   11    9     -0.30      0.00
  -10   11    8     -0.54      0.00
  -10   11    7      0.32      0.00
  -10   11    6     -0.63      0.00
  -10   11    5      0.54      0.00
  -10   11    4      0.16      0.00
  -10   11    3      1.47      0.00
  -10   11    2      0.16      0.00
  -10   11    1     -0.32      0.00
   10   11    0      0.98      0.00
   10   11    1      0.48      0.00
   10   11    2     -0.75      0.00
   10   11    3     -1.08      0.00
   10   11    4     -0.59      0.00
   10   11    5      0.51      0.00
   10   11    6      0.84      0.00
   10   11    7      0.06      0.00
   10   11    8      0.01      0.00
   10   11    9      0.60      0.00
   10   11   10     -0.77      0.00
  -10   12   11      0.14      0.00
  -10   12   10     -0.07      0.00
  -10   12    9      0.32      0.00
  -10   12    8      0.26      0.00
  -10   12    7     -0.49      0.00
  -10   12    6      0.72      0.00
  -10   12    5     -0.75      0.00
  -10   12    4     -0.28      0.00
  -10   12    3     -1.00      0.00
  -10   12    2      0.16      0.00
  -10   12    1      0.16      0.00
   10   12    0     -0.99      0.00
   10   12    1     -0.50      0.00
   10   12    2      0.37      0.00
   10   12    3      0.84      0.00
   10   12    4      0.71      0.00
   10   12    5      0.05      0.00
   10   12    6     -0.76      0.00
   10   12    7     -0.32      0.00
   10   12    8      0.06      0.00
   10   12    9     -0.57      0.00
   10   12   10      0.77      0.00
  -10   13   11      0.01      0.00
  -10   13   10      0.15      0.00
  -10   13    9     -0.18      0.00
  -10   13    8     -0.16      0.00
  -10   13    7      0.47      0.00
  -10   13    6     -0.65      0.00
  -10   13    5      0.88      0.00
  -10   13    4      0.28      0.00
  -10   13    3      0.45      0.00
  -10   13    2     -0.14      0.00
  -10   13    1      0.04      0.00
   10   13    0      0.75      0.00
   10   13    1      0.36      0.00
   10   13    2     -0.06      0.00
   10   13    3     -0.42      0.00
   10   13    4     -0.60      0.00
   10   13    5     -0.56      0.00
   10   13    6      0.24      0.00
   10   13    7      0.55      0.00
   10   13    8      0.06      0.00
   10   13    9      0.46      0.00
  -10   14   10     -0.23      0.00
  -10   14    9      0.21      0.00
  -10   14    8      0.20      0.00
  -10   14    7     -0.55      0.00
  -10   14    6      0.43      0.00
  -10   14    5     -0.80      0.00
  -10   14    4     -0.11      0.00
  -10   14    3     -0.10      0.00
  -10   14    2     -0.11      0.00
  -10   14    1      0.00      0.00
   10   14    0     -0.46      0.00
   10   14    1     -0.14      0.00
   10   14    2      0.00      0.00
   10   14    3      0.18      0.00
   10   14    4      0.29      0.00
   10   14    5      0.66      0.00
   10   14    6      0.43      0.00
   10   14    7     -0.50      0.00
   10   14    8     -0.22      0.00
  -10   15    9     -0.32      0.00
  -10   15    8     -0.07      0.00
  -10   15    7      0.71      0.00
  -10   15    6     -0.24      0.00
  -10   15    5      0.48      0.00
  -10   15    4     -0.09      0.00
  -10   15    3      0.07      0.00
  -10   15    2      0.26      0.00
  -10   15    1     -0.24      0.00
   10   15    0      0.34      0.00
   10   15    1      0.04      0.00
   10   15    2     -0.03      0.00
   10   15    3     -0.25      0.00
   10   15    4     -0.11      0.00
   10   15    5     -0.34      0.00
   10   15    6     -0.77      0.00
   10   15    7      0.25      0.00
  -10   16    8     -0.17      0.00
  -10   16    7     -0.68      0.00
  -10   16    6      0.18      0.00
  -10   16    5     -0.08      0.00
  -10   16    4      0.18      0.00
  -10   16    3     -0.18      0.00
  -10   16    2     -0.14      0.00
  -10   16    1      0.36      0.00
   10   16    0     -0.39      0.00
   10   16    1     -0.05      0.00
   10   16    2     -0.02      0.00
   10   16    3      0.40      0.00
   10   16    4      0.18      0.00
  -10   17    7      0.42      0.00
  -10   17    6     -0.10      0.00
  -10   17    5     -0.21      0.00
  -10   17    4     -0.20      0.00
  -10   17    3      0.20      0.00
  -10   17    2     -0.05      0.00
  -10   17    1     -0.19      0.00
   10   17    0      0.44      0.00
   10   17    1      0.09      0.00
   10   17    2      0.09      0.00
   10   17    3     -0.41      0.00
  -10   18    6     -0.02      0.00
  -10   18    5      0.39      0.00
  -10   18    4      0.21      0.00
  -10   18    3     -0.11      0.00
  -10   18    2      0.07      0.00
  -10   18    1     -0.14      0.00
   10   18    0     -0.38      0.00
   10   18    1     -0.08      0.00
   10   18    2     -0.08      0.00
  -10   19    4     -0.21      0.00
  -10   19    3      0.01      0.00
  -10   19    2      0.09      0.00
  -10   19    1      0.36      0.00
   10   19    0      0.21      0.00
   10   19    1      0.02      0.00
  -11    0   14     -0.95      0.00
  -11    0   12     -0.29      0.00
  -11    0   10     -0.54      0.00
  -11    0    8     -0.85      0.00
  -11    0    6      0.94      0.00
  -11    0    4     -0.21      0.00
  -11    0    2      1.06      0.00
   11    0    0      0.27      0.00
   11    0    2     -0.50      0.00
   11    0    4      1.05      0.00
   11    0    6      1.09      0.00
   11    0    8     -2.18      0.00
   11    0   10     -0.62      0.00
  -11    1   14      0.97      0.00
  -11    1   13      0.08      0.00
  -11    1   12      0.16      0.00
  -11    1   11      0.16      0.00
  -11    1   10      0.50      0.00
  -11    1    9      0.31      0.00
  -11    1    8      0.71      0.00
  -11    1    7     -0.12      0.00
  -11    1    6     -0.78      0.00
  -11    1    5      0.81      0.00
  -11    1    4      0.00      0.00
  -11    1    3     -0.45      0.00
  -11    1    2     -1.00      0.00
  -11    1    1      0.42      0.00
   11    1    0     -0.16      0.00
   11    1    1     -0.42      0.00
   11    1    2      0.42      0.00
   11    1    3      0.14      0.00
   11    1    4     -1.06      0.00
   11    1    5      0.73      0.00
   11    1    6     -0.65      0.00
   11    1    7     -1.05      0.00
   11    1    8      1.73      0.00
   11    1    9      0.65      0.00
   11    1   10      0.65      0.00
  -11    2   14     -1.05      0.00
  -11    2   13     -0.15      0.00
  -11    2   12      0.26      0.00
  -11    2   11     -0.17      0.00
  -11    2   10     -0.45      0.00
  -11    2    9     -0.58      0.00
  -11    2    8     -0.38      0.00
  -11    2    7      0.06      0.00
  -11    2    6      0.45      0.00
  -11    2    5     -1.23      0.00
  -11    2    4      0.44      0.00
  -11    2    3      0.66      0.00
  -11    2    2      0.86      0.00
  -11    2    1     -0.87      0.00
   11    2    0     -0.10      0.00
   11    2    1      0.60      0.00
   11    2    2     -0.17      0.00
   11    2    3     -0.27      0.00
   11    2    4      1.00      0.00
   11    2    5     -0.97      0.00
   11    2    6     -0.35      0.00
   11    2    7      1.39      0.00
   11    2    8     -0.60      0.00
   11    2    9     -1.10      0.00
   11    2   10     -0.70      0.00
  -11    3   13      0.07      0.00
  -11    3   12     -0.87      0.00
  -11    3   11      0.19      0.00
  -11    3   10      0.49      0.00
  -11    3    9      0.72      0.00
  -11    3    8      0.07      0.00
  -11    3    7      0.13      0.00
  -11    3    6     -0.13      0.00
  -11    3    5      1.17      0.00
  -11    3    4     -0.83      0.00
  -11    3    3     -0.63      0.00
  -11    3    2     -0.72      0.00
  -11    3    1      1.30      0.00
   11    3    0      0.31      0.00
   11    3    1     -0.42      0.00
   11    3    2     -0.15      0.00
   11    3    3      0.27      0.00
   11    3    4     -0.70      0.00
   11    3    5      0.62      0.00
   11    3    6      1.13      0.00
   11    3    7     -0.74      0.00
   11    3    8     -0.59      0.00
   11    3    9      1.20      0.00
   11    3   10      0.70      0.00
  -11    4   13      0.20      0.00
  -11    4   12      1.24      0.00
  -11    4   11     -0.38      0.00
  -11    4   10     -0.45      0.00
  -11    4    9     -0.65      0.00
  -11    4    8      0.12      0.00
  -11    4    7     -0.37      0.00
  -11    4    6     -0.09      0.00
  -11    4    5     -0.75      0.00
  -11    4    4      1.03      0.00
  -11    4    3      0.53      0.00
  -11    4    2      0.57      0.00
  -11    4    1     -1.64      0.00
   11    4    0     -0.37      0.00
   11    4    1     -0.08      0.00
   11    4    2      0.29      0.00
   11    4    3      0.03      0.00
   11    4    4      0.24      0.00
   11    4    5     -0.08      0.00
   11    4    6     -1.04      0.00
   11    4    7     -0.37      0.00
   11    4    8      1.17      0.00
   11    4    9     -1.05      0.00
   11    4   10     -0.58      0.00
  -11    5   13     -0.39      0.00
  -11    5   12     -1.06      0.00
  -11    5   11      0.58      0.00
  -11    5   10      0.16      0.00
  -11    5    9      0.43      0.00
  -11    5    8     -0.09      0.00
  -11    5    7      0.59      0.00
  -11    5    6      0.15      0.00
  -11    5    5      0.09      0.00
  -11    5    4     -1.03      0.00
  -11    5    3     -0.49      0.00
  -11    5    2     -0.32      0.00
  -11    5    1      1.84      0.00
   11    5    0      0.18      0.00
   11    5    1      0.62      0.00
   11    5    2      0.00      0.00
   11    5    3     -0.40      0.00
   11    5    4     -0.01      0.00
   11    5    5     -0.16      0.00
   11    5    6      0.22      0.00
   11    5    7      1.02      0.00
   11    5    8     -0.99      0.00
   11    5    9      0.92      0.00
  -11    6   13      0.26      0.00
  -11    6   12      0.49      0.00
  -11    6   11     -0.49      0.00
  -11    6   10      0.28      0.00
  -11    6    9     -0.23      0.00
  -11    6    8     -0.13      0.00
  -11    6    7     -0.66      0.00
  -11    6    6      0.03      0.00
  -11    6    5      0.54      0.00
  -11    6    4      0.82      0.00
  -11    6    3      0.47      0.00
  -11    6    2     -0.08      0.00
  -11    6    1     -1.74      0.00
   11    6    0      0.19      0.00
   11    6    1     -0.84      0.00
   11    6    2     -0.60      0.00
   11    6    3      0.38      0.00
   11    6    4      0.18      0.00
   11    6    5      0.14      0.00
   11    6    6      0.54      0.00
   11    6    7     -0.80      0.00
   11    6    8      0.54      0.00
   11    6    9     -0.89      0.00
  -11    7   13      0.07      0.00
  -11    7   12     -0.05      0.00
  -11    7   11      0.14      0.00
  -11    7   10     -0.54      0.00
  -11    7    9      0.08      0.00
  -11    7    8      0.36      0.00
  -11    7    7      0.47      0.00
  -11    7    6     -0.26      0.00
  -11    7    5     -0.80      0.00
  -11    7    4     -0.52      0.00
  -11    7    3     -0.39      0.00
  -11    7    2      0.46      0.00
  -11    7    1      1.24      0.00
   11    7    0     -0.51      0.00
   11    7    1      0.61      0.00
   11    7    2      1.01      0.00
   11    7    3      0.11      0.00
   11    7    4     -0.45      0.00
   11    7    5     -0.21      0.00
   11    7    6     -0.74      0.00
   11    7    7      0.19      0.00
   11    7    8     -0.25      0.00
   11    7    9      0.81      0.00
  -11    8   12     -0.04      0.00
  -11    8   11      0.13      0.00
  -11    8   10      0.52      0.00
  -11    8    9      0.08      0.00
  -11    8    8     -0.47      0.00
  -11    8    7     -0.13      0.00
  -11    8    6      0.21      0.00
  -11    8    5      0.71      0.00
  -11    8    4      0.30      0.00
  -11    8    3      0.25      0.00
  -11    8    2     -0.54      0.00
  -11    8    1     -0.51      0.00
   11    8    0      0.56      0.00
   11    8    1     -0.21      0.00
   11    8    2     -0.98      0.00
   11    8    3     -0.65      0.00
   11    8    4      0.47      0.00
   11    8    5      0.45      0.00
   11    8    6      0.57      0.00
   11    8    7      0.24      0.00
   11    8    8      0.12      0.00
   11    8    9     -0.59      0.00
  -11    9   12     -0.06      0.00
  -11    9   11     -0.15      0.00
  -11    9   10     -0.39      0.00
  -11    9    9     -0.23      0.00
  -11    9    8      0.51      0.00
  -11    9    7     -0.10      0.00
  -11    9    6      0.14      0.00
  -11    9    5     -0.59      0.00
  -11    9    4     -0.25      0.00
  -11    9    3     -0.16      0.00
  -11    9    2      0.28      0.00
  -11    9    1     -0.07      0.00
   11    9    0     -0.41      0.00
   11    9    1     -0.09      0.00
   11    9    2      0.74      0.00
   11    9    3      0.85      0.00
   11    9    4     -0.30      0.00
   11    9    5     -0.67      0.00
   11    9    6     -0.40      0.00
   11    9    7     -0.37      0.00
   11    9    8      0.03      0.00
   11    9    9      0.30      0.00
  -11   10   12      0.15      0.00
  -11   10   11      0.05      0.00
  -11   10   10      0.26      0.00
  -11   10    9      0.18      0.00
  -11   10    8     -0.51      0.00
  -11   10    7      0.20      0.00
  -11   10    6     -0.48      0.00
  -11   10    5      0.66      0.00
  -11   10    4      0.34      0.00
  -11   10    3      0.16      0.00
  -11   10    2      0.04      0.00
  -11   10    1      0.32      0.00
   11   10    0      0.25      0.00
   11   10    1      0.27      0.00
   11   10    2     -0.51      0.00
   11   10    3     -0.84      0.00
   11   10    4      0.11      0.00
   11   10    5      0.71      0.00
   11   10    6      0.40      0.00
   11   10    7      0.43      0.00
   11   10    8     -0.20      0.00
   11   10    9     -0.05      0.00
  -11   11   11      0.04      0.00
  -11   11   10     -0.09      0.00
  -11   11    9      0.03      0.00
  -11   11    8      0.41      0.00
  -11   11    7     -0.26      0.00
  -11   11    6      0.59      0.00
  -11   11    5     -0.82      0.00
  -11   11    4     -0.50      0.00
  -11   11    3     -0.13      0.00
  -11   11    2     -0.16      0.00
  -11   11    1     -0.37      0.00
   11   11    0     -0.19      0.00
   11   11    1     -0.33      0.00
   11   11    2      0.22      0.00
   11   11    3      0.77      0.00
   11   11    4      0.14      0.00
   11   11    5     -0.51      0.00
   11   11    6     -0.46      0.00
   11   11    7     -0.60      0.00
   11   11    8      0.27      0.00
   11   11    9     -0.14      0.00
  -11   12   11     -0.06      0.00
  -11   12   10     -0.04      0.00
  -11   12    9     -0.18      0.00
  -11   12    8     -0.22      0.00
  -11   12    7      0.33      0.00
  -11   12    6     -0.49      0.00
  -11   12    5      0.91      0.00
  -11   12    4      0.61      0.00
  -11   12    3     -0.05      0.00
  -11   12    2      0.16      0.00
  -11   12    1      0.39      0.00
   11   12    0      0.18      0.00
   11   12    1      0.16      0.00
   11   12    2      0.08      0.00
   11   12    3     -0.54      0.00
   11   12    4     -0.44      0.00
   11   12    5      0.05      0.00
   11   12    6      0.38      0.00
   11   12    7      0.88      0.00
   11   12    8     -0.21      0.00
   11   12    9      0.29      0.00
  -11   13   11     -0.03      0.00
  -11   13   10      0.02      0.00
  -11   13    9      0.25      0.00
  -11   13    8      0.10      0.00
  -11   13    7     -0.41      0.00
  -11   13    6      0.28      0.00
  -11   13    5     -0.84      0.00
  -11   13    4     -0.58      0.00
  -11   13    3      0.26      0.00
  -11   13    2     -0.24      0.00
  -11   13    1     -0.36      0.00
   11   13    0     -0.28      0.00
   11   13    1      0.18      0.00
   11   13    2     -0.15      0.00
   11   13    3      0.19      0.00
   11   13    4      0.56      0.00
   11   13    5      0.43      0.00
   11   13    6      0.01      0.00
   11   13    7     -1.09      0.00
   11   13    8      0.08      0.00
  -11   14   10      0.04      0.00
  -11   14    9     -0.36      0.00
  -11   14    8     -0.05      0.00
  -11   14    7      0.55      0.00
  -11   14    6     -0.11      0.00
  -11   14    5      0.58      0.00
  -11   14    4      0.47      0.00
  -11   14    3     -0.28      0.00
  -11   14    2      0.39      0.00
  -11   14    1      0.25      0.00
   11   14    0      0.47      0.00
   11   14    1     -0.36      0.00
   11   14    2     -0.08      0.00
   11   14    3      0.00      0.00
   11   14    4     -0.47      0.00
   11   14    5     -0.59      0.00
   11   14    6     -0.53      0.00
   11   14    7      1.05      0.00
  -11   15    9      0.44      0.00
  -11   15    8     -0.10      0.00
  -11   15    7     -0.65      0.00
  -11   15    6      0.09      0.00
  -11   15    5     -0.25      0.00
  -11   15    4     -0.42      0.00
  -11   15    3      0.10      0.00
  -11   15    2     -0.39      0.00
  -11   15    1     -0.14      0.00
   11   15    0     -0.63      0.00
   11   15    1      0.23      0.00
   11   15    2      0.25      0.00
   11   15    3      0.05      0.00
   11   15    4      0.43      0.00
   11   15    5      0.38      0.00
  -11   16    8      0.29      0.00
  -11   16    7      0.53      0.00
  -11   16    6     -0.18      0.00
  -11   16    5      0.03      0.00
  -11   16    4      0.45      0.00
  -11   16    3      0.02      0.00
  -11   16    2      0.23      0.00
  -11   16    1      0.17      0.00
   11   16    0      0.58      0.00
   11   16    1      0.01      0.00
   11   16    2     -0.18      0.00
  -11   17    6      0.18      0.00
  -11   17    5      0.02      0.00
  -11   17    4     -0.41      0.00
  -11   17    3      0.04      0.00
  -11   17    2     -0.11      0.00
  -11   17    1     -0.33      0.00
  -12    0   12      0.69      0.00
  -12    0   10     -0.04      0.00
  -12    0    8      0.07      0.00
  -12    0    6     -1.35      0.00
  -12    0    4     -0.19      0.00
  -12    0    2      0.17      0.00
   12    0    0     -1.13      0.00
   12    0    2     -0.18      0.00
   12    0    4     -0.33      0.00
   12    0    6      0.17      0.00
   12    0    8      2.20      0.00
  -12    1   13     -0.21      0.00
  -12    1   12     -0.70      0.00
  -12    1   11     -0.58      0.00
  -12    1   10      0.17      0.00
  -12    1    9     -0.12      0.00
  -12    1    8     -0.02      0.00
  -12    1    7     -0.01      0.00
  -12    1    6      1.21      0.00
  -12    1    5     -0.34      0.00
  -12    1    4      0.21      0.00
  -12    1    3     -0.13      0.00
  -12    1    2     -0.05      0.00
  -12    1    1      0.14      0.00
   12    1    0      0.96      0.00
   12    1    1      0.51      0.00
   12    1    2      0.17      0.00
   12    1    3      0.04      0.00
   12    1    4      0.48      0.00
   12    1    5     -0.60      0.00
   12    1    6     -0.46      0.00
   12    1    7      0.33      0.00
   12    1    8     -1.96      0.00
  -12    2   13      0.44      0.00
  -12    2   12      0.59      0.00
  -12    2   11      0.84      0.00
  -12    2   10     -0.37      0.00
  -12    2    9      0.33      0.00
  -12    2    8     -0.11      0.00
  -12    2    7      0.05      0.00
  -12    2    6     -0.89      0.00
  -12    2    5      0.48      0.00
  -12    2    4     -0.20      0.00
  -12    2    3      0.25      0.00
  -12    2    2     -0.21      0.00
  -12    2    1     -0.12      0.00
   12    2    0     -0.51      0.00
   12    2    1     -0.84      0.00
   12    2    2     -0.19      0.00
   12    2    3      0.02      0.00
   12    2    4     -0.79      0.00
   12    2    5      0.69      0.00
   12    2    6      1.10      0.00
   12    2    7     -0.23      0.00
   12    2    8      1.39      0.00
  -12    3   13     -0.51      0.00
  -12    3   12     -0.18      0.00
  -12    3   11     -0.89      0.00
  -12    3   10      0.38      0.00
  -12    3    9     -0.58      0.00
  -12    3    8      0.23      0.00
  -12    3    7     -0.04      0.00
  -12    3    6      0.56      0.00
  -12    3    5     -0.41      0.00
  -12    3    4      0.11      0.00
  -12    3    3     -0.34      0.00
  -12    3    2      0.44      0.00
  -12    3    1     -0.08      0.00
   12    3    0     -0.02      0.00
   12    3    1      0.85      0.00
   12    3    2      0.29      0.00
   12    3    3     -0.16      0.00
   12    3    4      0.93      0.00
   12    3    5     -0.12      0.00
   12    3    6     -1.44      0.00
   12    3    7     -0.41      0.00
   12    3    8     -0.79      0.00
  -12    4   13      0.26      0.00
  -12    4   12     -0.29      0.00
  -12    4   11      0.97      0.00
  -12    4   10     -0.16      0.00
  -12    4    9      0.73      0.00
  -12    4    8     -0.33      0.00
  -12    4    7     -0.05      0.00
  -12    4    6     -0.28      0.00
  -12    4    5      0.18      0.00
  -12    4    4      0.06      0.00
  -12    4    3      0.39      0.00
  -12    4    2     -0.48      0.00
  -12    4    1      0.36      0.00
   12    4    0      0.39      0.00
   12    4    1     -0.49      0.00
   12    4    2     -0.36      0.00
   12    4    3      0.18      0.00
   12    4    4     -0.69      0.00
   12    4    5     -0.66      0.00
   12    4    6      0.97      0.00
   12    4    7      1.16      0.00
   12    4    8      0.44      0.00
  -12    5   13      0.06      0.00
  -12    5   12      0.47      0.00
  -12    5   11     -1.03      0.00
  -12    5   10     -0.05      0.00
  -12    5    9     -0.71      0.00
  -12    5    8      0.33      0.00
  -12    5    7      0.14      0.00
  -12    5    6      0.11      0.00
  -12    5    5      0.16      0.00
  -12    5    4     -0.21      0.00
  -12    5    3     -0.39      0.00
  -12    5    2      0.24      0.00
  -12    5    1     -0.55      0.00
   12    5    0     -0.44      0.00
   12    5    1     -0.01      0.00
   12    5    2      0.19      0.00
   12    5    3     -0.07      0.00
   12    5    4      0.30      0.00
   12    5    5      0.95      0.00
   12    5    6      0.06      0.00
   12    5    7     -1.38      0.00
   12    5    8     -0.32      0.00
  -12    6   13     -0.09      0.00
  -12    6   12     -0.40      0.00
  -12    6   11      0.79      0.00
  -12    6   10      0.18      0.00
  -12    6    9      0.62      0.00
  -12    6    8     -0.20      0.00
  -12    6    7     -0.23      0.00
  -12    6    6     -0.13      0.00
  -12    6    5     -0.51      0.00
  -12    6    4      0.32      0.00
  -12    6    3      0.44      0.00
  -12    6    2      0.23      0.00
  -12    6    1      0.51      0.00
   12    6    0      0.23      0.00
   12    6    1      0.27      0.00
   12    6    2      0.12      0.00
   12    6    3      0.06      0.00
   12    6    4     -0.11      0.00
   12    6    5     -0.67      0.00
   12    6    6     -0.85      0.00
   12    6    7      0.95      0.00
   12    6    8      0.25      0.00
  -12    7   12      0.40      0.00
  -12    7   11     -0.28      0.00
  -12    7   10     -0.36      0.00
  -12    7    9     -0.52      0.00
  -12    7    8      0.06      0.00
  -12    7    7      0.38      0.00
  -12    7    6      0.24      0.00
  -12    7    5      0.69      0.00
  -12    7    4     -0.38      0.00
  -12    7    3     -0.59      0.00
  -12    7    2     -0.68      0.00
  -12    7    1     -0.17      0.00
   12    7    0     -0.02      0.00
   12    7    1     -0.20      0.00
   12    7    2     -0.19      0.00
   12    7    3     -0.29      0.00
   12    7    4      0.09      0.00
   12    7    5      0.29      0.00
   12    7    6      0.92      0.00
   12    7    7     -0.29      0.00
   12    7    8     -0.14      0.00
  -12    8   12     -0.58      0.00
  -12    8   11     -0.16      0.00
  -12    8   10      0.60      0.00
  -12    8    9      0.33      0.00
  -12    8    8     -0.05      0.00
  -12    8    7     -0.50      0.00
  -12    8    6     -0.20      0.00
  -12    8    5     -0.64      0.00
  -12    8    4      0.40      0.00
  -12    8    3      0.78      0.00
  -12    8    2      0.80      0.00
  -12    8    1     -0.33      0.00
   12    8    0     -0.04      0.00
   12    8    1      0.06      0.00
   12    8    2     -0.11      0.00
   12    8    3      0.45      0.00
   12    8    4      0.00      0.00
   12    8    5     -0.18      0.00
   12    8    6     -0.51      0.00
   12    8    7     -0.19      0.00
   12    8    8      0.10      0.00
  -12    9   12      0.71      0.00
  -12    9   11      0.33      0.00
  -12    9   10     -0.68      0.00
  -12    9    9     -0.06      0.00
  -12    9    8      0.12      0.00
  -12    9    7      0.41      0.00
  -12    9    6     -0.05      0.00
  -12    9    5      0.50      0.00
  -12    9    4     -0.36      0.00
  -12    9    3     -0.78      0.00
  -12    9    2     -0.50      0.00
  -12    9    1      0.74      0.00
   12    9    0      0.01      0.00
   12    9    1     -0.02      0.00
   12    9    2      0.43      0.00
   12    9    3     -0.29      0.00
   12    9    4     -0.19      0.00
   12    9    5      0.28      0.00
   12    9    6      0.07      0.00
   12    9    7      0.44      0.00
   12    9    8     -0.15      0.00
  -12   10   11     -0.32      0.00
  -12   10   10      0.52      0.00
  -12   10    9     -0.11      0.00
  -12   10    8     -0.11      0.00
  -12   10    7     -0.12      0.00
  -12   10    6      0.31      0.00
  -12   10    5     -0.41      0.00
  -12   10    4      0.16      0.00
  -12   10    3      0.50      0.00
  -12   10    2     -0.01      0.00
  -12   10    1     -0.92      0.00
   12   10    0      0.06      0.00
   12   10    1      0.00      0.00
   12   10    2     -0.46      0.00
   12   10    3     -0.02      0.00
   12   10    4      0.34      0.00
   12   10    5     -0.44      0.00
   12   10    6      0.19      0.00
   12   10    7     -0.55      0.00
  -12   11   11      0.28      0.00
  -12   11   10     -0.30      0.00
  -12   11    9      0.04      0.00
  -12   11    8      0.08      0.00
  -12   11    7     -0.18      0.00
  -12   11    6     -0.39      0.00
  -12   11    5      0.47      0.00
  -12   11    4      0.19      0.00
  -12   11    3     -0.15      0.00
  -12   11    2      0.45      0.00
  -12   11    1      0.85      0.00
   12   11    0     -0.21      0.00
   12   11    1      0.02      0.00
   12   11    2      0.33      0.00
   12   11    3      0.21      0.00
   12   11    4     -0.49      0.00
   12   11    5      0.53      0.00
   12   11    6     -0.24      0.00
   12   11    7      0.60      0.00
  -12   12   10      0.16      0.00
  -12   12    9      0.11      0.00
  -12   12    8     -0.10      0.00
  -12   12    7      0.33      0.00
  -12   12    6      0.25      0.00
  -12   12    5     -0.68      0.00
  -12   12    4     -0.52      0.00
  -12   12    3      0.00      0.00
  -12   12    2     -0.70      0.00
  -12   12    1     -0.58      0.00
   12   12    0      0.34      0.00
   12   12    1      0.14      0.00
   12   12    2     -0.16      0.00
   12   12    3     -0.34      0.00
   12   12    4      0.67      0.00
   12   12    5     -0.43      0.00
   12   12    6      0.20      0.00
   12   12    7     -0.60      0.00
  -12   13    9     -0.21      0.00
  -12   13    8      0.17      0.00
  -12   13    7     -0.34      0.00
  -12   13    6      0.03      0.00
  -12   13    5      0.88      0.00
  -12   13    4      0.58      0.00
  -12   13    3     -0.06      0.00
  -12   13    2      0.82      0.00
  -12   13    1      0.24      0.00
   12   13    0     -0.24      0.00
   12   13    1     -0.45      0.00
   12   13    2     -0.14      0.00
   12   13    3      0.49      0.00
   12   13    4     -0.75      0.00
   12   13    5      0.18      0.00
   12   13    6     -0.21      0.00
   12   13    7      0.55      0.00
  -12   14    8     -0.23      0.00
  -12   14    7      0.23      0.00
  -12   14    6     -0.27      0.00
  -12   14    5     -0.88      0.00
  -12   14    4     -0.42      0.00
  -12   14    3      0.09      0.00
  -12   14    2     -0.85      0.00
  -12   14    1     -0.01      0.00
   12   14    0     -0.07      0.00
   12   14    1      0.56      0.00
   12   14    2      0.54      0.00
   12   14    3     -0.50      0.00
   12   14    4      0.65      0.00
   12   14    5      0.02      0.00
   12   14    6      0.33      0.00
  -12   15    7     -0.10      0.00
  -12   15    6      0.33      0.00
  -12   15    5      0.70      0.00
  -12   15    4      0.31      0.00
  -12   15    3      0.04      0.00
  -12   15    2      0.73      0.00
  -12   15    1     -0.05      0.00
   12   15    0      0.30      0.00
   12   15    1     -0.31      0.00
   12   15    2     -0.73      0.00
   12   15    3      0.33      0.00
   12   15    4     -0.54      0.00
  -12   16    5     -0.53      0.00
  -12   16    4     -0.35      0.00
  -12   16    3     -0.15      0.00
  -12   16    2     -0.47      0.00
  -12   16    1      0.00      0.00
   12   16    0     -0.24      0.00
   12   16    1     -0.05      0.00
  -12   17    3      0.14      0.00
  -12   17    2      0.21      0.00
  -13    0   12     -0.37      0.00
  -13    0   10      0.37      0.00
  -13    0    8      1.03      0.00
  -13    0    6      0.56      0.00
  -13    0    4      0.39      0.00
  -13    0    2     -0.93      0.00
   13    0    0      1.24      0.00
   13    0    2      0.31      0.00
   13    0    4     -1.63      0.00
   13    0    6     -0.64      0.00
  -13    1   13      0.13      0.00
  -13    1   12      0.50      0.00
  -13    1   11      0.37      0.00
  -13    1   10     -0.54      0.00
  -13    1    9     -0.04      0.00
  -13    1    8     -0.92      0.00
  -13    1    7      0.22      0.00
  -13    1    6     -0.53      0.00
  -13    1    5     -0.27      0.00
  -13    1    4     -0.25      0.00
  -13    1    3      0.51      0.00
  -13    1    2      0.75      0.00
  -13    1    1     -0.24      0.00
   13    1    0     -1.15      0.00
   13    1    1     -0.37      0.00
   13    1    2     -0.25      0.00
   13    1    3     -0.37      0.00
   13    1    4      1.29      0.00
   13    1    5      0.94      0.00
   13    1    6      0.86      0.00
   13    1    7      0.19      0.00
  -13    2   13     -0.44      0.00
  -13    2   12     -0.65      0.00
  -13    2   11     -0.39      0.00
  -13    2   10      0.84      0.00
  -13    2    9     -0.03      0.00
  -13    2    8      0.62      0.00
  -13    2    7     -0.34      0.00
  -13    2    6      0.45      0.00
  -13    2    5      0.43      0.00
  -13    2    4     -0.11      0.00
  -13    2    3     -0.80      0.00
  -13    2    2     -0.32      0.00
  -13    2    1      0.39      0.00
   13    2    0      0.88      0.00
   13    2    1      0.70      0.00
   13    2    2      0.13      0.00
   13    2    3      0.48      0.00
   13    2    4     -0.48      0.00
   13    2    5     -1.25      0.00
   13    2    6     -1.27      0.00
   13    2    7     -0.56      0.00
  -13    3   13      0.73      0.00
  -13    3   12      0.49      0.00
  -13    3   11      0.18      0.00
  -13    3   10     -0.87      0.00
  -13    3    9      0.21      0.00
  -13    3    8     -0.29      0.00
  -13    3    7      0.24      0.00
  -13    3    6     -0.34      0.00
  -13    3    5     -0.39      0.00
  -13    3    4      0.53      0.00
  -13    3    3      0.77      0.00
  -13    3    2     -0.11      0.00
  -13    3    1     -0.44      0.00
   13    3    0     -0.48      0.00
   13    3    1     -0.88      0.00
   13    3    2     -0.11      0.00
   13    3    3     -0.26      0.00
   13    3    4     -0.26      0.00
   13    3    5      0.77      0.00
   13    3    6      1.36      0.00
   13    3    7      1.04      0.00
  -13    4   12     -0.11      0.00
  -13    4   11     -0.07      0.00
  -13    4   10      0.48      0.00
  -13    4    9     -0.35      0.00
  -13    4    8      0.11      0.00
  -13    4    7      0.06      0.00
  -13    4    6      0.10      0.00
  -13    4    5      0.19      0.00
  -13    4    4     -0.81      0.00
  -13    4    3     -0.54      0.00
  -13    4    2      0.33      0.00
  -13    4    1      0.41      0.00
   13    4    0      0.08      0.00
   13    4    1      0.77      0.00
   13    4    2      0.24      0.00
   13    4    3     -0.08      0.00
   13    4    4      0.44      0.00
   13    4    5      0.04      0.00
   13    4    6     -0.85      0.00
   13    4    7     -1.29      0.00
  -13    5   12     -0.14      0.00
  -13    5   11      0.14      0.00
  -13    5   10      0.12      0.00
  -13    5    9      0.32      0.00
  -13    5    8     -0.14      0.00
  -13    5    7     -0.34      0.00
  -13    5    6      0.25      0.00
  -13    5    5     -0.02      0.00
  -13    5    4      0.86      0.00
  -13    5    3      0.31      0.00
  -13    5    2     -0.28      0.00
  -13    5    1     -0.38      0.00
   13    5    0      0.14      0.00
   13    5    1     -0.41      0.00
   13    5    2     -0.34      0.00
   13    5    3      0.23      0.00
   13    5    4     -0.15      0.00
   13    5    5     -0.49      0.00
   13    5    6      0.02      0.00
   13    5    7      1.10      0.00
  -13    6   12      0.19      0.00
  -13    6   11     -0.15      0.00
  -13    6   10     -0.71      0.00
  -13    6    9     -0.20      0.00
  -13    6    8      0.24      0.00
  -13    6    7      0.45      0.00
  -13    6    6     -0.49      0.00
  -13    6    5      0.04      0.00
  -13    6    4     -0.79      0.00
  -13    6    3     -0.24      0.00
  -13    6    2      0.08      0.00
  -13    6    1      0.45      0.00
   13    6    0     -0.13      0.00
   13    6    1      0.09      0.00
   13    6    2      0.28      0.00
   13    6    3     -0.23      0.00
   13    6    4     -0.17      0.00
   13    6    5      0.43      0.00
   13    6    6      0.52      0.00
  -13    7   11     -0.01      0.00
  -13    7   10      1.22      0.00
  -13    7    9      0.10      0.00
  -13    7    8     -0.37      0.00
  -13    7    7     -0.44      0.00
  -13    7    6      0.46      0.00
  -13    7    5     -0.15      0.00
  -13    7    4      0.74      0.00
  -13    7    3      0.29      0.00
  -13    7    2      0.08      0.00
  -13    7    1     -0.55      0.00
   13    7    0      0.07      0.00
   13    7    1      0.03      0.00
   13    7    2     -0.23      0.00
   13    7    3      0.27      0.00
   13    7    4      0.35      0.00
   13    7    5     -0.24      0.00
   13    7    6     -0.53      0.00
  -13    8   11      0.18      0.00
  -13    8   10     -1.58      0.00
  -13    8    9      0.03      0.00
  -13    8    8      0.49      0.00
  -13    8    7      0.37      0.00
  -13    8    6     -0.24      0.00
  -13    8    5      0.13      0.00
  -13    8    4     -0.76      0.00
  -13    8    3     -0.31      0.00
  -13    8    2     -0.09      0.00
  -13    8    1      0.57      0.00
   13    8    0     -0.03      0.00
   13    8    1     -0.09      0.00
   13    8    2      0.34      0.00
   13    8    3     -0.23      0.00
   13    8    4     -0.53      0.00
   13    8    5      0.23      0.00
   13    8    6      0.24      0.00
  -13    9   11     -0.19      0.00
  -13    9   10      1.57      0.00
  -13    9    9     -0.21      0.00
  -13    9    8     -0.52      0.00
  -13    9    7     -0.28      0.00
  -13    9    6      0.06      0.00
  -13    9    5      0.12      0.00
  -13    9    4      0.72      0.00
  -13    9    3      0.10      0.00
  -13    9    2     -0.06      0.00
  -13    9    1     -0.49      0.00
   13    9    0     -0.05      0.00
   13    9    1      0.19      0.00
   13    9    2     -0.36      0.00
   13    9    3     -0.04      0.00
   13    9    4      0.73      0.00
   13    9    5     -0.35      0.00
   13    9    6      0.06      0.00
  -13   10   10     -1.13      0.00
  -13   10    9      0.28      0.00
  -13   10    8      0.41      0.00
  -13   10    7      0.17      0.00
  -13   10    6     -0.06      0.00
  -13   10    5     -0.47      0.00
  -13   10    4     -0.36      0.00
  -13   10    3      0.33      0.00
  -13   10    2      0.26      0.00
  -13   10    1      0.40      0.00
   13   10    0      0.12      0.00
   13   10    1     -0.16      0.00
   13   10    2      0.06      0.00
   13   10    3      0.40      0.00
   13   10    4     -0.84      0.00
   13   10    5      0.49      0.00
   13   10    6     -0.25      0.00
  -13   11    9     -0.14      0.00
  -13   11    8     -0.25      0.00
  -13   11    7     -0.06      0.00
  -13   11    6      0.24      0.00
  -13   11    5      0.59      0.00
  -13   11    4     -0.34      0.00
  -13   11    3     -0.74      0.00
  -13   11    2     -0.43      0.00
  -13   11    1     -0.29      0.00
   13   11    0      0.05      0.00
   13   11    1     -0.08      0.00
   13   11    2      0.33      0.00
   13   11    3     -0.59      0.00
   13   11    4      0.87      0.00
   13   11    5     -0.57      0.00
   13   11    6      0.27      0.00
  -13   12    9     -0.09      0.00
  -13   12    8      0.18      0.00
  -13   12    7     -0.05      0.00
  -13   12    6     -0.37      0.00
  -13   12    5     -0.27      0.00
  -13   12    4      1.04      0.00
  -13   12    3      0.82      0.00
  -13   12    2      0.48      0.00
  -13   12    1      0.04      0.00
   13   12    0     -0.42      0.00
   13   12    1      0.22      0.00
   13   12    2     -0.56      0.00
   13   12    3      0.64      0.00
   13   12    4     -0.86      0.00
   13   12    5      0.48      0.00
  -13   13    8     -0.18      0.00
  -13   13    7      0.11      0.00
  -13   13    6      0.22      0.00
  -13   13    5     -0.28      0.00
  -13   13    4     -1.25      0.00
  -13   13    3     -0.54      0.00
  -13   13    2     -0.42      0.00
  -13   13    1      0.30      0.00
   13   13    0      0.62      0.00
   13   13    1     -0.10      0.00
   13   13    2      0.69      0.00
   13   13    3     -0.65      0.00
   13   13    4      0.72      0.00
   13   13    5     -0.22      0.00
  -13   14    6      0.12      0.00
  -13   14    5      0.60      0.00
  -13   14    4      0.90      0.00
  -13   14    3      0.20      0.00
  -13   14    2      0.31      0.00
  -13   14    1     -0.49      0.00
   13   14    0     -0.48      0.00
   13   14    1     -0.04      0.00
   13   14    2     -0.81      0.00
   13   14    3      0.53      0.00
   13   14    4     -0.43      0.00
  -13   15    5     -0.54      0.00
  -13   15    3     -0.06      0.00
  -13   15    2     -0.18      0.00
  -13   15    1      0.45      0.00
   13   15    0      0.22      0.00
   13   15    1     -0.01      0.00
   13   15    2      0.76      0.00
  -13   16    2      0.02      0.00
  -14    0    8     -0.56      0.00
  -14    0    6      0.30      0.00
  -14    0    4     -0.32      0.00
  -14    0    2      1.17      0.00
   14    0    0     -0.61      0.00
   14    0    2      0.95      0.00
   14    0    4      1.79      0.00
  -14    1    9     -0.04      0.00
  -14    1    8      0.48      0.00
  -14    1    7     -0.26      0.00
  -14    1    6     -0.30      0.00
  -14    1    5      0.49      0.00
  -14    1    4      0.22      0.00
  -14    1    3     -0.30      0.00
  -14    1    2     -1.07      0.00
  -14    1    1      0.00      0.00
   14    1    0      0.64      0.00
   14    1    1      0.34      0.00
   14    1    2     -0.92      0.00
   14    1    3      0.00      0.00
   14    1    4     -1.53      0.00
   14    1    5     -0.86      0.00
  -14    2    9      0.06      0.00
  -14    2    8     -0.23      0.00
  -14    2    7      0.51      0.00
  -14    2    6      0.24      0.00
  -14    2    5     -0.86      0.00
  -14    2    4      0.05      0.00
  -14    2    3      0.40      0.00
  -14    2    2      0.81      0.00
  -14    2    1     -0.06      0.00
   14    2    0     -0.69      0.00
   14    2    1     -0.66      0.00
   14    2    2      0.83      0.00
   14    2    3      0.11      0.00
   14    2    4      0.88      0.00
   14    2    5      1.25      0.00
  -14    3    9     -0.10      0.00
  -14    3    8     -0.13      0.00
  -14    3    7     -0.59      0.00
  -14    3    6     -0.13      0.00
  -14    3    5      0.94      0.00
  -14    3    4     -0.35      0.00
  -14    3    3     -0.24      0.00
  -14    3    2     -0.50      0.00
  -14    3    1      0.23      0.00
   14    3    0      0.62      0.00
   14    3    1      0.92      0.00
   14    3    2     -0.62      0.00
   14    3    3     -0.37      0.00
   14    3    4     -0.28      0.00
   14    3    5     -1.04      0.00
  -14    4   10     -0.07      0.00
  -14    4    9      0.11      0.00
  -14    4    8      0.36      0.00
  -14    4    7      0.41      0.00
  -14    4    6      0.16      0.00
  -14    4    5     -0.72      0.00
  -14    4    4      0.45      0.00
  -14    4    3     -0.09      0.00
  -14    4    2      0.25      0.00
  -14    4    1     -0.45      0.00
   14    4    0     -0.39      0.00
   14    4    1     -0.96      0.00
   14    4    2      0.25      0.00
   14    4    3      0.61      0.00
   14    4    4      0.06      0.00
   14    4    5      0.59      0.00
  -14    5   10     -0.49      0.00
  -14    5    9     -0.07      0.00
  -14    5    8     -0.28      0.00
  -14    5    7     -0.18      0.00
  -14    5    6     -0.45      0.00
  -14    5    5      0.44      0.00
  -14    5    4     -0.31      0.00
  -14    5    3      0.33      0.00
  -14    5    2     -0.08      0.00
  -14    5    1      0.65      0.00
   14    5    0      0.07      0.00
   14    5    1      0.71      0.00
   14    5    2      0.11      0.00
   14    5    3     -0.59      0.00
   14    5    4     -0.15      0.00
   14    5    5     -0.28      0.00
  -14    6   10      0.98      0.00
  -14    6    9     -0.04      0.00
  -14    6    8     -0.06      0.00
  -14    6    7      0.13      0.00
  -14    6    6      0.79      0.00
  -14    6    5     -0.36      0.00
  -14    6    4      0.08      0.00
  -14    6    3     -0.37      0.00
  -14    6    2     -0.08      0.00
  -14    6    1     -0.76      0.00
   14    6    0      0.17      0.00
   14    6    1     -0.33      0.00
   14    6    2     -0.21      0.00
   14    6    3      0.34      0.00
   14    6    4      0.23      0.00
   14    6    5      0.16      0.00
  -14    7   10     -1.35      0.00
  -14    7    9      0.18      0.00
  -14    7    8      0.44      0.00
  -14    7    7     -0.29      0.00
  -14    7    6     -0.83      0.00
  -14    7    5      0.44      0.00
  -14    7    4      0.01      0.00
  -14    7    3      0.28      0.00
  -14    7    2      0.23      0.00
  -14    7    1      0.72      0.00
   14    7    0     -0.35      0.00
   14    7    1      0.07      0.00
   14    7    2      0.07      0.00
   14    7    3     -0.15      0.00
   14    7    4     -0.17      0.00
   14    7    5     -0.03      0.00
  -14    8   10      1.55      0.00
  -14    8    9     -0.36      0.00
  -14    8    8     -0.63      0.00
  -14    8    7      0.43      0.00
  -14    8    6      0.46      0.00
  -14    8    5     -0.40      0.00
  -14    8    4      0.05      0.00
  -14    8    3     -0.21      0.00
  -14    8    2     -0.29      0.00
  -14    8    1     -0.49      0.00
   14    8    0      0.43      0.00
   14    8    1      0.09      0.00
   14    8    2      0.11      0.00
   14    8    3      0.07      0.00
   14    8    4      0.13      0.00
  -14    9    9      0.51      0.00
  -14    9    8      0.56      0.00
  -14    9    7     -0.36      0.00
  -14    9    6      0.04      0.00
  -14    9    5      0.02      0.00
  -14    9    4     -0.07      0.00
  -14    9    3      0.25      0.00
  -14    9    2      0.16      0.00
  -14    9    1      0.21      0.00
   14    9    0     -0.31      0.00
   14    9    1     -0.17      0.00
   14    9    2     -0.35      0.00
   14    9    3      0.00      0.00
   14    9    4     -0.18      0.00
  -14   10    7      0.05      0.00
  -14   10    6     -0.27      0.00
  -14   10    5      0.56      0.00
  -14   10    4     -0.19      0.00
  -14   10    3     -0.36      0.00
  -14   10    2      0.08      0.00
  -14   10    1     -0.11      0.00
   14   10    0      0.10      0.00
   14   10    1      0.03      0.00
   14   10    2      0.69      0.00
   14   10    3     -0.04      0.00
   14   10    4      0.27      0.00
  -14   11    6      0.08      0.00
  -14   11    5     -0.94      0.00
  -14   11    4      0.74      0.00
  -14   11    3      0.46      0.00
  -14   11    2     -0.25      0.00
  -14   11    1      0.14      0.00
   14   11    0     -0.11      0.00
   14   11    1      0.35      0.00
   14   11    2     -0.93      0.00
   14   11    3      0.02      0.00
   14   11    4     -0.41      0.00
  -14   12    5      0.79      0.00
  -14   12    4     -1.29      0.00
  -14   12    3     -0.44      0.00
  -14   12    2      0.33      0.00
  -14   12    1     -0.04      0.00
   14   12    0      0.43      0.00
   14   12    1     -0.66      0.00
   14   12    2      0.89      0.00
   14   12    3     -0.02      0.00
   14   12    4      0.51      0.00
  -14   13    4      1.41      0.00
  -14   13    3      0.28      0.00
  -15    0    6     -0.50      0.00
  -15    0    4     -0.53      0.00
  -15    0    2     -0.46      0.00
   15    0    0     -0.91      0.00
   15    0    2     -1.56      0.00
  -15    1    7      0.13      0.00
  -15    1    6      0.58      0.00
  -15    1    5     -0.37      0.00
  -15    1    4      0.47      0.00
  -15    1    3     -0.16      0.00
  -15    1    2      0.46      0.00
  -15    1    1      0.30      0.00
   15    1    0      0.85      0.00
   15    1    1     -0.29      0.00
   15    1    2      1.43      0.00
   15    1    3      0.54      0.00
  -15    2    7     -0.43      0.00
  -15    2    6     -0.66      0.00
  -15    2    5      0.82      0.00
  -15    2    4     -0.33      0.00
  -15    2    3      0.30      0.00
  -15    2    2     -0.47      0.00
  -15    2    1     -0.45      0.00
   15    2    0     -0.65      0.00
   15    2    1      0.49      0.00
   15    2    2     -1.13      0.00
   15    2    3     -0.94      0.00
  -15    3    7      0.70      0.00
  -15    3    6      0.55      0.00
  -15    3    5     -1.21      0.00
  -15    3    4      0.17      0.00
  -15    3    3     -0.38      0.00
  -15    3    2      0.48      0.00
  -15    3    1      0.30      0.00
   15    3    0      0.42      0.00
   15    3    1     -0.63      0.00
   15    3    2      0.78      0.00
   15    3    3      1.18      0.00
  -15    4    8     -0.53      0.00
  -15    4    7     -0.67      0.00
  -15    4    6     -0.38      0.00
  -15    4    5      1.35      0.00
  -15    4    4      0.01      0.00
  -15    4    3      0.38      0.00
  -15    4    2     -0.41      0.00
  -15    4    1      0.10      0.00
   15    4    0     -0.36      0.00
   15    4    1      0.73      0.00
   15    4    2     -0.37      0.00
   15    4    3     -1.24      0.00
  -15    5    8      0.48      0.00
  -15    5    7      0.42      0.00
  -15    5    6      0.39      0.00
  -15    5    5     -1.29      0.00
  -15    5    4     -0.24      0.00
  -15    5    3     -0.28      0.00
  -15    5    2      0.21      0.00
  -15    5    1     -0.51      0.00
   15    5    0      0.53      0.00
   15    5    1     -0.65      0.00
   15    5    2     -0.02      0.00
   15    5    3      1.07      0.00
  -15    6    8     -0.12      0.00
  -15    6    7     -0.27      0.00
  -15    6    6     -0.55      0.00
  -15    6    5      1.19      0.00
  -15    6    4      0.42      0.00
  -15    6    3      0.15      0.00
  -15    6    2      0.04      0.00
  -15    6    1      0.72      0.00
   15    6    0     -0.77      0.00
   15    6    1      0.40      0.00
   15    6    2      0.25      0.00
  -15    7    8     -0.31      0.00
  -15    7    7      0.39      0.00
  -15    7    6      0.59      0.00
  -15    7    5     -1.07      0.00
  -15    7    4     -0.50      0.00
  -15    7    3     -0.07      0.00
  -15    7    2     -0.17      0.00
  -15    7    1     -0.68      0.00
   15    7    0      0.91      0.00
   15    7    1     -0.13      0.00
   15    7    2     -0.25      0.00
  -15    8    8      0.52      0.00
  -15    8    7     -0.61      0.00
  -15    8    6     -0.34      0.00
  -15    8    5      0.85      0.00
  -15    8    4      0.51      0.00
  -15    8    3      0.00      0.00
  -15    8    2      0.04      0.00
  -15    8    1      0.48      0.00
   15    8    0     -0.89      0.00
   15    8    1     -0.07      0.00
   15    8    2      0.11      0.00
  -15    9    7      0.62      0.00
  -15    9    6     -0.07      0.00
  -15    9    5     -0.49      0.00
  -15    9    4     -0.50      0.00
  -15    9    3      0.16      0.00
  -15    9    2      0.32      0.00
  -15    9    1     -0.33      0.00
   15    9    0      0.67      0.00
   15    9    1      0.19      0.00
   15    9    2      0.13      0.00
  -15   10    6      0.33      0.00
  -15   10    5      0.05      0.00
  -15   10    4      0.46      0.00
  -15   10    3     -0.45      0.00
  -15   10    2     -0.64      0.00
  -15   10    1      0.40      0.00
   15   10    0     -0.34      0.00
   15   10    1     -0.15      0.00
   15   10    2     -0.41      0.00
  -15   11    4     -0.39      0.00
  -15   11    3      0.67      0.00
  -15   11    2      0.63      0.00
  -15   11    1     -0.59      0.00
   15   11    0      0.20      0.00
   15   11    1     -0.05      0.00
   15   11    2      0.58      0.00
  -15   12    3     -0.65      0.00
  -15   12    2     -0.38      0.00
  -16    5    3     -0.18      0.00
  -16    6    3      0.32      0.00
  -16    7    3     -0.18      0.00
  -16    8    3     -0.02      0.00
    1    0    0    -63.35      0.00
   16    0    0      1.35      0.00
    0    1    0   -106.41      0.00
   16    1    0     -1.36      0.00
   16    2    0      1.27      0.00
   16    3    0     -1.03      0.00
   16    4    0      0.79      0.00
   16    5    0     -0.73      0.00
   16    6    0      0.74      0.00
   11   17    0     -0.35      0.00
    6   21    0      0.31      0.00
    0   22    0     -0.03      0.00
    1   22    0     -0.18      0.00
    2   22    0      0.61      0.00
    3   22    0     -0.68      0.00
    4   22    0      0.10      0.00
  -16    1    1     -0.29      0.00
   16    1    1      0.13      0.00
  -16    2    1      0.49      0.00
   16    2    1     -0.11      0.00
  -16    3    1     -0.43      0.00
   16    3    1      0.03      0.00
  -16    4    1      0.04      0.00
   16    4    1     -0.05      0.00
  -16    5    1      0.41      0.00
   16    5    1      0.08      0.00
  -16    6    1     -0.62      0.00
   11   17    1     -0.14      0.00
   -6   21    1     -0.12      0.00
    6   21    1     -0.62      0.00
   -4   22    1      0.27      0.00
   -3   22    1      0.46      0.00
   -2   22    1     -0.67      0.00
   -1   22    1      0.17      0.00
    0   22    1     -0.23      0.00
    1   22    1      0.76      0.00
    2   22    1     -0.19      0.00
    3   22    1     -0.75      0.00
    4   22    1      0.45      0.00
  -16    0    2      0.02      0.00
   16    0    2      0.70      0.00
  -16    1    2     -0.03      0.00
   16    1    2     -0.57      0.00
  -16    2    2      0.14      0.00
   16    2    2      0.33      0.00
  -16    3    2     -0.34      0.00
   16    3    2     -0.14      0.00
  -16    4    2      0.43      0.00
   16    4    2      0.02      0.00
  -16    5    2     -0.27      0.00
  -16    6    2     -0.03      0.00
  -16    7    2      0.18      0.00
   -6   21    2      0.05      0.00
   -5   21    2      0.11      0.00
    5   21    2      0.30      0.00
    6   21    2     -0.47      0.00
   -4   22    2      0.12      0.00
   -3   22    2      0.48      0.00
   -2   22    2     -0.94      0.00
   -1   22    2      0.47      0.00
    0   22    2      0.28      0.00
    1   22    2     -0.48      0.00
    2   22    2      0.19      0.00
    3   22    2      0.10      0.00
    4   22    2      0.01      0.00
  -16    1    3      0.23      0.00
   16    1    3     -0.36      0.00
  -16    2    3     -0.40      0.00
   16    2    3      0.59      0.00
  -16    3    3      0.39      0.00
  -16    4    3     -0.13      0.00
   15    6    3     -0.75      0.00
   15    7    3      0.48      0.00
   15    8    3     -0.32      0.00
   11   16    3     -0.07      0.00
   -6   21    3     -0.12      0.00
   -5   21    3     -0.29      0.00
   -4   21    3      1.17      0.00
   -3   21    3     -0.50      0.00
   -2   21    3     -0.95      0.00
    2   21    3     -1.00      0.00
    3   21    3      0.46      0.00
    4   21    3      0.33      0.00
    5   21    3      0.18      0.00
   -4   22    3     -1.13      0.00
   -3   22    3      0.56      0.00
   -2   22    3      0.78      0.00
   -1   22    3     -0.38      0.00
    0   22    3     -0.84      0.00
    1   22    3      0.21      0.00
    2   22    3      0.94      0.00
    3   22    3     -0.31      0.00
  -16    0    4      1.36      0.00
   15    0    4     -0.19      0.00
  -16    1    4     -1.22      0.00
   15    1    4      0.14      0.00
  -16    2    4      0.86      0.00
   15    2    4     -0.03      0.00
  -16    3    4     -0.41      0.00
   15    3    4     -0.04      0.00
  -16    4    4      0.06      0.00
   15    4    4      0.02      0.00
  -16    5    4      0.08      0.00
   15    5    4      0.01      0.00
  -16    6    4     -0.03      0.00
   15    6    4      0.05      0.00
   10   17    4     -0.29      0.00
   -5   21    4      0.10      0.00
   -4   21    4      0.22      0.00
   -3   21    4      0.10      0.00
   -2   21    4     -0.38      0.00
   -1   21    4      0.01      0.00
    0   21    4      0.26      0.00
    1   21    4      0.22      0.00
    2   21    4     -0.59      0.00
    3   21    4      0.29      0.00
    4   21    4     -0.08      0.00
    5   21    4      0.19      0.00
   -3   22    4     -0.21      0.00
   -2   22    4      0.53      0.00
   -1   22    4     -0.10      0.00
    0   22    4     -0.23      0.00
    1   22    4     -0.26      0.00
    2   22    4      0.65      0.00
  -16    1    5      0.20      0.00
   15    1    5      0.17      0.00
  -16    2    5     -0.53      0.00
   15    2    5     -0.20      0.00
  -16    3    5      0.90      0.00
   15    3    5      0.13      0.00
  -16    4    5     -1.13      0.00
   15    4    5     -0.11      0.00
  -16    5    5      1.15      0.00
   14    8    5     -0.17      0.00
   14    9    5      0.37      0.00
   10   16    5     -0.02      0.00
   -7   20    5     -0.16      0.00
   -6   20    5     -0.07      0.00
   -5   20    5      0.67      0.00
    5   20    5     -0.24      0.00
   -5   21    5     -0.58      0.00
   -4   21    5      0.92      0.00
   -3   21    5     -0.10      0.00
   -2   21    5     -0.48      0.00
   -1   21    5     -0.12      0.00
    0   21    5      0.41      0.00
    1   21    5      0.04      0.00
    2   21    5      0.12      0.00
    3   21    5     -0.52      0.00
    4   21    5      0.11      0.00
  -16    0    6      0.58      0.00
   14    0    6      0.29      0.00
  -16    1    6     -0.69      0.00
   14    1    6     -0.43      0.00
  -16    2    6      0.83      0.00
   14    2    6      0.67      0.00
  -16    3    6     -0.71      0.00
   14    3    6     -0.67      0.00
  -16    4    6      0.39      0.00
   14    4    6      0.37      0.00
   14    5    6     -0.02      0.00
   14    6    6     -0.13      0.00
   14    7    6      0.09      0.00
   -6   20    6     -0.25      0.00
   -5   20    6     -0.10      0.00
   -4   20    6      0.35      0.00
   -3   20    6      0.02      0.00
   -2   20    6     -0.48      0.00
   -1   20    6      0.31      0.00
    0   20    6      0.27      0.00
    1   20    6     -0.29      0.00
    2   20    6     -0.22      0.00
    3   20    6      0.20      0.00
    4   20    6      0.13      0.00
    5   20    6      0.05      0.00
   -3   21    6     -0.17      0.00
   -2   21    6      0.40      0.00
   -1   21    6     -0.02      0.00
    0   21    6     -0.37      0.00
    1   21    6      0.05      0.00
    2   21    6      0.42      0.00
   14    1    7      0.01      0.00
   14    2    7      0.11      0.00
   14    3    7     -0.28      0.00
   14    4    7      0.31      0.00
   14    5    7     -0.19      0.00
   13    6    7     -0.62      0.00
   13    7    7      0.18      0.00
   13    8    7      0.08      0.00
   -7   19    7      0.03      0.00
   -6   19    7      0.16      0.00
   -5   19    7     -0.91      0.00
    4   19    7      0.07      0.00
    5   19    7     -0.02      0.00
   -5   20    7      0.86      0.00
   -4   20    7     -0.40      0.00
   -3   20    7     -0.57      0.00
   -2   20    7      0.08      0.00
   -1   20    7      0.75      0.00
    0   20    7     -0.19      0.00
    1   20    7     -0.55      0.00
    2   20    7      0.24      0.00
    3   20    7      0.21      0.00
  -15    0    8     -0.41      0.00
   13    0    8     -1.25      0.00
  -15    1    8      0.33      0.00
   13    1    8      1.21      0.00
  -15    2    8     -0.25      0.00
   13    2    8     -1.16      0.00
  -15    3    8      0.35      0.00
   13    3    8      1.15      0.00
   13    4    8     -1.11      0.00
   13    5    8      0.87      0.00
   13    6    8     -0.46      0.00
   -7   18    8      0.00      0.00
   -6   18    8     -0.70      0.00
   -5   19    8     -0.07      0.00
   -4   19    8     -0.77      0.00
   -3   19    8      0.62      0.00
   -2   19    8      0.17      0.00
   -1   19    8      0.22      0.00
    0   19    8     -0.96      0.00
    1   19    8      0.19      0.00
    2   19    8      0.63      0.00
    3   19    8     -0.03      0.00
    4   19    8     -0.36      0.00
   -3   20    8     -0.28      0.00
   -2   20    8      0.04      0.00
   -1   20    8     -0.38      0.00
    0   20    8      0.75      0.00
    1   20    8     -0.09      0.00
  -15    1    9     -0.02      0.00
   12    1    9     -0.32      0.00
   13    1    9     -0.28      0.00
  -15    2    9      0.17      0.00
   12    2    9      0.57      0.00
   13    2    9      0.44      0.00
  -15    3    9     -0.34      0.00
   12    3    9     -0.76      0.00
   12    4    9      0.91      0.00
   12    5    9     -1.01      0.00
   12    6    9      0.99      0.00
   12    7    9     -0.82      0.00
   -7   17    9      0.85      0.00
   -6   18    9     -0.10      0.00
   -5   18    9      0.34      0.00
   -4   18    9      0.52      0.00
   -3   18    9     -0.42      0.00
   -2   18    9     -0.78      0.00
   -1   18    9      0.86      0.00
    0   18    9      0.23      0.00
    1   18    9     -0.59      0.00
    2   18    9     -0.17      0.00
    3   18    9      0.62      0.00
    4   18    9     -0.03      0.00
   -4   19    9     -0.87      0.00
   -3   19    9      0.66      0.00
   -2   19    9      0.66      0.00
   -1   19    9     -0.74      0.00
    0   19    9     -0.42      0.00
    1   19    9      0.76      0.00
    2   19    9      0.09      0.00
  -14    0   10     -0.84      0.00
   12    0   10      1.09      0.00
  -14    1   10      0.85      0.00
   12    1   10     -1.05      0.00
  -14    2   10     -0.81      0.00
   12    2   10      0.89      0.00
  -14    3   10      0.56      0.00
   12    3   10     -0.64      0.00
   12    4   10      0.39      0.00
   11    5   10      0.39      0.00
   11    6   10     -0.25      0.00
   11    7   10      0.19      0.00
   11    8   10     -0.21      0.00
   -7   16   10     -0.20      0.00
   -6   17   10     -0.98      0.00
   -5   17   10      1.52      0.00
   -4   17   10     -0.48      0.00
   -3   17   10     -0.92      0.00
   -2   17   10      0.48      0.00
   -1   17   10      0.66      0.00
    0   17   10     -0.10      0.00
    1   17   10     -0.85      0.00
    2   17   10      0.21      0.00
    3   17   10      0.55      0.00
    4   17   10     -0.22      0.00
   -4   18   10      0.35      0.00
   -3   18   10      0.67      0.00
   -2   18   10     -0.27      0.00
   -1   18   10     -0.55      0.00
    0   18   10     -0.21      0.00
    1   18   10      0.99      0.00
    2   18   10     -0.13      0.00
   11    1   11      0.21      0.00
   11    2   11     -0.40      0.00
   11    3   11      0.51      0.00
   11    4   11     -0.44      0.00
   10    7   11      0.29      0.00
   10    8   11     -0.53      0.00
   -7   15   11      0.03      0.00
   -6   15   11      0.35      0.00
   -6   16   11     -0.15      0.00
   -5   16   11      0.12      0.00
   -4   16   11      0.42      0.00
   -3   16   11     -0.66      0.00
   -2   16   11      0.21      0.00
   -1   16   11      0.14      0.00
    0   16   11      0.28      0.00
    1   16   11     -0.63      0.00
    2   16   11      0.18      0.00
    3   16   11      0.16      0.00
   -4   17   11     -0.28      0.00
   -3   17   11      0.13      0.00
   -2   17   11      0.22      0.00
   -1   17   11     -0.11      0.00
    0   17   11     -0.47      0.00
    1   17   11      0.58      0.00
    9    0   12      0.33      0.00
   10    0   12      0.08      0.00
   10    1   12     -0.04      0.00
   10    2   12      0.00      0.00
   10    3   12     -0.07      0.00
   10    4   12      0.27      0.00
    9    6   12     -0.48      0.00
    9    7   12      0.34      0.00
   -9   12   12     -0.32      0.00
   -8   13   12     -0.09      0.00
   -7   13   12      0.12      0.00
   -7   14   12      0.01      0.00
   -6   14   12      0.96      0.00
   -5   14   12     -0.93      0.00
   -4   14   12     -1.01      0.00
   -3   14   12      1.86      0.00
   -5   15   12      0.82      0.00
   -4   15   12      0.90      0.00
   -3   15   12     -1.53      0.00
   -2   15   12     -0.16      0.00
   -1   15   12      0.71      0.00
    0   15   12      0.76      0.00
    1   15   12     -0.87      0.00
    2   15   12     -0.74      0.00
    3   15   12      0.94      0.00
   -3   16   12      1.08      0.00
   -2   16   12      0.48      0.00
   -1   16   12     -0.75      0.00
    0   16   12     -0.74      0.00
    8    1   13     -1.08      0.00
    9    1   13      0.95      0.00
    8    2   13      1.69      0.00
    9    2   13     -1.46      0.00
    8    3   13     -1.75      0.00
    9    3   13      1.47      0.00
    8    4   13      1.52      0.00
    8    5   13     -1.26      0.00
    8    6   13      1.03      0.00
    8    7   13     -0.79      0.00
  -10    9   13     -0.30      0.00
   -9   10   13     -0.33      0.00
   -8   11   13     -0.51      0.00
   -7   11   13      0.43      0.00
   -7   12   13      0.01      0.00
   -6   12   13     -0.65      0.00
   -5   12   13      0.39      0.00
   -4   12   13      1.03      0.00
   -6   13   13      0.83      0.00
   -5   13   13     -0.27      0.00
   -4   13   13     -1.13      0.00
   -3   13   13      1.13      0.00
   -2   13   13      0.10      0.00
   -1   13   13     -0.18      0.00
    0   13   13     -0.61      0.00
    1   13   13      0.16      0.00
    2   13   13      0.89      0.00
    3   13   13     -0.56      0.00
   -4   14   13      0.88      0.00
   -3   14   13     -0.37      0.00
   -2   14   13     -0.66      0.00
   -1   14   13      0.19      0.00
    0   14   13      0.64      0.00
    1   14   13      0.05      0.00
    2   14   13     -1.01      0.00
   -9    7   14     -0.12      0.00
   -9    8   14      0.11      0.00
   -8    8   14     -0.25      0.00
   -8    9   14      0.30      0.00
   -7    9   14     -0.43      0.00
   -6    9   14     -0.27      0.00
   -7   10   14      0.22      0.00
   -6   10   14      0.61      0.00
   -5   10   14     -0.26      0.00
   -4   10   14     -1.19      0.00
   -3   10   14      0.82      0.00
   -6   11   14     -0.83      0.00
   -5   11   14      0.12      0.00
   -4   11   14      1.54      0.00
   -3   11   14     -0.93      0.00
   -2   11   14     -0.85      0.00
   -1   11   14      0.28      0.00
    0   11   14      1.28      0.00
    1   11   14     -0.80      0.00
    2   11   14     -0.62      0.00
    3   11   14      0.92      0.00
   -5   12   14     -0.06      0.00
   -4   12   14     -1.40      0.00
   -3   12   14      0.67      0.00
   -2   12   14      0.96      0.00
   -1   12   14     -0.33      0.00
    0   12   14     -1.19      0.00
    1   12   14      0.84      0.00
    2   12   14      0.47      0.00
   -2   13   14     -0.89      0.00
   -1   13   14      0.26      0.00
   -9    1   15      0.37      0.00
   -8    1   15     -0.38      0.00
   -9    2   15     -0.55      0.00
   -8    2   15      0.61      0.00
   -9    3   15      0.60      0.00
   -8    3   15     -0.81      0.00
   -8    4   15      1.09      0.00
   -7    4   15      0.15      0.00
   -8    5   15     -1.31      0.00
   -7    5   15     -0.21      0.00
   -6    5   15      1.61      0.00
   -8    6   15      1.31      0.00
   -7    6   15      0.40      0.00
   -6    6   15     -2.30      0.00
   -5    6   15      1.09      0.00
   -7    7   15     -0.53      0.00
   -6    7   15      2.69      0.00
   -5    7   15     -1.10      0.00
   -4    7   15     -1.56      0.00
   -3    7   15      1.05      0.00
   -6    8   15     -2.59      0.00
   -5    8   15      0.78      0.00
   -4    8   15      2.24      0.00
   -3    8   15     -1.27      0.00
   -2    8   15     -0.80      0.00
   -1    8   15     -0.28      0.00
    0    8   15      2.00      0.00
   -6    9   15      2.12      0.00
   -5    9   15     -0.36      0.00
   -4    9   15     -2.52      0.00
   -3    9   15      1.23      0.00
   -2    9   15      1.18      0.00
   -1    9   15      0.16      0.00
    0    9   15     -2.37      0.00
    1    9   15      1.60      0.00
    2    9   15      0.40      0.00
   -4   10   15      2.21      0.00
   -3   10   15     -0.84      0.00
   -2   10   15     -1.39      0.00
   -1   10   15      0.04      0.00
    0   10   15      2.13      0.00
    1   10   15     -1.44      0.00
   -7    0   16     -2.06      0.00
   -6    0   16     -0.08      0.00
   -5    0   16      3.46      0.00
   -4    0   16     -1.46      0.00
   -3    0   16     -3.79      0.00
   -2    0   16      4.72      0.00
   -7    1   16      2.04      0.00
   -6    1   16      0.03      0.00
   -5    1   16     -3.37      0.00
   -4    1   16      1.54      0.00
   -3    1   16      3.59      0.00
   -2    1   16     -4.60      0.00
   -7    2   16     -1.86      0.00
   -6    2   16      0.07      0.00
   -5    2   16      3.13      0.00
   -4    2   16     -1.80      0.00
   -3    2   16     -3.00      0.00
   -2    2   16      4.17      0.00
   -7    3   16      1.47      0.00
   -6    3   16     -0.16      0.00
   -5    3   16     -2.79      0.00
   -4    3   16      2.11      0.00
   -3    3   16      2.16      0.00
   -2    3   16     -3.46      0.00
   -1    3   16      0.44      0.00
    0    3   16      1.10      0.00
   -6    4   16      0.29      0.00
   -5    4   16      2.33      0.00
   -4    4   16     -2.31      0.00
   -3    4   16     -1.34      0.00
   -2    4   16      2.67      0.00
   -1    4   16      0.22      0.00
    0    4   16     -1.52      0.00
    1    4   16     -0.42      0.00
    2    4   16      0.99      0.00
    3    4   16      0.29      0.00
   -6    5   16     -0.50      0.00
   -5    5   16     -1.80      0.00
   -4    5   16      2.28      0.00
   -3    5   16      0.79      0.00
   -2    5   16     -2.04      0.00
   -1    5   16     -0.70      0.00
    0    5   16      1.83      0.00
    1    5   16      0.33      0.00
    2    5   16     -1.03      0.00
   -5    6   16      1.33      0.00
   -4    6   16     -2.04      0.00
   -3    6   16     -0.53      0.00
   -2    6   16      1.62      0.00
   -1    6   16      0.89      0.00
    0    6   16     -1.87      0.00
    1    6   16     -0.21      0.00
   -4    7   16      1.66      0.00
   -3    7   16      0.47      0.00
   -2    7   16     -1.30      0.00
   -1    7   16     -0.84      0.00
    0    7   16      1.63      0.00
    0    0    0      0.00      0.00
# SQUEEZE RESULTS (Version = 260221)
# Note: Data are Listed for all Voids in the P1 Unit Cell
# i.e. Centre of Gravity, Solvent Accessible Volume,
# Recovered number of Electrons in the Void and
# Details about the Squeezed Material
loop_
  _platon_squeeze_void_nr
  _platon_squeeze_void_average_x
  _platon_squeeze_void_average_y
  _platon_squeeze_void_average_z
  _platon_squeeze_void_volume
  _platon_squeeze_void_count_electrons
  _platon_squeeze_void_content
   1  0.500  0.500  0.336       485       113 ' '
# Missing Reflections Below sin(th)/lambda = 0.25
loop_
  _platon_missing_refln_index_h
  _platon_missing_refln_index_k
  _platon_missing_refln_index_l
  _platon_missing_refln_theta
    1    0    0     1.593
    0    1    0     1.160
_platon_squeeze_void_probe_radius                  1.20
_platon_squeeze_details
)
TITL pvl507_autored_a.res in P2/c
CELL   12.8658   17.5516   13.0107     90.00     96.51     90.00
SPGR P2/c
# Solvent Accessible Volume =       484
# Electrons Found in S.A.V. =       112
# Note: Atoms in Void are Labelled as Cxxx and Qxxx for all Others
Q101 0.316 0.483 0.356 !       3.03 eA-3
Q102 0.313 0.459 0.218 !       2.20 eA-3
Q103 0.748 0.487 0.081 !       2.03 eA-3
C104 0.686 0.442 0.228 !       1.96 eA-3
C105 0.373 0.375 0.206 !       1.39 eA-3
Q106 0.732 0.516 0.860 !       1.25 eA-3
C107 0.439 0.498 0.421 !       1.11 eA-3
Q108 0.670 0.562 0.006 !       1.03 eA-3
Q109 0.197 0.513 0.500 !       1.00 eA-3
Q110 0.331 0.453 0.027 !       0.95 eA-3
Q111 0.925 0.878 0.370 !       0.76 eA-3
Q112 0.015 0.252 0.135 !       0.75 eA-3
Q113 0.029 0.761 0.148 !       0.63 eA-3
C114 0.467 0.424 0.309 !       0.62 eA-3
Q115 0.086 0.020 0.122 !       0.56 eA-3
C116 0.500 0.609 0.751 !       0.56 eA-3
Q117 0.766 0.528 0.923 !       0.52 eA-3
Q118 0.768 0.982 0.015 !       0.51 eA-3
)
;
_shelx_fab_checksum   36898

