 
data_pvl852_autored_a
 
_audit_creation_method            'SHELXL-2018/3'
_shelx_SHELXL_version_number      '2018/3'
_chemical_name_systematic         ?
_chemical_name_common             ?
_chemical_melting_point           ?
_chemical_formula_moiety          ?
_chemical_formula_sum
 'C3.43 H3.20 N0.91 O0.69 S0.11 Zn0.11' 
_chemical_formula_weight          79.32

loop_
 _atom_type_symbol
 _atom_type_description
 _atom_type_scat_dispersion_real
 _atom_type_scat_dispersion_imag
 _atom_type_scat_source
 'C'  'C'   0.0033   0.0016
 'International Tables Vol C Tables 4.2.6.8 and 6.1.1.4'
 'H'  'H'   0.0000   0.0000
 'International Tables Vol C Tables 4.2.6.8 and 6.1.1.4'
 'N'  'N'   0.0061   0.0033
 'International Tables Vol C Tables 4.2.6.8 and 6.1.1.4'
 'O'  'O'   0.0106   0.0060
 'International Tables Vol C Tables 4.2.6.8 and 6.1.1.4'
 'S'  'S'   0.1246   0.1234
 'International Tables Vol C Tables 4.2.6.8 and 6.1.1.4'
 'Zn'  'Zn'   0.2839   1.4301
 'International Tables Vol C Tables 4.2.6.8 and 6.1.1.4'
 
_space_group_crystal_system       monoclinic
_space_group_IT_number            14
_space_group_name_H-M_alt         'P 21/c'
_space_group_name_Hall            '-P 2ybc'
 
_shelx_space_group_comment
;
The symmetry employed for this shelxl refinement is uniquely defined
by the following loop, which should always be used as a source of
symmetry information in preference to the above space-group names.
They are only intended as comments.
;
 
loop_
 _space_group_symop_operation_xyz
 'x, y, z'
 '-x, y+1/2, -z+1/2'
 '-x, -y, -z'
 'x, -y-1/2, z-1/2'
 
_cell_length_a                    9.6884(2)
_cell_length_b                    15.7006(4)
_cell_length_c                    20.3799(5)
_cell_angle_alpha                 90
_cell_angle_beta                  98.976(2)
_cell_angle_gamma                 90
_cell_volume                      3062.10(13)
_cell_formula_units_Z             35
_cell_measurement_temperature     170(2)
_cell_measurement_reflns_used     ?
_cell_measurement_theta_min       ?
_cell_measurement_theta_max       ?
 
_exptl_crystal_description        ?
_exptl_crystal_colour             ?
_exptl_crystal_density_meas       ?
_exptl_crystal_density_method     ?
_exptl_crystal_density_diffrn     1.505          
_exptl_crystal_F_000              1432
_exptl_transmission_factor_min    ?
_exptl_transmission_factor_max    ?
_exptl_crystal_size_max           ?
_exptl_crystal_size_mid           ?
_exptl_crystal_size_min           ?
_exptl_absorpt_coefficient_mu     0.928
_shelx_estimated_absorpt_T_min    ?
_shelx_estimated_absorpt_T_max    ?
_exptl_absorpt_correction_type    ?
_exptl_absorpt_correction_T_min   ?
_exptl_absorpt_correction_T_max   ?
_exptl_absorpt_process_details    ?
_exptl_absorpt_special_details    ?
_diffrn_ambient_temperature       170(2)
_diffrn_radiation_wavelength      0.71073
_diffrn_radiation_type            MoK\a
_diffrn_source                    ?
_diffrn_measurement_device_type   ?
_diffrn_measurement_method        ?
_diffrn_detector_area_resol_mean  ?
_diffrn_reflns_number             24446
_diffrn_reflns_av_unetI/netI      0.0218
_diffrn_reflns_av_R_equivalents   0.0203
_diffrn_reflns_limit_h_min        -13
_diffrn_reflns_limit_h_max        12
_diffrn_reflns_limit_k_min        -20
_diffrn_reflns_limit_k_max        21
_diffrn_reflns_limit_l_min        -27
_diffrn_reflns_limit_l_max        21
_diffrn_reflns_theta_min          2.023
_diffrn_reflns_theta_max          28.951
_diffrn_reflns_theta_full         25.242
_diffrn_measured_fraction_theta_max   0.875
_diffrn_measured_fraction_theta_full  1.000
_diffrn_reflns_Laue_measured_fraction_max    0.875
_diffrn_reflns_Laue_measured_fraction_full   1.000
_diffrn_reflns_point_group_measured_fraction_max   0.875
_diffrn_reflns_point_group_measured_fraction_full  1.000
_reflns_number_total              7083
_reflns_number_gt                 6214
_reflns_threshold_expression      'I > 2\s(I)'
_reflns_Friedel_coverage          0.000
_reflns_Friedel_fraction_max      .
_reflns_Friedel_fraction_full     .
 
_reflns_special_details
;
 Reflections were merged by SHELXL according to the crystal
 class for the calculation of statistics and refinement.
 
 _reflns_Friedel_fraction is defined as the number of unique
 Friedel pairs measured divided by the number that would be
 possible theoretically, ignoring centric projections and
 systematic absences.
;
 
_computing_data_collection        ?
_computing_cell_refinement        ?
_computing_data_reduction         ?
_computing_structure_solution     'SHELXT 2018/2 (Sheldrick, 2018)'
_computing_structure_refinement 'SHELXL-2018/3 (Sheldrick, 2018)'
_computing_molecular_graphics     ?
_computing_publication_material   ?
_refine_special_details           ?
_refine_ls_structure_factor_coef  Fsqd
_refine_ls_matrix_type            full
_refine_ls_weighting_scheme       calc
_refine_ls_weighting_details
'w=1/[\s^2^(Fo^2^)+(0.0352P)^2^+1.8480P] where P=(Fo^2^+2Fc^2^)/3'
_atom_sites_solution_primary      ?
_atom_sites_solution_secondary    ?
_atom_sites_solution_hydrogens    geom
_refine_ls_hydrogen_treatment     constr
_refine_ls_extinction_method      none
_refine_ls_extinction_coef        .
_refine_ls_number_reflns          7083
_refine_ls_number_parameters      419
_refine_ls_number_restraints      0
_refine_ls_R_factor_all           0.0351
_refine_ls_R_factor_gt            0.0288
_refine_ls_wR_factor_ref          0.0747
_refine_ls_wR_factor_gt           0.0712
_refine_ls_goodness_of_fit_ref    1.024
_refine_ls_restrained_S_all       1.024
_refine_ls_shift/su_max           0.003
_refine_ls_shift/su_mean          0.000
 
loop_
 _atom_site_label
 _atom_site_type_symbol
 _atom_site_fract_x
 _atom_site_fract_y
 _atom_site_fract_z
 _atom_site_U_iso_or_equiv
 _atom_site_adp_type
 _atom_site_occupancy
 _atom_site_site_symmetry_order  
 _atom_site_calc_flag
 _atom_site_refinement_flags_posn
 _atom_site_refinement_flags_adp
 _atom_site_refinement_flags_occupancy
 _atom_site_disorder_assembly
 _atom_site_disorder_group
Zn1 Zn 0.76041(2) 0.19566(2) 0.64229(2) 0.01539(6) Uani 1 1 d . . . . .
S1 S 0.22519(4) 0.11036(3) 0.39083(2) 0.02358(10) Uani 1 1 d . . . . .
O1 O 0.69107(13) 0.29402(7) 0.68596(6) 0.0258(3) Uani 1 1 d . . . . .
O2 O 0.30340(12) 0.57957(7) 0.84312(6) 0.0244(3) Uani 1 1 d . . . . .
O3 O 0.50781(12) 0.63813(7) 0.88250(6) 0.0260(3) Uani 1 1 d . . . . .
O4 O 0.76629(13) 0.22947(8) 0.78210(6) 0.0278(3) Uani 1 1 d . . . . .
N3 N 0.17969(13) 0.30769(9) 0.22893(7) 0.0189(3) Uani 1 1 d . . . . .
N4 N -0.02928(13) 0.31286(8) 0.16896(7) 0.0188(3) Uani 1 1 d . . . . .
N5 N 0.73326(13) 0.23301(9) 0.54625(6) 0.0185(3) Uani 1 1 d . . . . .
N6 N 0.61738(13) 0.26843(9) 0.44838(6) 0.0175(3) Uani 1 1 d . . . . .
N7 N 0.17951(14) 0.17194(9) 0.32825(7) 0.0221(3) Uani 1 1 d . . . . .
N8 N 0.37057(13) 0.15242(9) 0.42380(7) 0.0203(3) Uani 1 1 d . . . . .
C1 C 0.19761(17) 0.33591(12) 0.16644(8) 0.0235(3) Uani 1 1 d . . . . .
H1 H 0.283139 0.350473 0.151951 0.028 Uiso 1 1 calc R U . . .
C2 C 0.06791(17) 0.33844(12) 0.13022(8) 0.0235(3) Uani 1 1 d . . . . .
H2 H 0.047053 0.355291 0.084990 0.028 Uiso 1 1 calc R U . . .
C3 C 0.04109(15) 0.29470(10) 0.22796(8) 0.0189(3) Uani 1 1 d . . . . .
H3 H 0.000352 0.275220 0.264712 0.023 Uiso 1 1 calc R U . . .
C4 C 0.28736(16) 0.29795(10) 0.28450(8) 0.0192(3) Uani 1 1 d . . . . .
C5 C 0.28094(15) 0.23089(10) 0.33046(8) 0.0181(3) Uani 1 1 d . . . . .
C6 C 0.39114(15) 0.22012(10) 0.38555(7) 0.0169(3) Uani 1 1 d . . . . .
C7 C 0.50665(15) 0.27729(10) 0.39418(8) 0.0177(3) Uani 1 1 d . . . . .
C8 C 0.50874(16) 0.34112(11) 0.34876(8) 0.0217(3) Uani 1 1 d . . . . .
H8 H 0.585201 0.379697 0.353825 0.026 Uiso 1 1 calc R U . . .
C9 C 0.39961(16) 0.35118(11) 0.29428(8) 0.0227(3) Uani 1 1 d . . . . .
H9 H 0.404952 0.396325 0.263745 0.027 Uiso 1 1 calc R U . . .
C10 C 0.81562(16) 0.28586(11) 0.51430(8) 0.0221(3) Uani 1 1 d . . . . .
H10 H 0.907718 0.303474 0.532020 0.027 Uiso 1 1 calc R U . . .
C11 C 0.74632(16) 0.30877(11) 0.45439(8) 0.0226(3) Uani 1 1 d . . . . .
H11 H 0.778915 0.345030 0.422774 0.027 Uiso 1 1 calc R U . . .
C12 C 0.61525(16) 0.22328(10) 0.50500(8) 0.0187(3) Uani 1 1 d . . . . .
H12 H 0.539053 0.189271 0.513719 0.022 Uiso 1 1 calc R U . . .
C13 C 0.70594(16) 0.28855(10) 0.74949(8) 0.0208(3) Uani 1 1 d . . . . .
C14 C 0.64069(16) 0.36112(10) 0.78251(8) 0.0189(3) Uani 1 1 d . . . . .
C15 C 0.51605(17) 0.39293(11) 0.75088(8) 0.0236(3) Uani 1 1 d . . . . .
H15 H 0.474671 0.368863 0.709705 0.028 Uiso 1 1 calc R U . . .
C16 C 0.44852(17) 0.46013(11) 0.77800(8) 0.0235(3) Uani 1 1 d . . . . .
H16 H 0.360863 0.479645 0.755598 0.028 Uiso 1 1 calc R U . . .
C17 C 0.50670(16) 0.49834(10) 0.83640(8) 0.0194(3) Uani 1 1 d . . . . .
C18 C 0.63452(16) 0.46596(10) 0.87244(8) 0.0182(3) Uani 1 1 d . . . . .
C19 C 0.70261(16) 0.39648(10) 0.84503(8) 0.0177(3) Uani 1 1 d . . . . .
C20 C 0.43712(16) 0.57777(10) 0.85703(8) 0.0204(3) Uani 1 1 d . . . . .
C21 C 0.69448(17) 0.49828(11) 0.93584(8) 0.0231(3) Uani 1 1 d . . . . .
H21 H 0.649400 0.543427 0.955199 0.028 Uiso 1 1 calc R U . . .
C22 C 0.81599(18) 0.46519(11) 0.96917(9) 0.0260(4) Uani 1 1 d . . . . .
H22 H 0.853728 0.486869 1.011714 0.031 Uiso 1 1 calc R U . . .
C23 C 0.88536(17) 0.39947(11) 0.94101(8) 0.0241(3) Uani 1 1 d . . . . .
H23 H 0.971192 0.378146 0.964063 0.029 Uiso 1 1 calc R U . . .
C24 C 0.83071(16) 0.36589(11) 0.88082(8) 0.0215(3) Uani 1 1 d . . . . .
H24 H 0.879048 0.321321 0.862525 0.026 Uiso 1 1 calc R U . . .
O5 O 0.79757(18) 0.46889(10) 0.36623(8) 0.0492(4) Uani 1 1 d . . . . .
N9 N 0.96997(19) 0.51926(11) 0.31473(9) 0.0396(4) Uani 1 1 d . . . . .
C25 C 1.0457(3) 0.51622(16) 0.25850(13) 0.0517(6) Uani 1 1 d . . . . .
H25A H 1.003867 0.472883 0.226896 0.078 Uiso 1 1 calc R U . . .
H25B H 1.143677 0.501792 0.274148 0.078 Uiso 1 1 calc R U . . .
H25C H 1.040409 0.571936 0.236578 0.078 Uiso 1 1 calc R U . . .
C26 C 0.8682(2) 0.46520(13) 0.32205(10) 0.0369(4) Uani 1 1 d . . . . .
H26 H 0.849297 0.420487 0.290532 0.044 Uiso 1 1 calc R U . . .
C27 C 1.0038(4) 0.58729(18) 0.36162(16) 0.0772(10) Uani 1 1 d . . . . .
H27A H 1.104187 0.599353 0.366653 0.116 Uiso 1 1 calc R U . . .
H27B H 0.979314 0.570507 0.404657 0.116 Uiso 1 1 calc R U . . .
H27C H 0.951135 0.638411 0.345519 0.116 Uiso 1 1 calc R U . . .
O6 O 0.14072(19) 0.26311(14) 0.48960(12) 0.0740(6) Uani 1 1 d . . . . .
N2 N 0.3013(2) 0.36751(13) 0.51471(10) 0.0503(5) Uani 1 1 d . . . . .
C28 C 0.4306(3) 0.39617(19) 0.55478(15) 0.0672(8) Uani 1 1 d . . . . .
H28A H 0.497508 0.412584 0.525591 0.101 Uiso 1 1 calc R U . . .
H28B H 0.470125 0.349928 0.584148 0.101 Uiso 1 1 calc R U . . .
H28C H 0.411279 0.445308 0.581575 0.101 Uiso 1 1 calc R U . . .
C29 C 0.2496(3) 0.29030(17) 0.52098(14) 0.0535(6) Uani 1 1 d . . . . .
H29 H 0.301345 0.253092 0.552406 0.064 Uiso 1 1 calc R U . . .
C30 C 0.2274(4) 0.4285(2) 0.46899(17) 0.0794(9) Uani 1 1 d . . . . .
H30A H 0.288522 0.447804 0.437901 0.119 Uiso 1 1 calc R U . . .
H30B H 0.199817 0.477399 0.493863 0.119 Uiso 1 1 calc R U . . .
H30C H 0.143906 0.401643 0.444210 0.119 Uiso 1 1 calc R U . . .
 
loop_
 _atom_site_aniso_label
 _atom_site_aniso_U_11
 _atom_site_aniso_U_22
 _atom_site_aniso_U_33
 _atom_site_aniso_U_23
 _atom_site_aniso_U_13
 _atom_site_aniso_U_12
Zn1 0.01380(9) 0.01776(9) 0.01331(10) -0.00083(6) -0.00190(6) -0.00055(7)
S1 0.01817(18) 0.0264(2) 0.0246(2) 0.00739(16) -0.00183(15) -0.00466(16)
O1 0.0312(6) 0.0260(6) 0.0200(6) -0.0065(5) 0.0038(5) 0.0035(5)
O2 0.0194(5) 0.0220(6) 0.0314(7) 0.0012(5) 0.0032(5) 0.0052(5)
O3 0.0240(6) 0.0226(6) 0.0324(7) -0.0044(5) 0.0072(5) 0.0014(5)
O4 0.0299(6) 0.0251(6) 0.0292(7) 0.0000(5) 0.0073(5) 0.0081(5)
N3 0.0134(6) 0.0277(7) 0.0144(7) 0.0044(5) -0.0016(5) -0.0009(5)
N4 0.0150(6) 0.0241(7) 0.0160(7) 0.0017(5) -0.0016(5) 0.0012(5)
N5 0.0154(6) 0.0243(7) 0.0144(6) -0.0007(5) -0.0020(5) -0.0006(5)
N6 0.0129(6) 0.0245(7) 0.0139(6) 0.0014(5) -0.0016(5) -0.0015(5)
N7 0.0164(6) 0.0262(7) 0.0222(7) 0.0042(6) -0.0017(5) -0.0031(5)
N8 0.0164(6) 0.0253(7) 0.0182(7) 0.0041(5) 0.0000(5) -0.0009(5)
C1 0.0173(7) 0.0353(9) 0.0176(8) 0.0054(7) 0.0019(6) -0.0019(7)
C2 0.0203(7) 0.0352(9) 0.0140(8) 0.0047(7) -0.0006(6) -0.0005(7)
C3 0.0121(7) 0.0265(8) 0.0171(8) 0.0028(6) -0.0009(6) 0.0001(6)
C4 0.0137(7) 0.0279(8) 0.0149(8) 0.0028(6) -0.0013(6) 0.0013(6)
C5 0.0125(6) 0.0243(8) 0.0168(8) 0.0009(6) -0.0002(6) -0.0002(6)
C6 0.0144(7) 0.0221(7) 0.0139(7) 0.0009(6) 0.0011(6) 0.0020(6)
C7 0.0135(7) 0.0253(8) 0.0132(7) 0.0004(6) -0.0008(6) 0.0006(6)
C8 0.0157(7) 0.0280(8) 0.0200(8) 0.0035(7) -0.0017(6) -0.0047(6)
C9 0.0189(7) 0.0293(9) 0.0185(8) 0.0085(7) -0.0012(6) -0.0028(7)
C10 0.0160(7) 0.0286(8) 0.0201(8) 0.0001(6) -0.0024(6) -0.0052(6)
C11 0.0160(7) 0.0296(9) 0.0213(8) 0.0030(7) -0.0005(6) -0.0058(6)
C12 0.0148(7) 0.0258(8) 0.0147(7) 0.0010(6) -0.0002(6) -0.0018(6)
C13 0.0173(7) 0.0224(8) 0.0235(9) -0.0049(6) 0.0052(6) -0.0035(6)
C14 0.0194(7) 0.0199(7) 0.0181(8) -0.0001(6) 0.0048(6) -0.0004(6)
C15 0.0232(8) 0.0279(8) 0.0186(8) -0.0036(7) -0.0002(6) 0.0012(7)
C16 0.0188(7) 0.0280(8) 0.0226(9) 0.0014(7) 0.0002(6) 0.0058(7)
C17 0.0189(7) 0.0213(8) 0.0189(8) 0.0010(6) 0.0051(6) 0.0018(6)
C18 0.0176(7) 0.0198(7) 0.0177(8) 0.0016(6) 0.0041(6) 0.0002(6)
C19 0.0162(7) 0.0202(7) 0.0169(8) 0.0010(6) 0.0035(6) -0.0010(6)
C20 0.0209(7) 0.0227(8) 0.0183(8) 0.0043(6) 0.0053(6) 0.0038(6)
C21 0.0253(8) 0.0244(8) 0.0196(8) -0.0027(6) 0.0036(6) 0.0037(7)
C22 0.0269(8) 0.0310(9) 0.0187(8) -0.0031(7) -0.0009(7) -0.0008(7)
C23 0.0186(7) 0.0299(9) 0.0227(9) 0.0024(7) -0.0007(6) 0.0016(7)
C24 0.0182(7) 0.0250(8) 0.0217(8) 0.0007(6) 0.0042(6) 0.0034(6)
O5 0.0530(9) 0.0444(9) 0.0515(10) 0.0067(7) 0.0121(8) -0.0100(8)
N9 0.0483(10) 0.0324(9) 0.0378(10) 0.0022(7) 0.0058(8) -0.0087(8)
C25 0.0514(13) 0.0450(13) 0.0623(16) 0.0057(11) 0.0201(12) 0.0004(11)
C26 0.0417(11) 0.0328(10) 0.0332(11) -0.0040(8) -0.0039(9) 0.0055(9)
C27 0.114(3) 0.0549(16) 0.0687(19) -0.0209(14) 0.0337(18) -0.0409(17)
O6 0.0420(10) 0.0769(14) 0.1090(18) -0.0109(12) 0.0302(11) -0.0048(10)
N2 0.0583(12) 0.0490(11) 0.0440(12) 0.0014(9) 0.0093(10) 0.0064(10)
C28 0.0719(18) 0.0675(18) 0.0619(18) -0.0207(14) 0.0100(15) 0.0024(15)
C29 0.0485(14) 0.0554(15) 0.0641(17) 0.0048(12) 0.0319(13) 0.0083(12)
C30 0.098(2) 0.0661(19) 0.070(2) 0.0174(16) -0.0016(18) 0.0105(18)
 
_geom_special_details
;
 All esds (except the esd in the dihedral angle between two l.s. planes)
 are estimated using the full covariance matrix.  The cell esds are taken
 into account individually in the estimation of esds in distances, angles
 and torsion angles; correlations between esds in cell parameters are only
 used when they are defined by crystal symmetry.  An approximate (isotropic)
 treatment of cell esds is used for estimating esds involving l.s. planes.
;
 
loop_
 _geom_bond_atom_site_label_1
 _geom_bond_atom_site_label_2
 _geom_bond_distance
 _geom_bond_site_symmetry_2
 _geom_bond_publ_flag
Zn1 O1 1.9532(11) . ?
Zn1 O2 1.9622(12) 2_646 ?
Zn1 N5 2.0207(13) . ?
Zn1 N4 2.0297(13) 4_666 ?
S1 N8 1.6050(13) . ?
S1 N7 1.6067(14) . ?
O1 C13 1.283(2) . ?
O2 C20 1.2826(19) . ?
O3 C20 1.235(2) . ?
O4 C13 1.234(2) . ?
N3 C3 1.3553(19) . ?
N3 C1 1.385(2) . ?
N3 C4 1.423(2) . ?
N4 C3 1.318(2) . ?
N4 C2 1.380(2) . ?
N5 C12 1.3181(19) . ?
N5 C10 1.382(2) . ?
N6 C12 1.357(2) . ?
N6 C11 1.389(2) . ?
N6 C7 1.4215(19) . ?
N7 C5 1.346(2) . ?
N8 C6 1.351(2) . ?
C1 C2 1.355(2) . ?
C4 C9 1.361(2) . ?
C4 C5 1.417(2) . ?
C5 C6 1.433(2) . ?
C6 C7 1.424(2) . ?
C7 C8 1.367(2) . ?
C8 C9 1.417(2) . ?
C10 C11 1.347(2) . ?
C13 C14 1.511(2) . ?
C14 C15 1.371(2) . ?
C14 C19 1.433(2) . ?
C15 C16 1.400(2) . ?
C16 C17 1.373(2) . ?
C17 C18 1.431(2) . ?
C17 C20 1.508(2) . ?
C18 C21 1.425(2) . ?
C18 C19 1.433(2) . ?
C19 C24 1.422(2) . ?
C21 C22 1.367(2) . ?
C22 C23 1.402(2) . ?
C23 C24 1.364(2) . ?
O5 C26 1.214(3) . ?
N9 C26 1.327(3) . ?
N9 C27 1.437(3) . ?
N9 C25 1.454(3) . ?
O6 C29 1.222(3) . ?
N2 C29 1.326(3) . ?
N2 C30 1.446(3) . ?
N2 C28 1.456(3) . ?
 
loop_
 _geom_angle_atom_site_label_1
 _geom_angle_atom_site_label_2
 _geom_angle_atom_site_label_3
 _geom_angle
 _geom_angle_site_symmetry_1
 _geom_angle_site_symmetry_3
 _geom_angle_publ_flag
O1 Zn1 O2 121.77(5) . 2_646 ?
O1 Zn1 N5 102.12(5) . . ?
O2 Zn1 N5 114.83(5) 2_646 . ?
O1 Zn1 N4 109.41(5) . 4_666 ?
O2 Zn1 N4 103.01(5) 2_646 4_666 ?
N5 Zn1 N4 104.60(5) . 4_666 ?
N8 S1 N7 101.52(7) . . ?
C13 O1 Zn1 114.48(11) . . ?
C20 O2 Zn1 108.56(10) . 2_656 ?
C3 N3 C1 107.51(13) . . ?
C3 N3 C4 126.65(13) . . ?
C1 N3 C4 125.79(13) . . ?
C3 N4 C2 106.44(13) . . ?
C3 N4 Zn1 125.81(11) . 4_465 ?
C2 N4 Zn1 127.75(11) . 4_465 ?
C12 N5 C10 106.03(13) . . ?
C12 N5 Zn1 123.57(11) . . ?
C10 N5 Zn1 129.26(10) . . ?
C12 N6 C11 107.22(13) . . ?
C12 N6 C7 127.02(13) . . ?
C11 N6 C7 125.68(13) . . ?
C5 N7 S1 106.14(11) . . ?
C6 N8 S1 106.32(10) . . ?
C2 C1 N3 105.77(14) . . ?
C1 C2 N4 109.73(14) . . ?
N4 C3 N3 110.56(14) . . ?
C9 C4 C5 118.41(14) . . ?
C9 C4 N3 121.35(14) . . ?
C5 C4 N3 120.23(14) . . ?
N7 C5 C4 126.59(14) . . ?
N7 C5 C6 113.33(14) . . ?
C4 C5 C6 120.08(14) . . ?
N8 C6 C7 127.47(14) . . ?
N8 C6 C5 112.69(14) . . ?
C7 C6 C5 119.83(14) . . ?
C8 C7 N6 120.60(14) . . ?
C8 C7 C6 118.23(14) . . ?
N6 C7 C6 121.18(14) . . ?
C7 C8 C9 121.62(15) . . ?
C4 C9 C8 121.84(15) . . ?
C11 C10 N5 110.14(14) . . ?
C10 C11 N6 105.80(14) . . ?
N5 C12 N6 110.79(14) . . ?
O4 C13 O1 124.26(15) . . ?
O4 C13 C14 121.54(15) . . ?
O1 C13 C14 114.20(14) . . ?
C15 C14 C19 119.52(14) . . ?
C15 C14 C13 117.66(14) . . ?
C19 C14 C13 122.82(14) . . ?
C14 C15 C16 121.36(15) . . ?
C17 C16 C15 121.18(15) . . ?
C16 C17 C18 119.68(14) . . ?
C16 C17 C20 117.52(14) . . ?
C18 C17 C20 122.63(14) . . ?
C21 C18 C17 122.46(14) . . ?
C21 C18 C19 118.52(14) . . ?
C17 C18 C19 118.98(14) . . ?
C24 C19 C18 118.38(14) . . ?
C24 C19 C14 122.43(14) . . ?
C18 C19 C14 119.18(14) . . ?
O3 C20 O2 123.42(15) . . ?
O3 C20 C17 120.59(14) . . ?
O2 C20 C17 115.89(14) . . ?
C22 C21 C18 120.86(15) . . ?
C21 C22 C23 120.47(16) . . ?
C24 C23 C22 120.59(15) . . ?
C23 C24 C19 121.08(15) . . ?
C26 N9 C27 119.8(2) . . ?
C26 N9 C25 122.85(19) . . ?
C27 N9 C25 117.2(2) . . ?
O5 C26 N9 124.6(2) . . ?
C29 N2 C30 120.7(3) . . ?
C29 N2 C28 122.3(2) . . ?
C30 N2 C28 116.9(2) . . ?
O6 C29 N2 125.3(3) . . ?
 
_refine_diff_density_max    0.470
_refine_diff_density_min   -0.335
_refine_diff_density_rms    0.054

_shelx_res_file
;
TITL pvl852_autored_a.res in P2(1)/c
    pvl852_autored_a.res
    created by SHELXL-2018/3 at 18:53:25 on 19-Nov-2022
REM Old TITL pvl852_autored in P2(1)/c
REM SHELXT solution in P2(1)/c: R1 0.081, Rweak 0.004, Alpha 0.020
REM <I/s>   0.587 for  244 systematic absences,  Orientation as input
REM Formula found by SHELXT:  C32 N6 O6 S Zn
CELL  0.71073   9.6884  15.7006  20.3799   90.000   98.976   90.000
ZERR   35.000   0.0002   0.0004   0.0005    0.000    0.002    0.000
LATT  1
SYMM -X, 1/2+Y, 1/2-Z
SFAC C H N O S ZN
UNIT 120 112 32 24 4 4
ACTA
TEMP -103
L.S. 10
BOND
LIST 6
FMAP 2
PLAN 20
WGHT    0.035200    1.848000
FVAR       0.29575
ZN1   6    0.760406    0.195661    0.642285    11.00000    0.01380    0.01776 =
         0.01331   -0.00083   -0.00190   -0.00055
S1    5    0.225191    0.110357    0.390835    11.00000    0.01817    0.02636 =
         0.02456    0.00739   -0.00183   -0.00466
O1    4    0.691071    0.294023    0.685961    11.00000    0.03117    0.02603 =
         0.01999   -0.00646    0.00375    0.00352
O2    4    0.303403    0.579574    0.843119    11.00000    0.01941    0.02204 =
         0.03140    0.00123    0.00322    0.00524
O3    4    0.507813    0.638128    0.882500    11.00000    0.02402    0.02255 =
         0.03241   -0.00441    0.00720    0.00144
O4    4    0.766288    0.229467    0.782095    11.00000    0.02986    0.02512 =
         0.02917    0.00003    0.00730    0.00807
N3    3    0.179694    0.307695    0.228931    11.00000    0.01342    0.02770 =
         0.01445    0.00440   -0.00159   -0.00087
N4    3   -0.029281    0.312859    0.168960    11.00000    0.01503    0.02410 =
         0.01596    0.00167   -0.00165    0.00123
N5    3    0.733260    0.233013    0.546249    11.00000    0.01540    0.02434 =
         0.01443   -0.00072   -0.00203   -0.00061
N6    3    0.617377    0.268425    0.448383    11.00000    0.01287    0.02455 =
         0.01387    0.00144   -0.00161   -0.00152
N7    3    0.179510    0.171942    0.328249    11.00000    0.01642    0.02625 =
         0.02220    0.00423   -0.00166   -0.00314
N8    3    0.370566    0.152419    0.423800    11.00000    0.01639    0.02534 =
         0.01825    0.00414   -0.00004   -0.00087
C1    1    0.197607    0.335907    0.166437    11.00000    0.01734    0.03534 =
         0.01755    0.00537    0.00193   -0.00191
AFIX  43
H1    2    0.283139    0.350473    0.151951    11.00000   -1.20000
AFIX   0
C2    1    0.067911    0.338442    0.130223    11.00000    0.02032    0.03525 =
         0.01401    0.00470   -0.00063   -0.00052
AFIX  43
H2    2    0.047053    0.355291    0.084990    11.00000   -1.20000
AFIX   0
C3    1    0.041094    0.294704    0.227964    11.00000    0.01215    0.02648 =
         0.01715    0.00285   -0.00093    0.00013
AFIX  43
H3    2    0.000352    0.275220    0.264712    11.00000   -1.20000
AFIX   0
C4    1    0.287362    0.297954    0.284500    11.00000    0.01367    0.02786 =
         0.01488    0.00285   -0.00131    0.00134
C5    1    0.280941    0.230888    0.330463    11.00000    0.01248    0.02433 =
         0.01682    0.00092   -0.00018   -0.00016
C6    1    0.391136    0.220120    0.385545    11.00000    0.01435    0.02215 =
         0.01387    0.00086    0.00114    0.00200
C7    1    0.506646    0.277285    0.394182    11.00000    0.01354    0.02531 =
         0.01324    0.00035   -0.00083    0.00057
C8    1    0.508736    0.341119    0.348762    11.00000    0.01570    0.02800 =
         0.01999    0.00347   -0.00173   -0.00471
AFIX  43
H8    2    0.585201    0.379697    0.353825    11.00000   -1.20000
AFIX   0
C9    1    0.399607    0.351178    0.294282    11.00000    0.01888    0.02928 =
         0.01850    0.00852   -0.00116   -0.00278
AFIX  43
H9    2    0.404952    0.396325    0.263745    11.00000   -1.20000
AFIX   0
C10   1    0.815619    0.285863    0.514300    11.00000    0.01604    0.02856 =
         0.02014    0.00007   -0.00238   -0.00524
AFIX  43
H10   2    0.907718    0.303474    0.532020    11.00000   -1.20000
AFIX   0
C11   1    0.746315    0.308768    0.454388    11.00000    0.01598    0.02955 =
         0.02129    0.00301   -0.00052   -0.00578
AFIX  43
H11   2    0.778915    0.345030    0.422774    11.00000   -1.20000
AFIX   0
C12   1    0.615248    0.223276    0.505000    11.00000    0.01484    0.02579 =
         0.01474    0.00103   -0.00015   -0.00176
AFIX  43
H12   2    0.539053    0.189271    0.513719    11.00000   -1.20000
AFIX   0
C13   1    0.705938    0.288549    0.749489    11.00000    0.01731    0.02240 =
         0.02346   -0.00486    0.00519   -0.00352
C14   1    0.640690    0.361119    0.782505    11.00000    0.01938    0.01989 =
         0.01805   -0.00007    0.00477   -0.00040
C15   1    0.516050    0.392927    0.750875    11.00000    0.02319    0.02785 =
         0.01855   -0.00358   -0.00018    0.00123
AFIX  43
H15   2    0.474671    0.368863    0.709705    11.00000   -1.20000
AFIX   0
C16   1    0.448516    0.460132    0.778001    11.00000    0.01881    0.02800 =
         0.02256    0.00135    0.00015    0.00577
AFIX  43
H16   2    0.360863    0.479645    0.755598    11.00000   -1.20000
AFIX   0
C17   1    0.506703    0.498340    0.836400    11.00000    0.01889    0.02125 =
         0.01888    0.00102    0.00509    0.00182
C18   1    0.634521    0.465962    0.872445    11.00000    0.01763    0.01976 =
         0.01765    0.00163    0.00412    0.00019
C19   1    0.702608    0.396479    0.845025    11.00000    0.01623    0.02018 =
         0.01686    0.00104    0.00346   -0.00098
C20   1    0.437122    0.577774    0.857029    11.00000    0.02088    0.02267 =
         0.01829    0.00429    0.00525    0.00383
C21   1    0.694478    0.498283    0.935842    11.00000    0.02534    0.02438 =
         0.01964   -0.00269    0.00356    0.00370
AFIX  43
H21   2    0.649400    0.543427    0.955199    11.00000   -1.20000
AFIX   0
C22   1    0.815989    0.465190    0.969166    11.00000    0.02690    0.03096 =
         0.01875   -0.00307   -0.00095   -0.00080
AFIX  43
H22   2    0.853728    0.486869    1.011714    11.00000   -1.20000
AFIX   0
C23   1    0.885356    0.399473    0.941011    11.00000    0.01857    0.02993 =
         0.02268    0.00242   -0.00069    0.00165
AFIX  43
H23   2    0.971192    0.378146    0.964063    11.00000   -1.20000
AFIX   0
C24   1    0.830709    0.365887    0.880822    11.00000    0.01817    0.02498 =
         0.02169    0.00072    0.00417    0.00344
AFIX  43
H24   2    0.879048    0.321321    0.862525    11.00000   -1.20000
AFIX   0
O5    4    0.797572    0.468895    0.366232    11.00000    0.05299    0.04442 =
         0.05148    0.00675    0.01210   -0.01000
N9    3    0.969974    0.519258    0.314732    11.00000    0.04828    0.03238 =
         0.03783    0.00218    0.00585   -0.00867
C25   1    1.045653    0.516220    0.258503    11.00000    0.05137    0.04498 =
         0.06230    0.00573    0.02007    0.00044
AFIX 137
H25A  2    1.003867    0.472883    0.226896    11.00000   -1.50000
H25B  2    1.143677    0.501792    0.274148    11.00000   -1.50000
H25C  2    1.040409    0.571936    0.236578    11.00000   -1.50000
AFIX   0
C26   1    0.868216    0.465205    0.322055    11.00000    0.04171    0.03277 =
         0.03322   -0.00402   -0.00386    0.00555
AFIX  43
H26   2    0.849297    0.420487    0.290532    11.00000   -1.20000
AFIX   0
C27   1    1.003844    0.587287    0.361615    11.00000    0.11430    0.05493 =
         0.06865   -0.02091    0.03370   -0.04091
AFIX 137
H27A  2    1.104187    0.599353    0.366653    11.00000   -1.50000
H27B  2    0.979314    0.570507    0.404657    11.00000   -1.50000
H27C  2    0.951135    0.638411    0.345519    11.00000   -1.50000
AFIX   0
O6    4    0.140725    0.263107    0.489600    11.00000    0.04197    0.07689 =
         0.10898   -0.01086    0.03025   -0.00479
N2    3    0.301349    0.367507    0.514713    11.00000    0.05833    0.04904 =
         0.04405    0.00142    0.00928    0.00642
C28   1    0.430626    0.396174    0.554780    11.00000    0.07195    0.06755 =
         0.06186   -0.02067    0.01004    0.00239
AFIX 137
H28A  2    0.497508    0.412584    0.525591    11.00000   -1.50000
H28B  2    0.470125    0.349928    0.584148    11.00000   -1.50000
H28C  2    0.411279    0.445308    0.581575    11.00000   -1.50000
AFIX   0
C29   1    0.249606    0.290297    0.520981    11.00000    0.04846    0.05540 =
         0.06409    0.00477    0.03186    0.00833
AFIX  43
H29   2    0.301345    0.253092    0.552406    11.00000   -1.20000
AFIX   0
C30   1    0.227448    0.428499    0.468990    11.00000    0.09767    0.06606 =
         0.06986    0.01744   -0.00161    0.01053
AFIX 137
H30A  2    0.288522    0.447804    0.437901    11.00000   -1.50000
H30B  2    0.199817    0.477399    0.493863    11.00000   -1.50000
H30C  2    0.143906    0.401643    0.444210    11.00000   -1.50000
AFIX   0
HKLF 4




REM  pvl852_autored_a.res in P2(1)/c
REM wR2 = 0.0747, GooF = S = 1.024, Restrained GooF = 1.024 for all data
REM R1 = 0.0288 for 6214 Fo > 4sig(Fo) and 0.0351 for all 7083 data
REM 419 parameters refined using 0 restraints

END

WGHT      0.0352      1.8477

REM Highest difference peak  0.470,  deepest hole -0.335,  1-sigma level  0.054
Q1    1   0.8003  0.4252  0.3295  11.00000  0.05    0.47
Q2    1   0.3395  0.2226  0.3537  11.00000  0.05    0.35
Q3    1   0.4818  0.5356  0.8477  11.00000  0.05    0.32
Q4    1   0.6782  0.2915  0.4506  11.00000  0.05    0.31
Q5    1   0.7698  0.3883  0.8628  11.00000  0.05    0.31
Q6    1   0.6756  0.3283  0.7657  11.00000  0.05    0.30
Q7    1   0.2366  0.3045  0.2557  11.00000  0.05    0.30
Q8    1   0.6648  0.4252  0.8607  11.00000  0.05    0.29
Q9    1   0.9112  0.5857  0.3384  11.00000  0.05    0.28
Q10   1   0.0992  0.2871  0.4463  11.00000  0.05    0.28
Q11   1   0.2698  0.2710  0.3145  11.00000  0.05    0.28
Q12   1   0.4552  0.2418  0.3891  11.00000  0.05    0.28
Q13   1   0.5541  0.2762  0.4188  11.00000  0.05    0.28
Q14   1   0.6582  0.4786  0.9027  11.00000  0.05    0.27
Q15   1   0.5680  0.4867  0.8545  11.00000  0.05    0.27
Q16   1  -0.0030  0.3142  0.2024  11.00000  0.05    0.27
Q17   1   0.7508  0.2613  0.6688  11.00000  0.05    0.27
Q18   1   0.7500  0.4769  0.9577  11.00000  0.05    0.26
Q19   1   0.4589  0.3380  0.3208  11.00000  0.05    0.26
Q20   1   0.1324  0.3492  0.1479  11.00000  0.05    0.26
;
_shelx_res_checksum   58342

_shelx_hkl_file
;
   0   0  -2  618.38    8.64
   0   0  -3    0.68    0.45
   0   0   3    1.35    0.39
   0   0  -4 1230.10   17.26
   0   0   4 1237.82   17.25
   0   0   5   -0.12    0.63
   0   0  -5    1.56    0.80
   0   0  -6 1979.72   27.93
   0   0   6 2029.92   27.93
   0   0  -7    0.21    0.92
   0   0   7    1.42    0.76
   0   0  -8 1504.17   22.03
   0   0   8 1493.25   22.05
   0   0  -9    0.02    0.91
   0   0   9    0.52    0.79
   0   0 -10 1573.52   23.95
   0   0  10 1632.93   24.08
   0   0 -10 1577.59   24.06
   0   0 -11    1.12    0.90
   0   0  11    0.81    0.75
   0   0 -11    0.87    0.83
   0   0  12  121.85    4.17
   0   0 -12  117.27    4.11
   0   0 -12  122.63    4.21
   0   0  13    0.92    0.84
   0   0 -13    0.45    1.03
   0   0 -13    1.53    0.93
   0   0 -14  143.01    3.47
   0   0 -14  156.48    5.18
   0   0  14  151.38    5.07
   0   0 -14  151.47    5.06
   0   0 -15    0.65    0.52
   0   0 -15    1.05    1.16
   0   0 -16    3.89    0.71
   0   0 -16    3.10    1.35
   0   0 -17   -0.13    0.54
   0   0 -17    2.08    1.36
   0   0 -18   59.31    2.24
   0   0 -18   60.25    3.68
   0   0 -19    0.08    0.57
   0   0 -19   -0.16    1.21
   0   0 -20   13.82    2.19
   0   0 -21   -4.52    1.71
   0   0 -22   11.95    2.14
   0   0 -23    0.95    1.43
   0   0 -24   60.96    4.45
   0   1   2   32.45    0.96
   0  -1  -2   36.87    1.03
   0  -1   2   36.16    1.05
   0   1  -2   35.74    1.07
   0  -1  -2   36.94    0.97
   0   1   2   35.73    0.98
   0  -1   3 1626.27   21.94
   0   1   3 1618.94   21.84
   0   1  -3 1556.21   21.91
   0  -1  -3 1649.43   21.84
   0  -1  -3 1584.17   21.78
   0   1   3 1646.39   21.80
   0   1  -4  471.25    6.64
   0  -1   4  478.38    7.56
   0   1  -4  465.41    7.51
   0   1   4  466.91    7.42
   0  -1  -4  483.28    7.45
   0  -1  -4  483.57    7.40
   0   1  -5  991.39   13.44
   0  -1   5  982.64   14.59
   0   1   5 1003.97   14.48
   0   1  -5 1009.43   14.60
   0  -1  -5 1000.17   14.51
   0  -1  -5  971.52   14.41
   0   1  -6  503.92    7.36
   0  -1   6  513.64    8.59
   0   1  -6  518.79    8.64
   0  -1  -6  517.76    8.51
   0   1   6  517.88    8.54
   0  -1  -6  512.33    8.46
   0   1  -7  257.96    4.26
   0   1   7  265.77    5.43
   0  -1  -7  263.75    5.39
   0  -1   7  264.03    5.44
   0   1  -7  272.57    5.55
   0  -1  -7  266.15    5.38
   0   1  -8 2207.21   29.50
   0  -1   8 2221.28   31.31
   0   1  -8 2187.24   31.28
   0   1   8 2234.96   31.21
   0  -1  -8 2183.94   31.19
   0  -1  -8 2208.39   31.15
   0   1  -9    4.11    0.55
   0  -1   9    2.01    0.83
   0  -1  -9    1.71    0.93
   0   1   9    3.72    1.02
   0   1  -9    6.94    1.35
   0  -1  -9    2.74    0.85
   0   1 -10   70.77    1.90
   0   1  10   72.41    2.87
   0  -1  10   73.42    2.93
   0   1 -10   75.69    3.04
   0  -1 -10   70.88    2.92
   0  -1 -10   72.66    2.83
   0   1 -11  242.01    4.49
   0  -1  11  254.14    6.24
   0   1  11  256.46    6.19
   0  -1 -11  247.06    6.11
   0   1 -11  259.84    6.27
   0  -1 -11  250.26    6.08
   0   1 -12  329.32    5.78
   0   1 -12  338.50    7.75
   0  -1  12  347.97    7.87
   0  -1 -12  327.69    7.62
   0   1  12  345.46    7.74
   0  -1 -12  344.23    7.70
   0   1 -13  111.05    2.78
   0   1 -13  119.06    4.31
   0  -1 -13  112.68    4.16
   0   1  13  120.71    4.32
   0  -1  13  124.24    4.41
   0  -1 -13  120.17    4.25
   0   1 -14   44.60    1.66
   0   1  14   47.08    2.70
   0   1 -14   47.38    2.79
   0  -1  14   50.90    2.90
   0  -1 -14   39.43    2.63
   0   1 -14   48.83    2.85
   0  -1 -14   45.50    2.67
   0  -1 -15   25.11    2.22
   0   1 -15   28.04    2.35
   0   1 -15   28.79    1.37
   0   1 -16  549.31   11.89
   0  -1 -16  544.91   11.75
   0   1 -16  536.58    8.86
   0  -1 -17    7.67    1.57
   0   1 -17    8.83    1.71
   0   1 -17    6.77    0.81
   0   1 -18   52.20    3.36
   0  -1 -18   40.41    3.03
   0  -1 -18   44.48    2.06
   0  -1 -19   41.96    3.27
   0   1 -19   45.08    3.41
   0  -1 -19   41.56    2.05
   0  -1 -20  446.57   11.47
   0   1 -20  439.09   11.47
   0  -1 -21   35.74    3.30
   0   1 -21   31.03    3.17
   0   1 -22  142.60    6.38
   0  -1 -22  134.45    6.19
   0   1 -23    9.94    2.32
   0  -1 -23    9.25    2.02
   0  -1 -24   71.83    4.82
   0   1 -24   79.46    5.05
   0  -2   0 4589.80   60.41
   0   2   0 4680.75   60.40
   0   2  -1  127.41    2.44
   0  -2   1  129.50    2.43
   0   2   1  131.19    2.40
   0  -2  -1  128.84    2.26
   0  -2  -1  130.08    2.39
   0   2   1  129.53    2.28
   0  -2  -2   23.26    0.92
   0   2   2   25.89    0.97
   0   2  -2   26.45    1.02
   0  -2   2   23.45    0.97
   0  -2   2   24.65    1.02
   0   2   2   25.50    0.89
   0  -2  -2   23.54    0.85
   0   2  -3   82.24    2.10
   0  -2   3   77.59    2.04
   0  -2  -3   78.61    1.88
   0  -2  -3   76.86    1.97
   0   2   3   78.59    1.89
   0   2   3   77.30    1.94
   0  -2  -4  173.22    3.49
   0   2  -4  165.16    3.65
   0  -2   4  173.20    3.60
   0  -2  -4  169.72    3.38
   0   2   4  171.33    3.46
   0   2   4  173.71    3.40
   0  -2   5 1698.57   22.48
   0  -2   5 1707.83   23.72
   0   2  -5 1667.46   23.71
   0   2   5 1677.04   23.51
   0  -2  -5 1686.60   23.50
   0  -2  -5 1681.20   23.43
   0   2   5 1664.23   23.42
   0  -2   6  274.85    4.37
   0  -2  -6  271.63    5.36
   0   2   6  282.29    5.40
   0   2  -6  276.18    5.53
   0  -2   6  287.12    5.56
   0  -2  -6  275.81    5.31
   0   2   6  262.68    5.33
   0   2  -7  183.18    4.40
   0   2   7  177.87    4.21
   0  -2  -7  179.99    4.21
   0  -2   7  183.93    4.38
   0  -2  -7  182.36    4.20
   0   2  -8  170.51    4.42
   0  -2   8  168.59    4.39
   0  -2  -8  175.80    4.34
   0   2   8  176.76    4.36
   0  -2  -8  173.11    4.26
   0  -2  -9  522.22    9.45
   0   2  -9  501.30    9.52
   0   2   9  520.65    9.44
   0  -2   9  517.39    9.61
   0  -2  -9  516.26    9.40
   0   2 -10   13.28    1.56
   0  -2 -10    9.13    1.28
   0   2  10   10.93    1.22
   0  -2  10   11.28    1.30
   0  -2 -10   10.70    1.22
   0   2 -11  166.91    4.92
   0   2  11  174.24    4.84
   0  -2 -11  167.52    4.82
   0  -2  11  171.41    4.95
   0  -2 -11  167.06    4.79
   0   2 -12   18.28    1.80
   0  -2 -12   15.67    1.64
   0   2  12   17.02    1.62
   0  -2  12   18.14    1.74
   0  -2 -12   15.89    1.58
   0   2  13  561.66   11.06
   0  -2  13  570.15   11.30
   0  -2 -13  530.81   10.85
   0   2 -13  532.38   11.01
   0  -2 -13  538.18   10.90
   0   2 -14  162.06    5.46
   0  -2  14  172.34    5.55
   0  -2 -14  174.08    5.48
   0   2  14  180.13    5.55
   0  -2 -14  172.50    5.42
   0  -2 -15  339.00    8.52
   0   2 -15  338.54    8.64
   0  -2 -15  359.75    8.65
   0   2 -16   23.75    2.46
   0  -2 -16   18.08    2.00
   0  -2 -17    2.77    1.37
   0   2 -17    1.19    1.29
   0   2 -18    5.20    1.52
   0  -2 -18    4.61    1.56
   0   2 -19  189.42    6.89
   0  -2 -19  186.04    6.66
   0   2 -20   54.87    3.79
   0  -2 -20   56.30    3.82
   0   2 -21   52.66    3.91
   0  -2 -21   45.61    3.59
   0   2 -22  106.96    5.65
   0  -2 -22   99.65    5.39
   0  -2 -23   78.82    4.91
   0   2 -23   75.25    4.81
   0   2 -24    9.76    2.29
   0  -2 -24    9.63    2.20
   0  -2 -25    6.84    2.22
   0  -3   0   -0.40    0.44
   0   3   0   -0.03    0.49
   0  -3   1  509.84    7.82
   0   3  -1  523.14    7.82
   0   3   1  515.46    7.54
   0  -3  -1  505.03    7.75
   0  -3  -1  504.16    7.54
   0   3   1  525.20    7.78
   0  -3   2  389.55    6.38
   0   3  -2  402.83    6.43
   0  -3  -2  397.56    6.29
   0   3   2  401.58    6.29
   0  -3  -2  381.36    6.05
   0   3   2  388.08    6.07
   0  -3  -3 4969.14   65.66
   0   3   3 4982.42   65.68
   0   3  -3 5156.72   65.88
   0  -3   3 4993.07   65.85
   0  -3  -3 4932.12   65.41
   0   3   3 4931.11   65.41
   0  -3  -4    2.58    0.63
   0   3  -4    1.31    0.83
   0  -3   4    3.71    0.77
   0   3  -4    2.60    0.90
   0   3   4    1.67    0.60
   0  -3  -4    2.32    0.71
   0  -3  -4    1.75    0.55
   0   3  -5  860.00   13.13
   0  -3  -5  854.18   12.83
   0  -3   5  850.66   13.09
   0   3   5  845.95   12.68
   0   3   5  847.41   12.82
   0  -3  -5  836.76   12.67
   0  -3   6    0.27    0.65
   0  -3  -6    0.97    0.77
   0   3  -6    1.43    0.94
   0   3   6    1.10    0.71
   0  -3  -6    0.23    0.56
   0   3   6   -0.30    0.63
   0  -3   7 1040.67   14.65
   0  -3   7 1043.83   16.29
   0  -3  -7 1067.47   16.05
   0   3  -7 1052.81   16.35
   0   3   7 1065.00   16.02
   0   3   7 1057.94   15.89
   0  -3  -7 1043.67   15.88
   0  -3   8   42.27    1.33
   0  -3  -8   42.62    2.03
   0   3   8   40.31    1.98
   0   3  -8   38.61    2.15
   0  -3   8   42.15    2.10
   0  -3  -8   41.35    1.93
   0   3  -9    2.91    0.90
   0  -3  -9    4.73    0.93
   0  -3   9    6.12    1.07
   0   3   9    4.00    0.90
   0  -3  -9    4.55    0.83
   0  -3 -10  181.93    4.91
   0  -3  10  191.09    5.16
   0   3 -10  195.20    5.22
   0   3  10  184.44    4.94
   0  -3 -10  183.82    4.86
   0  -3  11  148.09    4.63
   0  -3 -11  138.98    4.35
   0   3 -11  142.43    4.53
   0   3  11  143.49    4.44
   0  -3 -11  143.21    4.32
   0  -3  12    4.06    1.08
   0  -3 -12    6.82    1.34
   0   3 -12    4.08    1.14
   0  -3 -12    1.42    0.77
   0   3  12    4.18    1.04
   0   3 -13  108.07    4.20
   0  -3  13  110.07    4.25
   0  -3 -13  101.25    3.98
   0   3  13  103.45    3.99
   0  -3 -13  112.17    4.05
   0   3 -14    0.28    1.07
   0  -3 -14   -0.46    1.00
   0  -3 -14    0.73    0.87
   0   3  14   -0.35    0.80
   0  -3 -15    5.53    1.34
   0   3 -15    7.75    1.50
   0  -3 -15    5.38    1.28
   0  -3 -16   32.69    2.59
   0   3 -16   31.08    2.57
   0   3 -17   13.89    2.03
   0  -3 -17    9.64    1.69
   0  -3 -18    6.43    1.67
   0   3 -18   10.01    1.99
   0  -3 -19   65.30    3.95
   0   3 -19   77.96    4.33
   0   3 -20   39.02    3.35
   0  -3 -20   39.49    3.25
   0   3 -21   50.84    3.96
   0  -3 -21   55.06    3.86
   0   3 -22   32.91    3.26
   0  -3 -22   26.75    2.89
   0   3 -23    2.61    1.75
   0  -3 -23    5.16    1.81
   0  -3 -24    2.51    1.60
   0   3 -24    2.64    1.76
   0  -4   0  237.78    4.45
   0   4   0  242.83    4.49
   0  -4   1 2644.63   35.67
   0   4  -1 2665.86   35.71
   0   4   1 2664.55   35.62
   0  -4  -1 2623.61   35.61
   0   4   1 2635.51   35.33
   0  -4   2   -0.42    0.54
   0   4  -2    0.74    0.63
   0  -4  -2    0.30    0.44
   0  -4  -2    0.86    0.56
   0   4   2   -0.07    0.56
   0   4   2    0.88    0.66
   0  -4   3  106.49    2.79
   0   4  -3  108.39    2.83
   0   4   3  107.56    2.75
   0  -4  -3  107.38    2.71
   0  -4  -3  107.57    2.50
   0   4   3  104.79    2.51
   0  -4  -4 1639.60   23.08
   0   4  -4 1661.41   23.30
   0  -4   4 1626.36   23.32
   0   4   4 1633.41   22.76
   0  -4  -4 1633.75   23.04
   0  -4  -4 1630.89   22.75
   0  -4  -5   41.74    1.79
   0   4  -5   42.45    1.96
   0  -4   5   42.23    1.91
   0  -4  -5   41.82    1.86
   0   4   5   44.39    1.73
   0  -4  -5   43.67    1.66
   0  -4  -6  221.19    4.87
   0   4  -6  228.41    5.10
   0   4  -6  220.86    5.06
   0  -4  -6  222.65    4.78
   0  -4   6  224.41    5.06
   0   4   6  220.77    4.64
   0  -4  -6  213.34    4.59
   0  -4  -7  227.84    5.15
   0   4  -7  227.38    5.33
   0  -4  -7  230.01    5.08
   0  -4   7  224.34    5.29
   0   4   7  222.77    5.06
   0  -4  -7  222.59    4.89
   0   4   7  219.13    4.86
   0  -4   8   57.94    1.72
   0   4  -8   56.83    2.53
   0  -4   8   64.70    2.66
   0  -4  -8   60.79    2.47
   0   4   8   57.52    2.37
   0  -4  -8   59.16    2.31
   0   4   8   62.57    2.50
   0  -4   9  887.59   12.89
   0  -4  -9  880.37   14.56
   0  -4   9  907.25   15.03
   0   4  -9  896.34   14.98
   0   4   9  907.16   14.65
   0  -4  -9  895.73   14.45
   0   4   9  857.69   14.42
   0  -4  10   38.76    1.39
   0   4 -10   36.62    2.32
   0  -4 -10   36.97    2.12
   0  -4  10   39.05    2.36
   0   4  10   41.61    2.19
   0  -4 -10   40.97    2.12
   0  -4  11    9.80    1.34
   0   4 -11    9.42    1.39
   0  -4 -11    6.59    1.20
   0   4  11   10.97    1.30
   0  -4 -11    7.75    1.13
   0   4 -12   -0.75    1.09
   0  -4 -12    0.45    0.95
   0  -4  12   -0.01    0.83
   0  -4 -12    0.17    0.89
   0   4  12   -1.57    0.93
   0  -4  13  899.16   16.10
   0  -4 -13  860.68   15.51
   0   4 -13  838.83   15.81
   0   4  13  889.35   15.72
   0  -4 -13  897.01   15.52
   0   4 -14    4.22    1.37
   0  -4 -14    3.60    1.24
   0  -4 -14    5.28    1.15
   0   4  14    3.97    1.07
   0  -4 -15  144.21    5.10
   0   4 -15  146.13    5.41
   0  -4 -15  141.46    5.06
   0  -4 -16    7.97    1.57
   0   4 -16    7.25    1.61
   0  -4 -17   46.59    3.16
   0   4 -17   48.92    3.35
   0   4 -18    4.32    1.50
   0  -4 -18    2.93    1.36
   0   4 -19   90.36    4.77
   0  -4 -19   86.09    4.50
   0  -4 -20    6.26    1.66
   0   4 -20    2.59    1.61
   0  -4 -21    1.16    1.40
   0   4 -21    0.18    1.48
   0  -4 -22  152.07    6.55
   0   4 -22  133.15    6.40
   0  -4 -23  143.19    6.61
   0   4 -23  148.51    6.88
   0  -4 -24   -1.34    1.60
   0   4 -24    4.57    1.95
   0   5   0    0.25    0.68
   0  -5   0    0.19    0.59
   0   5  -1   20.38    1.33
   0  -5   1   20.94    1.25
   0   5   1   20.81    1.28
   0   5   1   20.26    1.12
   0  -5  -1   18.12    1.14
   0   5  -2  123.24    3.28
   0  -5   2  128.24    3.22
   0  -5  -2  129.88    2.96
   0   5   2  133.28    3.24
   0  -5  -2  133.69    3.21
   0   5   2  129.74    2.96
   0  -5   3  173.67    4.03
   0   5  -3  178.51    4.13
   0  -5  -3  173.74    3.66
   0   5   3  173.85    3.96
   0  -5  -3  175.99    3.98
   0   5   3  177.86    3.70
   0  -5  -4    4.50    0.75
   0   5   4    2.24    0.78
   0  -5  -4    2.40    0.61
   0  -5   4    3.84    0.77
   0   5  -4    3.32    0.85
   0  -5   4    3.30    0.73
   0   5   4    3.28    0.66
   0  -5  -5    0.56    0.62
   0   5  -5    0.00    0.81
   0  -5   5   -0.54    0.70
   0  -5  -5    0.70    0.55
   0   5   5    0.39    0.61
   0  -5  -5   -0.44    0.72
   0  -5  -6   53.34    2.19
   0   5  -6   54.03    2.33
   0  -5   6   52.59    2.37
   0  -5  -6   51.16    2.00
   0   5   6   51.95    2.06
   0  -5  -6   52.09    2.20
   0  -5  -7  738.99   12.19
   0   5  -7  741.87   12.47
   0  -5  -7  695.81   12.03
   0  -5   7  739.51   12.53
   0  -5  -7  721.99   11.79
   0   5   7  728.20   11.84
   0  -5  -8   37.75    2.02
   0   5  -8   36.06    2.11
   0   5  -8   34.65    2.12
   0  -5  -8   37.21    1.98
   0  -5   8   36.00    2.11
   0  -5  -8   35.36    1.83
   0   5   8   34.71    1.81
   0  -5  -9  281.59    6.45
   0   5  -9  287.93    6.70
   0  -5  -9  278.10    6.33
   0   5  -9  277.35    6.67
   0  -5   9  279.43    6.71
   0  -5  -9  280.82    6.17
   0   5   9  268.42    6.15
   0  -5 -10  238.94    6.02
   0  -5  10  237.91    4.58
   0  -5  10  250.15    6.34
   0  -5 -10  232.02    5.86
   0   5 -10  237.67    6.21
   0   5  10  223.05    5.66
   0   5  10  246.33    6.02
   0  -5 -10  243.66    5.78
   0  -5  11  492.19    8.08
   0  -5 -11  497.47    9.93
   0   5 -11  487.18   10.28
   0  -5  11  518.18   10.47
   0   5  11  495.98    9.93
   0  -5 -11  507.45    9.80
   0  -5  12    0.59    0.40
   0  -5 -12    1.70    1.07
   0   5 -12    1.34    0.95
   0  -5  12    1.74    1.02
   0  -5 -12    0.60    0.78
   0   5  12    1.22    0.91
   0   5 -13  663.49   13.09
   0  -5 -13  625.55   12.49
   0   5  13  671.12   12.74
   0  -5 -13  650.53   12.41
   0  -5 -14    0.47    0.99
   0   5 -14    0.71    1.07
   0  -5 -14    0.86    0.82
   0   5  14    0.42    0.87
   0  -5 -15  101.84    4.29
   0   5 -15  106.21    4.66
   0   5 -16   17.98    2.15
   0  -5 -16   14.96    1.90
   0  -5 -17   90.78    4.37
   0   5 -17   94.31    4.71
   0  -5 -18   37.86    2.96
   0   5 -18   37.09    3.13
   0   5 -19  118.90    5.52
   0  -5 -19  115.83    5.28
   0  -5 -20   -1.52    1.56
   0   5 -20   -2.04    1.66
   0  -5 -21   55.91    3.95
   0   5 -21   51.55    3.90
   0  -5 -22   21.94    2.78
   0   5 -22   30.26    3.32
   0  -5 -23   37.60    3.62
   0   5 -23   33.06    3.55
   0  -5 -24   19.21    2.74
   0  -6   0  214.14    4.66
   0   6   0  213.81    4.42
   0   6   0  224.86    4.73
   0  -6   1 1447.82   21.24
   0   6   1 1485.84   20.85
   0   6  -1 1474.27   21.29
   0   6   1 1475.51   21.24
   0  -6  -1 1458.52   21.22
   0   6  -2  759.74   12.00
   0  -6   2  744.67   11.94
   0  -6  -2  744.38   11.86
   0   6   2  748.36   11.85
   0   6   2  734.39   11.42
   0  -6   3  573.18    9.82
   0   6  -3  582.83    9.87
   0  -6  -3  573.15    9.27
   0  -6  -3  578.91    9.67
   0   6   3  580.33    9.68
   0   6   3  558.43    9.24
   0  -6   4  309.67    6.34
   0   6  -4  319.01    6.42
   0   6   4  307.11    6.16
   0  -6  -4  312.29    6.23
   0  -6  -4  296.81    5.76
   0   6   4  311.65    5.85
   0  -6  -5   42.43    2.01
   0   6   5   42.06    1.98
   0   6  -5   43.37    2.10
   0  -6   5   44.92    2.18
   0  -6  -5   42.12    1.79
   0   6   5   40.18    1.79
   0  -6  -6  136.53    3.87
   0   6  -6  135.03    4.04
   0  -6   6  141.57    4.12
   0  -6  -6  135.83    3.58
   0  -6  -6  139.58    3.83
   0   6   6  137.51    3.60
   0  -6  -7   36.75    1.95
   0   6  -7   37.51    2.11
   0  -6   7   38.05    2.18
   0  -6  -7   34.30    1.81
   0   6   7   35.07    1.82
   0  -6  -7   35.61    1.93
   0  -6  -8   20.42    1.59
   0   6  -8   23.78    1.85
   0  -6   8   21.76    1.78
   0   6   8   22.00    1.52
   0  -6  -8   18.85    1.54
   0  -6  -8   20.39    1.43
   0  -6  -9  497.87    9.74
   0   6  -9  507.81   10.03
   0  -6  -9  492.49    9.56
   0  -6   9  507.64   10.11
   0   6   9  479.83    9.26
   0  -6  -9  498.54    9.32
   0  -6 -10   34.39    2.17
   0   6 -10   39.08    2.39
   0  -6 -10   36.54    2.20
   0  -6  10   36.81    2.37
   0   6  10   33.78    2.09
   0  -6 -10   39.10    2.13
   0  -6 -11   64.28    3.04
   0  -6  11   62.80    2.10
   0   6 -11   62.49    3.16
   0  -6  11   66.78    3.26
   0   6 -11   61.14    3.16
   0  -6 -11   58.51    2.92
   0  -6 -11   61.44    2.78
   0   6  11   64.33    2.90
   0  -6 -12   21.84    1.87
   0   6 -12   22.23    2.12
   0  -6  12   22.36    1.24
   0  -6  12   22.18    2.02
   0  -6 -12   21.10    1.89
   0   6 -12   20.56    1.99
   0  -6 -12   21.03    1.82
   0  -6 -13  455.12   10.00
   0  -6  13  429.76    7.51
   0   6 -13  445.77   10.17
   0   6 -13  443.61   10.20
   0  -6 -13  435.75    9.67
   0  -6 -13  452.09    9.60
   0   6 -14  107.68    4.63
   0   6 -14  105.58    4.55
   0  -6 -14  103.41    4.27
   0  -6 -14  103.53    4.14
   0   6 -15  194.34    6.50
   0  -6 -15  183.30    6.02
   0   6 -15  191.18    6.46
   0  -6 -16    1.19    1.24
   0   6 -16    0.62    1.38
   0   6 -17   80.28    4.35
   0  -6 -17   65.10    3.76
   0   6 -18   81.91    4.59
   0  -6 -18   83.05    4.35
   0   6 -19   41.13    3.45
   0  -6 -19   46.15    3.36
   0  -6 -20   84.23    4.75
   0   6 -20   84.16    4.94
   0  -6 -21   11.26    2.19
   0   6 -21   12.61    2.44
   0   6 -21   12.93    2.32
   0   6 -22   12.88    2.48
   0  -6 -22   11.00    2.27
   0   6 -22   16.45    2.69
   0   6 -23  188.83    7.99
   0  -6 -23  188.13    7.67
   0   6 -23  184.39    8.34
   0  -6 -24    3.47    2.07
   0  -7   0    0.07    0.59
   0   7   0   -0.32    0.62
   0   7   0   -0.06    0.76
   0  -7  -1  105.88    3.18
   0  -7   1  105.63    3.22
   0   7  -1  106.92    3.22
   0   7   1  104.26    2.94
   0   7   1  105.87    3.17
   0   7  -2  622.37   10.52
   0  -7   2  594.52   10.42
   0  -7  -2  604.66   10.32
   0   7   2  608.61   10.36
   0   7   2  602.23    9.87
   0  -7   3  401.96    7.74
   0   7  -3  411.36    7.84
   0   7   3  405.46    7.66
   0  -7  -3  388.14    7.12
   0  -7  -3  401.38    7.63
   0   7   3  398.47    7.20
   0  -7   4  170.78    4.47
   0   7  -4  173.40    4.52
   0  -7  -4  162.20    3.96
   0  -7  -4  168.09    4.30
   0   7   4  169.61    4.33
   0   7   4  165.66    3.99
   0  -7  -5   16.21    1.36
   0  -7  -5   13.69    1.11
   0   7   5   14.48    1.30
   0  -7   5   15.82    1.36
   0   7  -5   16.68    1.50
   0  -7   5   13.67    1.33
   0   7   5   14.81    1.19
   0  -7  -6  304.71    6.61
   0   7  -6  316.85    6.90
   0  -7   6  302.38    6.92
   0  -7  -6  292.55    6.47
   0   7   6  303.39    6.19
   0  -7  -6  299.58    6.15
   0  -7  -7  708.59   12.45
   0   7  -7  729.53   12.76
   0  -7   7  718.18   12.85
   0  -7  -7  715.27   11.91
   0   7   7  700.45   11.92
   0  -7  -7  702.22   12.24
   0  -7  -8    4.68    0.90
   0   7  -8    5.22    1.18
   0  -7   8    5.07    1.07
   0   7   8    3.31    0.85
   0  -7  -8    3.85    0.84
   0  -7  -8    4.61    1.09
   0  -7  -9   73.95    3.12
   0   7  -9   72.04    3.27
   0  -7   9   72.00    3.30
   0  -7  -9   67.89    3.00
   0   7   9   70.99    2.85
   0  -7  -9   70.84    2.81
   0  -7 -10   37.38    2.27
   0   7 -10   31.54    2.26
   0  -7 -10   31.11    2.10
   0  -7  10   34.63    2.38
   0   7  10   29.98    1.96
   0  -7 -10   33.08    2.01
   0  -7 -11  174.99    5.38
   0   7 -11  183.94    5.72
   0  -7 -11  173.87    5.25
   0  -7  11  177.20    5.63
   0   7  11  176.73    5.09
   0  -7 -11  177.28    5.07
   0  -7 -12   37.07    2.48
   0   7 -12   43.18    2.81
   0  -7  12   40.73    1.80
   0  -7 -12   41.31    2.58
   0  -7 -12   43.98    2.50
   0   7  12   35.48    2.37
   0  -7  13  284.59    5.65
   0   7 -13  277.77    7.72
   0  -7 -13  274.25    7.33
   0  -7 -13  282.87    7.16
   0   7 -14   12.42    1.73
   0  -7  14   12.95    1.03
   0  -7 -14   14.06    1.73
   0  -7 -14   12.07    1.46
   0  -7 -15   37.90    2.74
   0   7 -15   41.40    3.04
   0  -7 -16    3.73    1.35
   0   7 -16    2.10    1.29
   0  -7 -17  105.14    4.82
   0   7 -17  118.39    5.38
   0   7 -17  123.56    5.54
   0   7 -18    2.26    1.61
   0  -7 -18    2.23    1.35
   0   7 -18    1.55    1.32
   0   7 -19    4.35    1.61
   0  -7 -19    0.53    1.27
   0   7 -19    5.83    1.80
   0   7 -20   -0.80    1.63
   0  -7 -20   -1.38    1.56
   0   7 -20    2.01    1.58
   0   7 -21  219.88    8.35
   0  -7 -21  195.65    7.51
   0   7 -21  214.26    8.24
   0  -7 -22  120.03    5.96
   0   7 -22  127.90    6.39
   0  -7 -23    6.53    2.00
   0  -7 -24   -1.98    1.68
   0  -8   0   51.88    2.29
   0   8   0   53.11    2.31
   0   8   0   52.18    2.15
   0   8  -1   10.87    1.17
   0  -8   1   12.22    1.20
   0  -8  -1   10.99    1.15
   0   8   1   10.70    1.20
   0   8   1   11.06    1.05
   0  -8   2  367.47    7.53
   0   8   2  374.57    7.45
   0  -8  -2  376.09    7.46
   0   8  -2  367.98    7.55
   0   8   2  371.39    7.00
   0   8  -3   38.90    2.13
   0  -8   3   37.01    2.03
   0   8   3   43.94    2.14
   0  -8  -3   40.66    2.07
   0   8   3   42.99    1.90
   0  -8   4  199.00    5.16
   0   8  -4  200.45    5.18
   0   8   4  203.16    5.05
   0  -8  -4  208.43    5.11
   0  -8  -4  191.14    4.58
   0   8   4  202.60    4.67
   0  -8  -5  219.72    5.42
   0  -8  -5  221.31    5.02
   0   8   5  218.18    5.43
   0  -8   5  219.16    5.58
   0   8  -5  222.97    5.67
   0  -8   5  219.03    5.70
   0   8   5  214.46    4.99
   0  -8  -6  645.45   11.65
   0   8   6  640.11   11.63
   0  -8  -6  654.27   11.09
   0   8  -6  656.23   12.01
   0  -8   6  654.98   12.10
   0   8   6  655.23   11.19
   0  -8  -7   23.71    1.78
   0   8  -7   23.58    1.90
   0  -8   7   23.53    1.86
   0  -8  -7   24.18    1.84
   0   8   7   23.20    1.59
   0  -8  -7   23.58    1.57
   0  -8  -8   43.06    2.43
   0   8  -8   45.24    2.66
   0  -8   8   46.89    2.67
   0  -8  -8   45.81    2.20
   0  -8  -8   45.08    2.44
   0   8   8   43.65    2.21
   0  -8  -9   10.06    1.32
   0  -8  -9    7.14    1.06
   0   8  -9   12.31    1.51
   0  -8   9   11.09    1.56
   0   8   9    9.58    1.17
   0  -8  -9   11.83    1.40
   0  -8 -10  649.22   12.34
   0   8 -10  621.41   12.58
   0  -8 -10  635.93   12.17
   0  -8  10  652.17   12.90
   0   8  10  637.87   11.78
   0  -8 -10  644.88   11.72
   0  -8 -11    3.18    0.95
   0   8 -11    6.25    1.41
   0  -8 -11    4.91    1.19
   0  -8 -11    6.03    1.08
   0   8  11    4.24    1.11
   0  -8 -12    0.78    0.94
   0   8 -12   -1.58    1.14
   0  -8 -12   -0.87    1.04
   0  -8 -12    0.02    0.80
   0   8  12   -0.08    0.85
   0   8 -13  173.93    6.06
   0  -8  13  173.50    4.27
   0  -8 -13  164.33    5.53
   0  -8 -13  183.08    5.51
   0   8  13  170.25    5.39
   0  -8  14  329.76    6.48
   0   8 -14  326.05    8.87
   0  -8 -14  308.33    8.25
   0  -8 -14  328.31    8.12
   0  -8 -15  221.42    6.94
   0  -8  15  237.54    5.12
   0   8 -15  237.13    7.56
   0  -8 -16   76.43    4.04
   0   8 -16   81.44    4.44
   0  -8 -17   18.91    2.34
   0   8 -17   17.69    2.44
   0  -8 -18  286.77    8.64
   0   8 -18  300.49    9.26
   0  -8 -19   10.73    2.01
   0   8 -19   14.68    2.36
   0  -8 -20    1.98    1.48
   0   8 -20   -1.34    1.55
   0  -8 -21   98.81    5.30
   0   8 -21  115.73    6.03
   0  -8 -22  189.80    7.60
   0   8 -22  197.66    8.17
   0  -8 -23   64.43    4.48
   0  -9   0   -0.12    0.76
   0   9   0   -0.07    0.72
   0   9   0   -0.12    0.79
   0  -9  -1    4.07    0.88
   0  -9   1    6.89    1.03
   0   9  -1    6.66    1.14
   0   9   1    4.37    0.83
   0   9   1    5.45    0.98
   0  -9  -2 1746.26   26.30
   0  -9   2 1759.41   26.40
   0   9   2 1784.68   26.33
   0   9  -2 1781.85   26.42
   0   9   2 1774.05   25.66
   0  -9  -3    3.26    0.84
   0   9  -3    3.39    0.88
   0  -9   3    1.53    0.70
   0   9   3    4.58    1.00
   0   9   3    4.44    0.81
   0   9  -4  644.66   11.77
   0  -9   4  632.77   11.72
   0   9   4  639.62   11.52
   0  -9  -4  636.90   11.55
   0   9   4  634.32   10.95
   0   9  -5  308.40    7.12
   0  -9   5  310.62    7.15
   0  -9  -5  300.58    6.40
   0   9   5  308.14    6.95
   0  -9  -5  304.21    6.95
   0   9   5  301.25    6.45
   0   9   6  234.79    5.96
   0  -9  -6  231.91    5.95
   0  -9  -6  234.66    5.49
   0   9  -6  242.67    6.22
   0  -9   6  231.15    6.24
   0   9   6  228.63    5.47
   0  -9  -7   34.07    1.95
   0  -9  -7   31.52    2.10
   0   9  -7   36.76    2.37
   0  -9   7   32.83    2.23
   0   9   7   33.33    1.94
   0  -9  -7   33.35    2.18
   0  -9  -8  266.90    6.75
   0  -9  -8  257.66    6.13
   0   9  -8  268.28    7.01
   0  -9   8  287.34    7.28
   0  -9  -8  264.23    6.60
   0   9   8  256.52    6.18
   0  -9  -9    3.56    0.87
   0  -9  -9    3.84    1.04
   0   9  -9    2.59    1.17
   0  -9   9    2.24    1.05
   0   9   9    2.42    0.85
   0  -9  -9    2.39    0.97
   0  -9 -10  163.82    5.25
   0   9 -10  161.71    5.43
   0  -9 -10  147.51    4.93
   0   9  10  157.23    4.81
   0  -9 -10  151.49    4.68
   0   9 -11   -0.30    1.02
   0  -9 -11    0.04    0.73
   0  -9 -11   -0.36    0.84
   0   9  11    0.57    0.79
   0  -9 -11   -0.97    1.09
   0   9 -12  517.22   11.54
   0  -9 -12  517.21   11.03
   0  -9 -12  517.84   10.56
   0   9  12  505.42   10.57
   0  -9  13   12.82    1.23
   0   9 -13   11.83    1.87
   0  -9 -13   12.36    1.74
   0   9  13   12.95    1.64
   0  -9 -13    9.94    1.50
   0  -9 -14   40.81    2.81
   0  -9  14   37.71    1.94
   0   9 -14   37.32    2.94
   0  -9 -15    4.26    1.31
   0  -9  15    4.48    0.85
   0   9 -15    4.71    1.45
   0  -9 -16  255.47    7.82
   0   9 -16  276.18    8.55
   0  -9  16  266.96    5.74
   0  -9 -17    6.11    1.54
   0   9 -17   11.96    2.12
   0  -9 -18    3.86    1.49
   0   9 -18    2.37    1.43
   0  -9 -19   93.79    4.96
   0   9 -19   96.04    5.35
   0  -9 -20  106.95    5.41
   0   9 -20  108.15    5.77
   0  -9 -21    2.61    1.68
   0   9 -21    4.72    2.11
   0  -9 -22   20.13    2.73
   0  -9 -23   41.15    3.70
   0 -10   0 1117.27   18.24
   0  10   0 1135.04   17.73
   0  10   0 1120.37   18.25
   0 -10  -1  463.75    9.25
   0 -10   1  452.06    9.23
   0  10  -1  465.62    9.32
   0  10   1  449.36    8.70
   0  10   1  462.55    9.24
   0  10  -1  453.66    8.84
   0 -10  -2  117.66    3.94
   0 -10   2  121.52    4.07
   0  10  -2  118.00    4.06
   0  10   2  119.15    3.98
   0  10   2  111.42    3.55
   0  10  -3    6.46    1.14
   0 -10   3    9.18    1.21
   0 -10  -3    7.41    1.10
   0  10   3    7.23    1.20
   0  10   3    6.69    0.93
   0  10  -4  167.40    5.05
   0 -10   4  167.94    5.06
   0 -10  -4  166.39    4.88
   0  10   4  163.75    4.86
   0  10   4  167.32    4.49
   0 -10   5  140.60    4.62
   0  10  -5  143.13    4.71
   0  10   5  140.42    4.50
   0 -10  -5  146.62    4.60
   0  10   5  137.02    4.07
   0 -10  -6   40.44    2.12
   0  10   6   36.74    2.28
   0 -10  -6   39.33    2.37
   0  10  -6   36.92    2.40
   0 -10   6   38.39    2.41
   0 -10   6   38.34    2.49
   0  10   6   38.69    2.11
   0  10   7   -0.65    0.90
   0 -10  -7    0.85    0.74
   0 -10  -7   -0.81    0.65
   0  10  -7    0.41    0.95
   0 -10   7   -0.49    0.85
   0 -10  -7   -1.26    1.05
   0  10   7    0.36    0.69
   0 -10  -8  169.08    4.79
   0 -10  -8  179.07    5.38
   0  10  -8  163.26    5.44
   0 -10   8  171.94    5.62
   0 -10  -8  163.90    5.15
   0  10   8  160.22    4.74
   0  10  -9  159.82    5.53
   0 -10  -9  163.77    4.83
   0 -10  -9  171.04    5.37
   0  10   9  164.74    4.91
   0 -10  -9  167.05    5.27
   0 -10 -10  382.74    8.97
   0  10 -10  381.25    9.23
   0 -10 -10  366.72    8.67
   0  10  10  356.99    8.16
   0 -10 -10  368.05    8.21
   0  10 -11    2.95    1.31
   0 -10 -11    2.79    0.98
   0 -10 -11    3.23    1.14
   0  10  11    3.23    1.04
   0  10 -12    6.24    1.57
   0 -10 -12    7.23    1.26
   0 -10 -12    4.25    1.25
   0  10  12    4.89    1.16
   0  10 -13   35.99    2.88
   0 -10 -13   32.73    2.55
   0 -10 -13   33.44    2.37
   0  10  13   36.03    2.50
   0  10 -14   25.84    2.52
   0 -10  14   25.14    1.68
   0 -10 -14   25.47    2.37
   0  10  14   27.28    2.26
   0 -10 -15   13.27    1.86
   0 -10  15   10.36    1.13
   0  10 -15   10.94    1.89
   0 -10 -16   -1.09    1.38
   0  10 -16    0.38    1.32
   0 -10  16    0.70    0.68
   0 -10 -17    2.05    1.45
   0  10 -17    5.88    1.85
   0 -10 -18   18.18    2.45
   0  10 -18   21.62    2.76
   0 -10 -19    0.27    1.39
   0  10 -19    1.63    1.71
   0 -10 -20  122.09    5.87
   0  10 -20  132.70    6.47
   0 -10 -21    8.27    2.15
   0  10 -21    8.15    2.24
   0 -10 -22    6.60    2.18
   0 -10 -23    3.10    1.92
   0 -11   0    0.18    0.73
   0  11   0    0.78    0.84
   0  11   0    0.32    0.71
   0 -11   1  131.10    4.41
   0 -11  -1  129.63    4.37
   0  11  -1  124.99    4.33
   0  11  -1  129.16    4.09
   0  11   1  128.23    4.00
   0  11   1  128.13    4.36
   0 -11  -2    6.06    1.07
   0  11  -2    6.63    1.26
   0 -11   2    6.94    1.21
   0  11   2    7.63    1.21
   0  11   2    7.50    1.08
   0 -11   3  279.96    7.12
   0 -11  -3  299.19    7.19
   0  11   3  294.52    7.12
   0  11  -3  285.21    7.17
   0  11   3  290.43    6.57
   0 -11   4  148.09    4.91
   0 -11  -4  148.06    4.81
   0  11   4  154.22    4.85
   0  11  -4  148.39    4.94
   0  11   4  150.82    4.39
   0  11  -5   33.47    2.35
   0 -11   5   29.21    2.23
   0 -11  -5   30.22    2.16
   0  11   5   32.14    2.22
   0  11   5   29.58    1.88
   0 -11  -6  105.97    4.06
   0  11   6  106.03    4.04
   0  11  -6  102.00    4.15
   0 -11   6   96.76    4.02
   0 -11   6  100.86    4.23
   0  11   6  100.48    3.57
   0  11  -7  145.74    5.16
   0  11   7  144.90    4.92
   0 -11  -7  149.37    4.99
   0 -11  -7  137.57    4.33
   0  11   7  151.56    4.53
   0  11  -8   93.33    4.14
   0 -11  -8   93.40    3.54
   0 -11  -8   91.84    3.91
   0 -11  -8   92.27    3.89
   0  11   8   94.80    3.59
   0  11  -9  124.48    4.92
   0 -11  -9  110.11    4.00
   0 -11  -9  113.66    4.45
   0 -11  -9  115.83    4.44
   0  11   9  116.63    4.13
   0  11 -10    4.68    1.42
   0 -11 -10    3.79    1.05
   0 -11 -10    1.91    1.06
   0  11  10    2.06    0.94
   0  11 -11   10.53    1.75
   0 -11 -11   10.56    1.39
   0 -11 -11    8.35    1.52
   0  11  11    9.94    1.43
   0  11 -12  133.80    5.50
   0 -11 -12  124.40    4.92
   0  11  12  126.40    4.61
   0 -11 -12  126.05    4.58
   0  11 -13  180.28    6.58
   0 -11 -13  174.87    6.05
   0  11  13  159.05    5.42
   0  11 -14   38.42    3.21
   0 -11 -14   37.92    2.89
   0  11  14   41.59    2.77
   0 -11 -15    7.59    1.72
   0  11 -15   10.74    2.12
   0 -11  15    6.49    1.01
   0 -11 -16  229.11    7.64
   0  11 -16  243.39    8.35
   0 -11  16  244.33    5.90
   0 -11 -17   34.74    3.00
   0  11 -17   29.97    3.09
   0 -11 -18    4.41    1.53
   0  11 -18   10.01    2.14
   0 -11 -19    6.83    1.91
   0  11 -19    6.08    2.04
   0 -11 -20  110.07    5.62
   0  11 -20  109.53    5.97
   0 -11 -21   18.66    2.63
   0 -11 -22   40.07    3.69
   0 -12   0  401.01    9.05
   0  12   0  408.52    8.61
   0  12   0  413.09    9.18
   0 -12  -1    0.79    0.80
   0 -12   1   -0.11    0.81
   0  12  -1   -0.69    0.99
   0  12  -1    0.23    0.76
   0  12   1    0.98    0.81
   0  12   1    1.16    0.92
   0 -12   2   13.07    1.57
   0 -12  -2   13.48    1.54
   0  12   2   15.70    1.65
   0  12  -2   11.03    1.50
   0  12  -2   14.54    1.47
   0  12   2   14.28    1.43
   0 -12   3   13.20    1.55
   0 -12  -3    9.01    1.35
   0  12  -3   11.48    1.63
   0  12   3   10.60    1.31
   0  12   3    9.11    1.42
   0  12  -4    2.00    1.05
   0 -12   4    1.68    0.86
   0 -12  -4    1.31    0.83
   0  12   4    2.06    0.94
   0  12   4    0.52    0.75
   0  12  -5  213.93    6.31
   0 -12   5  201.59    6.20
   0 -12  -5  215.16    6.20
   0  12   5  198.79    6.01
   0  12   5  210.97    5.58
   0 -12  -6   12.28    1.51
   0  12  -6    9.29    1.52
   0  12   6   10.72    1.55
   0  12   6   11.58    1.33
   0  12  -7    0.54    1.12
   0 -12  -7    0.71    0.86
   0  12   7    1.51    0.95
   0  12   7    2.81    0.98
   0  12  -8  305.60    8.31
   0 -12  -8  308.03    7.32
   0 -12  -8  311.49    7.97
   0  12   8  304.53    7.35
   0  12  -9   62.17    3.60
   0 -12  -9   59.25    2.95
   0  12   9   61.87    3.05
   0 -12  -9   59.66    3.29
   0  12 -10   54.24    3.39
   0 -12 -10   53.33    2.86
   0 -12 -10   54.50    3.20
   0  12  10   48.88    2.74
   0 -12 -11   71.81    3.38
   0  12 -11   78.59    4.19
   0 -12 -11   70.16    3.68
   0  12  11   70.12    3.38
   0 -12 -12   95.26    4.09
   0  12 -12   99.20    4.82
   0 -12 -12   97.35    4.44
   0  12  12  100.04    4.17
   0  12 -13   42.55    3.34
   0 -12 -13   42.48    3.07
   0  12  13   50.44    3.09
   0  12 -14    0.43    1.33
   0 -12 -14    0.67    1.49
   0  12  14    0.36    0.98
   0  12 -15  202.36    7.50
   0 -12  15  198.78    5.49
   0 -12 -15  193.60    6.83
   0  12  15  184.56    6.38
   0 -12 -16    0.35    1.31
   0  12 -16   -0.14    1.51
   0 -12 -17   52.46    3.69
   0  12 -17   48.57    3.83
   0 -12 -18   13.87    2.29
   0  12 -18   16.54    2.64
   0 -12 -19   13.19    2.39
   0  12 -19   14.57    2.62
   0 -12 -20    1.69    1.63
   0 -12 -21   90.27    5.33
   0 -13   0    2.49    1.06
   0  13   0   -1.97    1.05
   0  13   0    0.43    0.85
   0 -13   1   83.90    3.78
   0 -13  -1   81.39    3.72
   0  13  -1   81.28    3.45
   0  13   1   90.01    3.56
   0  13   1   84.58    3.80
   0  13  -1   85.13    3.80
   0 -13   2   58.87    3.20
   0 -13  -2   64.47    3.29
   0  13  -2   65.12    3.12
   0  13   2   61.46    3.24
   0  13  -2   61.37    3.30
   0  13   2   60.64    2.92
   0 -13  -3  161.20    5.39
   0  13  -3  154.73    5.43
   0  13   3  164.43    5.40
   0  13   3  149.15    4.74
   0  13  -4    1.80    1.14
   0 -13  -4    0.64    0.85
   0  13   4   -0.74    0.99
   0  13   4    1.01    0.79
   0  13  -5   25.06    2.24
   0  13   5   27.81    2.28
   0  13   5   25.10    1.92
   0  13  -6   16.01    1.95
   0  13   6   15.42    1.85
   0  13   6   16.19    1.61
   0  13  -7   78.32    3.97
   0  13   7   80.63    3.92
   0  13   7   78.91    3.45
   0  13  -8   77.14    3.96
   0  13   8   69.93    3.25
   0 -13  -8   64.57    3.49
   0  13  -9  172.94    6.21
   0 -13  -9  177.53    5.43
   0 -13  -9  175.34    5.94
   0  13   9  169.83    5.40
   0  13 -10    4.95    1.49
   0 -13 -10    6.89    1.25
   0  13  10    4.86    1.15
   0 -13 -10    5.82    1.41
   0 -13 -11  210.73    6.30
   0  13 -11  216.74    7.35
   0 -13 -11  214.29    6.90
   0  13  11  213.32    6.39
   0  13 -12   -0.05    1.38
   0 -13 -12   -0.92    1.28
   0  13  12   -0.28    0.93
   0  13 -13   10.30    1.96
   0  13  13    9.00    1.53
   0 -13 -13    5.50    1.50
   0  13 -14    2.70    1.53
   0 -13 -14    2.30    1.34
   0  13  14    0.86    1.12
   0  13 -15    1.13    1.56
   0 -13 -15    1.42    1.29
   0  13  15    2.19    1.23
   0 -13 -16    9.63    1.97
   0  13 -16    5.43    1.55
   0 -13 -17   84.45    4.71
   0  13 -17   78.12    4.94
   0 -13 -18   10.60    2.05
   0  13 -18    9.48    2.22
   0 -13 -19    3.88    1.50
   0 -13 -20   -0.27    1.52
   0 -13 -21   59.46    4.47
   0  14   0    7.32    1.52
   0  14   0    7.30    1.34
   0  14  -1   94.69    3.92
   0  14   1   96.57    4.23
   0  14  -1   97.43    4.31
   0  14   1   96.89    3.85
   0  14   2    0.11    1.15
   0  14  -2   -0.23    1.00
   0  14  -2    0.36    1.04
   0  14   2    0.31    0.79
   0  14   3    2.76    1.23
   0  14  -3    2.34    1.03
   0  14  -3    2.63    1.27
   0  14   3    3.23    1.02
   0  14  -4   37.80    2.85
   0  14   4   40.67    2.80
   0  14   4   38.69    2.41
   0  14  -5  142.69    5.41
   0  14   5  142.31    5.28
   0  14   5  140.90    4.72
   0  14  -6   -0.77    1.14
   0  14   6   -0.90    1.11
   0  14   6    0.49    0.87
   0  14  -7   -0.29    1.21
   0  14   7   -0.89    1.14
   0  14   7   -0.06    0.92
   0  14  -8   -0.17    1.10
   0  14   8   -0.91    0.94
   0 -14  -8    0.59    1.07
   0  14  -9   85.44    4.51
   0  14   9   84.38    3.76
   0 -14  -9   85.13    4.19
   0  14 -10   19.46    2.37
   0  14  10   21.40    1.95
   0 -14 -10   17.89    2.16
   0  14 -11   98.54    5.00
   0 -14 -11   92.16    4.58
   0  14  11   89.55    4.07
   0  14 -12    0.78    1.37
   0 -14 -12    0.68    1.33
   0  14  12    0.86    1.04
   0  14 -13   50.05    3.80
   0 -14 -13   49.61    3.45
   0  14  13   47.47    3.07
   0  14 -14   47.94    3.81
   0 -14 -14   40.88    3.31
   0  14  14   46.23    3.10
   0  14 -15   38.15    3.46
   0 -14 -15   32.18    3.05
   0  14  15   28.48    2.58
   0 -14 -16   -3.65    1.63
   0  14 -16   -1.14    1.43
   0 -14 -17   32.15    3.16
   0  14 -17   30.74    3.36
   0 -14 -18    2.92    1.63
   0 -14 -19   22.34    2.81
   0 -14 -20    0.57    1.52
   0  15   0   -0.50    0.99
   0  15   0    0.27    0.96
   0  15  -1   11.18    1.65
   0  15  -1   11.94    1.60
   0  15   1   11.39    1.44
   0  15   1   13.40    1.76
   0  15   2    0.01    1.05
   0  15  -2    1.11    1.23
   0  15   2   -1.23    1.03
   0  15  -2   -0.80    0.95
   0  15   3  200.18    6.57
   0  15  -3  203.07    6.31
   0  15  -3  194.58    6.59
   0  15   3  201.98    5.99
   0  15   4    2.27    1.27
   0  15  -4    0.85    1.09
   0  15  -4    0.77    1.00
   0  15   4   -0.63    0.88
   0  15  -5   16.81    2.11
   0  15   5   21.73    2.24
   0  15   5   20.92    1.93
   0  15  -6   -1.32    1.28
   0  15   6   -0.56    1.14
   0  15   6    1.79    0.95
   0  15   7   57.18    3.52
   0  15  -7   68.85    4.06
   0  15   7   64.01    3.32
   0  15  -8   -0.80    1.24
   0 -15  -8    0.34    1.11
   0  15   8    1.20    1.20
   0  15  -9    2.16    1.54
   0 -15  -9    0.64    1.11
   0  15   9    0.19    0.86
   0  15 -10    3.25    1.43
   0 -15 -10    1.68    1.27
   0  15  10    1.76    0.98
   0  15 -11  156.63    6.54
   0 -15 -11  151.73    6.05
   0  15  11  151.28    5.49
   0  15 -12   64.56    4.31
   0 -15 -12   61.71    3.89
   0  15  12   65.24    3.55
   0  15 -13  114.91    5.78
   0 -15 -13  116.63    5.47
   0  15  13  111.29    4.81
   0  15 -14    0.80    1.46
   0 -15 -14   -1.96    1.64
   0  15  14    0.39    0.99
   0  15 -15   43.79    3.87
   0 -15 -15   46.32    3.69
   0  15  15   48.48    3.30
   0 -15 -16   19.39    2.74
   0  15 -16   17.72    2.72
   0 -15 -17   51.89    3.93
   0 -15 -18   12.25    2.42
   0 -15 -19   -0.48    1.56
   0  16   0   16.53    2.15
   0  16   0   12.36    1.59
   0  16  -1  139.63    5.16
   0  16   1  138.73    5.55
   0  16  -1  132.43    5.45
   0  16   1  135.55    4.99
   0  16   2    1.04    1.36
   0  16  -2    0.68    1.14
   0  16  -2    1.53    1.14
   0  16   2    1.18    0.97
   0  16  -3   54.12    3.26
   0  16   3   49.10    3.31
   0  16  -3   54.30    3.55
   0  16   3   49.19    2.94
   0  16  -4   33.95    2.88
   0  16   4   31.22    2.71
   0  16  -4   28.77    2.43
   0  16   4   29.88    2.28
   0  16  -5  213.19    7.30
   0  16   5  212.72    7.07
   0  16  -5  213.29    6.88
   0  16   5  207.99    6.30
   0  16  -6    7.44    1.76
   0  16   6    7.61    1.61
   0  16   6    7.67    1.35
   0  16  -7   41.43    3.36
   0  16   7   40.77    3.09
   0  16   7   45.60    2.86
   0  16  -8    0.73    1.42
   0  16   8    0.98    0.94
   0 -16  -8   -1.51    1.35
   0  16  -9   84.48    4.83
   0 -16  -9   82.53    4.47
   0  16   9   97.76    4.26
   0  16 -10   40.13    3.35
   0 -16 -10   40.63    3.23
   0  16  10   43.68    2.90
   0  16 -11    6.89    1.92
   0 -16 -11    5.68    1.52
   0  16  11    6.25    1.40
   0  16 -12   -1.96    1.76
   0  16  12   -1.45    1.17
   0 -16 -12   -1.26    1.46
   0  16 -13   25.70    3.04
   0 -16 -13   27.52    2.80
   0  16 -14   18.50    2.66
   0 -16 -14   16.71    2.39
   0 -16 -15   25.74    2.98
   0  16 -15   28.71    3.15
   0 -16 -16   13.47    2.34
   0 -16 -17    5.40    1.87
   0 -16 -18    9.21    2.25
   0  17   0    0.93    1.30
   0  17   0    0.64    0.98
   0  17   1   -0.10    1.27
   0  17  -1    1.12    1.01
   0  17   1   -0.98    1.08
   0  17  -1    2.48    1.46
   0  17  -2  468.12   11.72
   0  17  -2  463.53   10.98
   0  17   2  485.82   11.76
   0  17   2  482.78   10.81
   0  17  -3    0.80    1.11
   0  17  -3   -2.17    1.45
   0  17   3    2.34    1.37
   0  17   3    3.68    1.26
   0  17  -4   59.38    3.83
   0  17   4   68.93    4.01
   0  17  -4   66.56    3.76
   0  17   4   61.01    3.36
   0  17  -5   12.50    1.88
   0  17  -5   12.15    2.11
   0  17   5   10.92    1.83
   0  17   5   12.28    1.70
   0  17  -6  148.55    6.24
   0  17   6  156.78    6.13
   0  17  -6  142.63    5.81
   0  17   6  142.44    5.28
   0  17  -7   10.80    2.09
   0  17   7    5.44    1.68
   0  17   7    5.17    1.26
   0  17  -8   26.75    3.25
   0  17   8   28.66    2.42
   0 -17  -8   26.25    2.72
   0  17  -9   10.12    2.07
   0 -17  -9    8.25    1.77
   0  17   9    8.29    1.46
   0  17 -10   23.43    2.86
   0 -17 -10   20.55    2.51
   0  17 -11  111.82    5.80
   0 -17 -11  109.57    5.39
   0  17 -12   64.25    4.50
   0 -17 -12   61.91    4.11
   0  17 -13   21.62    2.90
   0 -17 -13   19.00    2.48
   0  17 -14    4.94    2.02
   0 -17 -14    5.64    1.81
   0 -17 -15   24.50    2.84
   0 -17 -16    0.54    1.72
   0  18   0   46.30    3.48
   0  18   0   49.42    3.20
   0  18  -1    4.28    1.31
   0  18  -1    4.92    1.67
   0  18   1    0.38    1.22
   0  18   1    0.12    1.01
   0  18  -2   35.61    2.83
   0  18  -2   39.67    3.31
   0  18   2   35.23    3.08
   0  18   2   36.66    2.75
   0  18  -3   14.20    2.11
   0  18   3   14.86    2.15
   0  18  -3   14.02    1.90
   0  18   3   10.86    1.60
   0  18   4   39.90    3.25
   0  18  -4   41.65    3.14
   0  18  -4   39.24    3.32
   0  18   4   44.71    2.96
   0  18  -5   37.30    3.29
   0  18   5   37.21    3.21
   0  18  -5   42.60    3.20
   0  18   5   40.59    2.85
   0  18  -6   61.98    3.89
   0  18  -6   67.81    4.34
   0  18   6   65.42    4.14
   0  18  -7    3.16    1.56
   0  18  -7    1.89    1.52
   0  18   7    2.99    1.44
   0  18  -8   20.65    2.60
   0 -18  -8   25.40    2.80
   0  18  -9    2.93    1.57
   0 -18  -9    3.95    1.49
   0  18 -10   85.53    5.12
   0 -18 -10   81.55    4.70
   0  18 -11   -0.21    1.50
   0 -18 -11   -2.57    1.58
   0  18 -12   58.87    4.49
   0 -18 -12   57.09    4.08
   0 -18 -13    2.82    1.63
   0 -18 -14  134.78    6.42
   0  19   0    2.10    1.65
   0  19   0   -0.67    1.24
   0  19  -1   -2.20    1.78
   0  19   1    1.63    1.53
   0  19  -1    0.22    1.05
   0  19   2  117.23    5.59
   0  19  -2  122.63    5.83
   0  19  -2  118.90    5.21
   0  19  -3    8.78    1.61
   0  19  -3    7.66    1.92
   0  19   3    8.39    1.89
   0  19  -4   14.78    2.47
   0  19  -4   10.42    1.82
   0  19   4    6.38    1.75
   0  19  -5   13.24    2.20
   0  19   5   12.77    2.11
   0  19  -5   14.72    2.23
   0  19  -6  123.24    5.63
   0  19   6  120.70    5.75
   0  19  -6  114.87    5.86
   0  19   7   16.78    2.46
   0  19  -7   19.21    2.49
   0  19  -7   16.46    2.48
   0  19  -8   16.83    2.31
   0  19  -8   18.62    2.60
   0 -19  -8   17.75    2.50
   0  19  -9   -1.29    2.03
   0 -19  -9    2.19    1.72
   0  19 -10    5.53    2.08
   0 -19 -10    5.46    1.60
   0 -19 -11    3.76    1.66
   0 -19 -12   11.52    2.20
   0  20   0   43.62    3.62
   0  20  -1   81.06    4.79
   0  20   1   73.68    4.66
   0  20   2   14.01    2.37
   0  20  -2   12.00    2.10
   0  20   3   23.34    2.86
   0  20  -3   19.80    2.66
   0  20  -4   16.75    2.46
   0  20   4   19.68    2.68
   0  20   5    5.56    1.70
   0  20  -5    3.90    1.79
   0  20  -6    2.23    1.59
   0  20   6   -0.53    1.41
   0  20  -7    0.06    1.46
   0 -20  -7   -1.55    1.61
   0  20  -8    1.22    1.80
   0 -20  -8    0.08    1.50
   0  20  -9   16.37    2.47
   0 -20  -9   15.61    2.53
   0  21   0   -0.17    1.59
   0  21   1   20.28    2.66
   0  21  -1   25.47    3.06
   0  21  -2   12.29    2.21
   0  21   2   14.42    2.53
   0  21   3   39.24    3.60
   0  21  -3   42.95    3.73
   0  21  -4   22.51    2.87
   0  21   4   18.52    2.60
   0  21  -5    1.79    1.75
   1   0 -25    2.67    1.69
   1   0 -24   18.33    2.66
   1   0 -23   -3.42    1.92
   1   0 -22   24.22    2.84
   1   0 -21   -0.88    1.56
   1   0 -20    9.95    1.82
   1   0 -19    0.29    0.43
   1   0 -19   -0.68    1.34
   1   0 -18   28.50    1.26
   1   0 -18   29.45    2.64
   1   0 -17    0.96    0.49
   1   0 -17    1.56    1.26
   1   0 -16  131.88    2.96
   1   0 -16  131.36    4.91
   1   0 -15    0.23    0.37
  -1   0  15   -0.02    0.90
   1   0 -15   -1.28    1.16
  -1   0  14  101.09    4.00
   1   0 -14   99.17    3.93
   1   0 -14  103.62    4.14
  -1   0  13    0.40    0.91
   1   0 -13   -1.40    1.09
   1   0 -13    0.78    0.82
  -1   0  12    1.70    0.93
   1   0 -12    2.56    1.01
   1   0 -12    3.68    1.07
  -1   0  11   -0.23    0.75
   1   0 -11    0.12    0.91
   1   0 -11    1.35    0.91
   1   0 -10   11.16    1.29
  -1   0  10    9.22    1.15
   1   0 -10   11.88    1.26
  -1   0   9   -0.59    0.73
   1   0  -9    0.34    0.82
   1   0  -9   -0.25    0.66
  -1   0   8  336.73    6.51
   1   0  -8  331.49    6.51
   1   0  -8  333.36    6.73
   1   0  -7    0.96    0.83
  -1   0   7    0.71    0.72
   1   0  -7   -0.95    0.75
   1   0  -6 2712.63   36.47
  -1   0   6 2704.88   36.46
   1   0  -6 2630.37   36.73
  -1   0   5   -0.34    0.55
   1   0  -5    0.87    0.73
   1   0  -5    0.74    0.58
  -1   0   5    0.63    0.72
   1   0  -4 1200.06   16.65
  -1   0   4 1189.88   16.64
  -1   0   4 1214.27   16.95
   1   0  -4 1195.22   16.95
  -1   0   3    0.32    0.36
   1   0  -3    0.36    0.48
   1   0  -3    0.74    0.49
  -1   0   3    1.17    0.56
   1   0  -2 1675.71   21.55
   1   0  -2 1678.96   21.80
  -1   0   2 1642.27   21.76
  -1   0   1   -0.02    0.21
   1   0  -1    0.01    0.25
   1   0  -1   -0.52    0.27
  -1   0   1    0.01    0.26
  -1   0   0  315.50    5.15
   1   0   0  383.65    5.09
  -1   0  -1    1.12    0.30
   1   0   1    1.45    0.31
  -1   0  -1    0.75    0.29
  -1   0  -2  600.56    8.79
   1   0   2  610.48    8.79
   1   0   3   -0.41    0.47
  -1   0  -3    0.29    0.62
  -1   0  -4  199.65    3.98
   1   0   4  194.43    3.95
  -1   0  -5    0.32    0.79
   1   0   5    0.89    0.61
   1   0   6  322.93    6.19
  -1   0  -6  326.69    6.26
   1   0   7    0.89    0.62
  -1   0  -7    0.20    0.87
  -1   0  -8  191.33    4.78
   1   0   8  193.32    4.77
   1   0   9    1.29    0.85
  -1   0  -9    0.95    0.96
  -1   0 -10    7.75    1.38
   1   0  10    7.92    1.22
  -1   0 -11    1.55    1.05
   1   0  11    0.89    0.91
  -1   0 -12   43.78    1.89
   1   0  12   49.06    2.71
  -1   0 -12   45.39    2.64
  -1   0 -13    0.20    0.53
  -1   0 -13    0.23    0.99
   1   0  13    0.37    0.78
  -1   0 -14    4.45    0.82
   1   0  14    4.47    1.27
  -1   0 -14    5.75    1.33
  -1   0 -15    0.90    0.61
  -1   0 -15   -1.27    1.24
  -1   0 -16  203.84    5.02
  -1   0 -16  212.21    6.69
  -1   0 -17    0.49    0.65
  -1   0 -17    0.42    1.32
  -1   0 -18  152.50    4.28
  -1   0 -18  149.67    5.96
  -1   0 -19    0.20    0.70
  -1   0 -19    1.84    1.50
  -1   0 -20  232.02    7.99
  -1   0 -21    1.02    1.73
  -1   0 -22  361.27   10.81
  -1   0 -23    0.32    1.71
  -1   0 -24   -1.36    2.04
   1  -1 -25    3.47    1.70
   1   1 -25    7.13    2.04
   1  -1 -24   39.86    3.63
   1   1 -24   41.56    3.72
   1   1 -23   63.49    4.44
   1  -1 -23   63.73    4.37
   1   1 -22  148.80    6.52
   1  -1 -22  150.25    6.42
   1  -1 -21    2.16    1.34
   1   1 -21    5.58    1.77
   1   1 -20  276.14    8.50
   1  -1 -20  266.50    8.29
   1  -1 -19   55.58    2.04
   1  -1 -19   52.50    3.45
   1   1 -19   55.86    3.60
   1   1 -18  479.07   11.34
   1  -1 -18  486.86   11.32
   1   1 -17    0.15    1.17
   1  -1 -17    0.30    1.16
   1  -1 -16    1.05    1.14
   1   1 -16    0.36    1.16
  -1   1  15   15.40    1.74
   1  -1 -15   14.28    1.76
  -1  -1  15   13.26    1.69
   1   1 -15   15.24    1.91
   1   1 -14  753.19   10.88
  -1  -1  14  803.48   14.50
  -1   1  14  794.73   14.28
   1  -1 -14  761.91   14.14
   1   1 -14  769.43   14.35
   1   1 -14  802.11   14.68
   1  -1 -14  799.21   14.60
   1   1 -13   33.78    1.04
  -1  -1  13   35.24    2.31
  -1   1  13   37.62    2.32
   1   1 -13   38.47    2.47
   1  -1 -13   34.14    2.24
   1   1 -13   34.05    2.33
   1  -1 -13   34.94    2.31
   1   1 -12  659.95    9.44
   1  -1 -12  667.00   12.16
  -1  -1  12  688.16   12.42
  -1   1  12  692.21   12.30
   1   1 -12  683.15   12.38
   1   1 -12  680.78   12.60
   1  -1 -12  694.99   12.59
   1   1 -11    6.18    0.44
   1   1 -11    6.50    1.26
   1  -1 -11    6.42    1.16
  -1   1  11    5.86    1.04
  -1  -1  11    4.23    0.88
   1  -1 -11    6.39    1.14
   1   1 -11    5.73    1.19
   1   1 -10 1249.88   16.77
  -1  -1  10 1279.75   19.55
   1   1 -10 1247.23   19.47
  -1   1  10 1266.13   19.33
   1  -1 -10 1254.99   19.29
   1   1 -10 1267.70   19.70
   1  -1 -10 1277.68   19.69
   1   1  -9   51.18    2.32
   1  -1  -9   52.90    2.25
  -1   1   9   52.51    2.23
  -1  -1   9   49.25    2.28
   1   1  -9   51.70    2.37
   1  -1  -9   52.07    2.32
  -1  -1   8    0.98    0.71
   1   1  -8    2.26    0.87
  -1   1   8   -0.09    0.63
   1  -1  -8    1.71    0.83
   1   1  -8    0.44    0.74
   1  -1  -8    1.57    0.77
  -1   1   7    7.40    0.88
   1  -1  -7    8.34    1.04
  -1  -1   7    6.89    0.90
   1   1  -7    7.02    0.97
  -1   1   7    9.00    1.19
   1   1  -7    9.13    1.00
   1  -1  -7    8.86    0.98
  -1  -1   6  242.50    4.81
   1  -1  -6  236.10    4.63
   1   1  -6  249.12    4.87
  -1   1   6  238.38    4.63
   1   1  -6  244.59    4.94
   1  -1  -6  231.50    4.89
  -1   1   6  241.35    4.93
   1   1  -5  981.63   14.02
  -1   1   5  940.14   13.69
  -1  -1   5  935.10   13.95
   1  -1  -5  972.20   13.73
   1  -1  -5  949.63   14.13
  -1   1   5  950.20   14.14
   1   1  -5  948.71   14.07
   1   1  -4 1102.53   15.60
  -1  -1   4 1103.80   15.59
   1  -1  -4 1113.52   15.26
  -1   1   4 1098.61   15.24
  -1   1   4 1080.27   15.73
   1   1  -4 1110.12   15.66
   1  -1  -4 1084.59   15.71
   1   1  -3  183.23    3.45
   1  -1  -3  186.68    3.08
  -1   1   3  180.54    3.05
  -1  -1   3  182.05    3.38
   1  -1  -3  182.13    3.50
   1   1  -3  185.77    3.39
  -1   1   3  189.88    3.53
   1   1  -2  239.10    3.95
  -1  -1   2  233.90    3.93
   1  -1  -2  235.87    4.01
  -1   1   2  237.09    4.00
   1   1  -2  229.62    3.77
  -1  -1   2  233.48    3.80
   1   1  -1  442.11    6.37
   1  -1  -1  430.14    6.41
  -1   1   1  453.97    6.43
  -1   1   0  894.51   11.94
   1   1   0  896.85   11.92
  -1  -1  -1    7.73    0.57
   1   1   1    9.11    0.63
   1  -1   1    8.25    0.60
   1  -1   1    8.38    0.49
  -1   1  -1   10.64    0.54
  -1  -1  -2  962.06   13.46
   1  -1   2  949.31   13.26
  -1   1  -2  944.80   13.24
   1  -1   2  949.46   13.25
  -1   1  -2  975.09   13.26
   1   1   2  947.09   13.42
  -1  -1  -2  933.53   13.42
  -1   1  -3 2024.76   27.47
   1  -1   3 2093.98   27.53
  -1   1  -3 2078.86   27.73
   1  -1   3 2001.37   27.68
  -1  -1  -3 2036.31   27.82
   1   1   3 2055.30   27.84
  -1   1  -4    2.18    0.51
   1  -1   4    2.96    0.59
   1  -1   4    1.64    0.62
  -1   1  -4    0.97    0.69
  -1  -1  -4    2.14    0.82
   1   1   4    2.07    0.68
  -1   1  -5 1232.82   17.47
  -1   1  -5 1297.47   18.21
  -1  -1  -5 1222.88   18.15
   1  -1   5 1257.01   18.13
   1   1   5 1258.72   18.14
  -1   1  -6  270.73    4.88
  -1  -1  -6  278.63    5.58
  -1   1  -6  289.88    5.65
   1  -1   6  272.38    5.53
   1   1   6  269.57    5.57
  -1   1  -7  192.49    3.88
  -1   1  -7  194.02    4.64
  -1  -1  -7  196.57    4.63
   1  -1   7  195.38    4.61
   1   1   7  201.22    4.63
  -1   1  -8  195.49    4.00
   1   1   8  193.56    4.81
   1  -1   8  200.34    4.90
  -1   1  -8  197.21    4.88
  -1  -1  -8  196.25    4.85
  -1   1  -9    5.16    0.76
   1   1   9    5.52    1.03
  -1   1  -9    4.08    1.11
   1  -1   9    4.08    0.98
  -1  -1  -9    3.70    1.10
  -1   1 -10 1671.33   23.89
   1  -1  10 1694.99   25.63
  -1   1 -10 1710.47   25.64
  -1  -1 -10 1711.15   25.58
   1   1  10 1721.16   25.64
  -1   1 -11    0.24    0.51
   1  -1  11    0.56    0.95
   1   1  11    0.81    0.93
  -1   1 -11    0.15    1.00
  -1  -1 -11    1.37    0.91
  -1   1 -12    7.18    0.85
   1  -1  12    8.41    1.28
   1   1  12    7.07    1.17
  -1   1 -12    8.85    1.44
  -1  -1 -12    6.54    1.26
  -1  -1 -12    7.13    1.14
  -1   1 -13    4.54    0.74
   1   1  13    7.12    1.32
   1  -1  13    9.14    1.38
  -1   1 -13    4.77    1.29
  -1  -1 -13    7.18    1.32
  -1  -1 -13    5.22    1.13
  -1   1 -14  243.42    5.31
  -1   1 -14  241.90    6.91
   1   1  14  257.11    7.05
  -1  -1 -14  252.50    7.01
  -1  -1 -14  260.31    6.91
  -1   1 -15    3.15    0.75
  -1   1 -15    3.84    1.33
  -1  -1 -15   -0.51    1.14
  -1  -1 -16   17.89    1.43
  -1   1 -16   15.76    1.26
  -1   1 -16   15.99    1.90
  -1  -1 -16   18.16    2.07
  -1   1 -17    5.08    0.90
  -1  -1 -17    6.06    1.06
  -1  -1 -17    1.40    1.20
  -1   1 -17    4.37    1.50
  -1   1 -18  244.67    5.60
  -1  -1 -18  242.65    5.92
  -1   1 -18  252.24    7.84
  -1  -1 -18  244.63    7.72
  -1   1 -19    2.62    0.84
  -1  -1 -19    1.34    0.83
  -1  -1 -19    5.64    1.77
  -1   1 -19    1.06    1.44
  -1  -1 -20  223.97    7.85
  -1   1 -20  220.84    7.79
  -1   1 -21    9.87    2.13
  -1  -1 -21    9.21    2.08
  -1  -1 -22  220.12    8.17
  -1   1 -22  218.72    8.18
  -1  -1 -23   21.55    2.80
  -1   1 -23   31.52    3.41
  -1   1 -24   47.97    4.07
  -1  -1 -24   52.22    4.25
   1  -2 -25    7.60    2.19
   1   2 -25    3.69    1.75
   1  -2 -24   21.88    2.98
   1   2 -24   18.97    2.75
   1   2 -23    2.59    1.75
   1  -2 -23    2.52    1.64
   1  -2 -22   14.22    2.34
   1   2 -22   10.96    2.08
   1   2 -21   -0.31    1.39
   1  -2 -21    0.89    1.41
   1  -2 -20    8.07    1.84
   1   2 -20    8.70    2.00
   1   2 -19    3.41    1.43
   1  -2 -19    4.15    1.51
   1  -2 -18    2.85    1.46
   1   2 -18   -1.36    1.36
   1   2 -17  296.19    8.26
   1  -2 -17  292.00    7.99
   1   2 -16  576.81   12.35
   1  -2 -16  583.32   12.10
   1   2 -15  319.17    8.24
   1  -2 -15  312.65    7.93
  -1   2  15  344.17    8.20
   1  -2 -14  291.78    7.36
   1   2 -14  294.93    7.60
  -1   2  14  300.49    7.42
  -1  -2  14  311.20    7.72
   1   2 -14  308.52    7.85
   1  -2 -14  311.63    7.79
  -1  -2  13  393.70    8.73
  -1   2  13  386.73    8.44
   1   2 -13  370.39    8.58
   1  -2 -13  367.68    8.30
   1   2 -13  390.84    8.82
   1  -2 -13  386.07    8.70
   1   2 -12  101.28    3.80
  -1   2  12  100.49    3.64
  -1  -2  12  108.11    3.89
   1  -2 -12   98.96    3.62
   1   2 -12  104.18    3.94
   1  -2 -12   97.36    3.77
   1  -2 -11 1089.88   17.71
   1   2 -11 1090.54   18.08
  -1   2  11 1115.12   17.74
  -1  -2  11 1162.24   18.27
   1  -2 -11 1121.11   18.15
  -1  -2  10   65.06    2.74
   1   2 -10   56.54    2.64
   1  -2 -10   61.92    2.57
  -1   2  10   65.62    2.57
   1  -2 -10   64.33    2.71
   1  -2  -9  143.39    3.85
   1   2  -9  138.95    4.07
  -1   2   9  146.98    3.88
  -1  -2   9  150.70    4.14
  -1   2   9  145.28    4.10
   1  -2  -9  141.73    4.08
   1   2  -8  644.06   10.98
  -1  -2   8  656.38   11.01
   1  -2  -8  624.06   10.56
  -1   2   8  657.01   10.62
   1  -2  -8  643.02   11.01
  -1   2   8  647.16   11.00
   1  -2  -7  715.52   11.26
   1   2  -7  718.37   11.73
  -1   2   7  723.16   11.28
  -1  -2   7  729.78   11.69
   1  -2  -7  711.08   11.70
  -1   2   7  709.24   11.66
  -1   2   6  767.63   11.59
  -1  -2   6  776.28   12.04
   1   2  -6  769.08   12.09
   1  -2  -6  764.24   11.60
  -1   2   6  760.34   12.08
   1  -2  -6  765.58   12.07
   1   2  -5 1473.02   21.40
  -1   2   5 1521.69   20.79
   1   2  -5 1519.23   21.35
   1  -2  -5 1519.50   20.80
  -1  -2   5 1490.38   21.32
  -1   2   5 1494.08   21.35
   1  -2  -5 1487.94   21.34
   1   2  -4  245.04    4.76
  -1   2   4  252.41    4.22
  -1  -2   4  251.04    4.70
   1  -2  -4  246.72    4.20
   1  -2  -4  235.76    4.65
  -1   2   4  259.51    4.76
   1   2  -3  248.14    4.53
  -1  -2   3  241.89    4.47
   1  -2  -3  248.15    3.91
   1  -2  -3  248.05    4.48
  -1   2   3  249.19    4.49
  -1   2   3  238.63    3.90
   1   2  -2 3198.50   42.58
  -1  -2   2 3137.56   42.56
   1  -2  -2 3195.91   41.75
   1  -2  -2 3204.24   42.52
  -1   2   2 3197.78   42.52
   1  -2  -2 3236.89   41.70
   1  -2  -1  428.11    6.61
  -1   2   1  423.93    6.61
  -1  -2   1  414.69    6.63
   1   2  -1  435.28    6.67
   1   2   0   57.10    1.63
  -1  -2   0   59.45    1.62
   1  -2   0   55.74    1.18
  -1  -2  -1  177.22    3.45
   1   2   1  179.21    3.46
  -1   2  -1  186.21    3.09
   1  -2   1  179.14    3.05
  -1  -2  -2 1504.64   20.96
   1   2   2 1498.89   20.96
   1  -2   2 1510.24   20.61
  -1   2  -2 1546.36   20.63
  -1  -2  -2 1513.44   20.04
  -1  -2  -3  580.71    9.14
  -1   2  -3  582.83    8.94
   1  -2   3  585.79    8.92
  -1  -2  -3  580.40    9.13
  -1  -2  -3  587.74    8.39
  -1  -2  -4  104.20    2.76
   1  -2   4  101.83    2.39
  -1   2  -4  102.04    2.73
  -1  -2  -4  107.48    2.82
   1  -2   4  105.40    2.66
   1   2   4  102.62    2.73
  -1  -2  -4  104.41    2.33
   1  -2   5   51.48    1.69
  -1   2  -5   53.72    2.04
   1  -2   5   56.58    2.00
  -1  -2  -5   56.83    2.12
  -1  -2  -5   54.08    1.74
   1   2   5   55.71    2.03
   1  -2   6  119.04    2.79
  -1  -2  -6  115.25    3.34
   1  -2   6  123.05    3.33
  -1   2  -6  126.72    3.42
   1   2   6  123.74    3.33
  -1  -2  -6  118.35    3.01
  -1   2  -7  717.96   11.80
   1   2   7  705.35   11.75
  -1  -2  -7  698.00   11.73
   1  -2   7  719.83   11.79
  -1  -2  -7  701.62   11.25
  -1   2  -8 1295.17   18.60
   1  -2   8 1329.81   20.05
   1   2   8 1342.83   20.01
  -1   2  -8 1303.94   19.95
  -1  -2  -8 1304.41   19.93
  -1  -2  -8 1305.33   19.42
  -1   2  -9    9.32    0.86
  -1  -2  -9   10.26    1.32
  -1   2  -9   10.23    1.38
   1  -2   9   10.39    1.17
   1   2   9   10.27    1.25
  -1  -2  -9   10.93    1.21
  -1   2 -10  186.80    4.02
   1  -2  10  194.87    5.25
   1   2  10  189.21    5.18
  -1  -2 -10  188.16    5.13
  -1   2 -10  185.66    5.19
  -1  -2 -10  182.62    4.82
  -1   2 -11  220.81    4.64
  -1  -2 -11  240.52    6.05
   1  -2  11  231.65    6.05
   1   2  11  225.34    5.97
  -1   2 -11  219.35    5.95
  -1  -2 -11  226.82    5.70
  -1   2 -12    3.17    0.68
  -1  -2 -12    2.08    1.10
  -1   2 -12    4.11    1.20
   1  -2  12    3.84    1.13
  -1  -2 -12    3.55    0.93
   1   2  12    3.30    1.06
  -1   2 -13  120.21    3.25
  -1   2 -13  116.33    4.43
   1  -2  13  129.16    4.65
  -1  -2 -13  123.54    4.57
   1   2  13  129.35    4.59
  -1  -2 -13  122.52    4.26
  -1   2 -14    4.29    1.35
  -1  -2 -14    5.43    1.35
  -1  -2 -14    3.59    1.08
  -1  -2 -15  198.17    6.29
  -1   2 -15  197.95    6.35
  -1  -2 -15  206.17    6.19
  -1   2 -16   74.99    3.95
  -1  -2 -16   77.12    3.91
  -1  -2 -17  482.45   11.35
  -1   2 -17  470.64   11.32
  -1  -2 -18   10.94    2.01
  -1   2 -18   15.58    2.17
  -1  -2 -19   17.56    1.62
  -1   2 -19   14.56    2.21
  -1  -2 -19   13.11    2.02
  -1   2 -20  201.25    7.41
  -1  -2 -20  208.60    7.49
  -1   2 -21  184.63    7.32
  -1  -2 -21  181.90    7.21
  -1   2 -22   34.32    3.40
  -1  -2 -22   32.86    3.35
  -1  -2 -23   -1.26    1.67
  -1   2 -23    1.88    1.96
  -1   2 -24   45.03    4.09
  -1  -2 -24   43.64    3.84
   1  -3 -25    2.39    1.59
   1   3 -24   44.60    3.98
   1  -3 -24   34.19    3.31
   1   3 -23   40.20    3.70
   1  -3 -23   45.95    3.69
   1   3 -22   72.88    4.63
   1  -3 -22   75.73    4.48
   1  -3 -21   -1.29    1.53
   1   3 -21    0.23    1.44
   1   3 -20  220.50    7.73
   1  -3 -20  216.42    7.37
   1  -3 -19  109.96    4.97
   1   3 -19  119.33    5.35
   1  -3 -18   29.30    2.54
   1   3 -18   32.91    2.92
   1  -3 -17    1.24    1.23
   1   3 -17   -0.57    1.30
   1  -3 -16   26.99    2.27
   1   3 -16   28.43    2.45
   1  -3 -15  148.12    5.11
  -1   3  15  158.36    5.22
   1   3 -15  157.72    5.45
   1   3 -14   20.16    1.99
   1  -3 -14   16.61    1.69
  -1  -3  14   15.34    1.72
  -1   3  14   17.71    1.73
   1  -3 -14   18.77    1.84
   1   3 -13  170.05    5.42
  -1  -3  13  176.72    5.48
  -1   3  13  175.74    5.15
   1  -3 -13  170.24    5.07
   1  -3 -13  175.20    5.34
  -1  -3  12  110.94    4.06
   1   3 -12  107.70    4.07
   1  -3 -12  100.56    3.67
  -1   3  12  115.21    3.87
   1  -3 -12  111.73    4.00
  -1  -3  11    5.14    1.10
   1  -3 -11    5.86    1.15
   1   3 -11    5.27    1.14
   1  -3 -11    5.16    1.01
  -1   3  11    7.62    1.15
  -1  -3  10   15.66    1.47
   1   3 -10   16.03    1.56
   1  -3 -10   13.67    1.34
  -1   3  10   15.25    1.34
  -1   3  10   13.66    1.48
   1  -3 -10   13.99    1.41
  -1  -3   9 1100.25   17.33
  -1   3   9 1091.07   16.76
   1   3  -9 1092.42   17.30
   1  -3  -9 1068.89   16.68
  -1   3   9 1056.48   17.07
   1  -3  -9 1102.72   17.20
  -1  -3   8   45.69    1.00
   1   3  -8   44.70    2.22
   1  -3  -8   46.86    2.00
  -1  -3   8   45.51    2.19
  -1   3   8   45.81    1.93
   1  -3  -8   46.84    2.11
  -1   3   8   45.89    2.17
   1   3  -7   69.48    2.60
   1   3  -7   62.30    2.52
  -1   3   7   64.21    2.18
   1  -3  -7   64.30    2.21
  -1  -3   7   64.68    2.47
   1  -3  -7   65.06    2.44
  -1   3   7   63.37    2.45
   1   3  -6  276.45    5.63
  -1  -3   6  256.03    5.49
   1  -3  -6  261.10    5.00
  -1   3   6  268.33    5.01
   1  -3  -6  265.81    5.44
  -1   3   6  266.75    5.45
   1   3  -5  589.45    9.87
  -1  -3   5  591.73    9.87
   1  -3  -5  598.09    9.17
  -1   3   5  596.16    9.17
  -1   3   5  600.54    9.73
   1  -3  -5  604.18    9.70
   1   3  -4  674.72   10.49
  -1  -3   4  652.02   10.39
   1  -3  -4  645.19    9.65
   1  -3  -4  660.83   10.27
  -1   3   4  655.43   10.27
  -1  -3   3 9791.73  128.65
   1   3  -3 9999.00  128.72
   1  -3  -3 9797.77  127.81
   1  -3  -3 9795.43  128.50
  -1   3   3 9700.81  128.52
   1  -3  -3 9996.94  127.76
  -1  -3   2 1548.78   21.83
   1   3  -2 1586.10   21.86
   1  -3  -2 1566.80   20.98
  -1   3   2 1572.54   20.97
   1  -3  -2 1562.00   21.71
  -1   3   2 1545.54   21.74
   1  -3  -1  365.06    5.40
  -1   3   1  366.08    5.40
  -1   3   1  358.13    6.08
   1   3  -1  375.19    6.23
   1  -3  -1  363.03    6.10
  -1  -3   1  366.04    6.20
   1   3   0  559.21    8.58
  -1  -3   0  550.12    8.53
   1  -3   0  531.80    7.77
  -1   3   0  551.00    7.79
   1   3   1  610.69    9.72
  -1  -3  -1  637.14    9.72
  -1   3  -1  638.94    9.09
   1  -3   1  633.91    9.20
  -1  -3  -2   26.10    1.34
   1   3   2   29.56    1.39
  -1   3  -2   29.32    1.15
   1  -3   2   27.71    1.18
  -1   3  -2   26.85    1.19
  -1  -3  -2   28.26    0.82
   1   3   2   28.09    0.82
   1   3   3   16.44    1.19
  -1  -3  -3   17.21    1.12
   1  -3   3   16.87    1.01
  -1   3  -3   16.55    1.09
   1   3   3   16.09    0.75
  -1  -3  -3   15.59    0.74
  -1  -3  -4  113.85    3.02
  -1   3  -4  116.51    2.98
   1  -3   4  111.02    2.89
  -1  -3  -4  113.20    2.45
  -1  -3  -4  110.44    3.04
  -1  -3  -5  121.47    3.33
   1  -3   5  120.32    2.86
  -1   3  -5  124.46    3.30
  -1  -3  -5  126.36    3.39
   1  -3   5  128.22    3.26
  -1  -3  -5  123.25    2.81
  -1  -3  -6   81.80    2.74
   1  -3   6   75.92    2.20
  -1   3  -6   88.17    2.82
  -1  -3  -6   80.23    2.75
   1  -3   6   83.33    2.70
  -1  -3  -6   80.60    2.35
   1   3   6   79.33    2.68
   1  -3   7   57.24    1.91
  -1   3  -7   57.83    2.41
   1  -3   7   59.92    2.43
  -1  -3  -7   59.31    2.45
  -1  -3  -7   59.73    2.13
   1   3   7   60.78    2.42
   1  -3   8    0.73    0.52
  -1  -3  -8    0.73    0.85
  -1   3  -8    1.14    0.92
   1  -3   8    0.43    0.77
   1   3   8   -0.16    0.76
  -1  -3  -8    0.53    0.70
  -1  -3  -9   92.68    3.35
  -1   3  -9   91.84    3.33
   1  -3   9   98.21    3.41
   1   3   9   90.96    3.31
  -1  -3  -9   87.86    3.00
  -1   3 -10    4.10    1.18
  -1  -3 -10    4.27    1.18
   1  -3  10    5.31    1.05
   1   3  10    2.95    0.99
  -1  -3 -10    3.77    0.89
  -1   3 -11  155.43    4.88
   1  -3  11  159.96    4.95
   1   3  11  168.14    4.96
  -1  -3 -11  152.69    4.80
  -1  -3 -11  148.26    4.45
  -1  -3 -12  117.67    4.30
  -1   3 -12  120.51    4.37
   1   3  12  124.45    4.40
   1  -3  12  122.43    4.44
  -1  -3 -12  123.38    4.10
  -1   3 -13   27.89    2.35
   1   3  13   34.57    2.39
  -1  -3 -13   32.44    2.43
   1  -3  13   31.88    2.40
  -1  -3 -13   32.27    2.16
  -1   3 -14    9.20    1.66
  -1  -3 -14    7.55    1.50
  -1  -3 -14    9.06    1.35
  -1   3 -15   11.39    1.78
  -1  -3 -15   11.08    1.70
  -1  -3 -15   11.61    1.52
  -1  -3 -16  130.01    5.19
  -1   3 -16  140.58    5.51
  -1   3 -17   61.40    3.69
  -1  -3 -17   59.16    3.56
  -1   3 -18   11.54    1.96
  -1  -3 -18   12.06    2.09
  -1  -3 -19  120.89    5.50
  -1   3 -19  121.13    5.59
  -1  -3 -20   42.28    3.51
  -1   3 -20   42.65    3.59
  -1   3 -21    9.48    1.93
  -1  -3 -21    9.86    2.09
  -1  -3 -22    6.07    2.02
  -1   3 -22    3.93    1.68
  -1   3 -23   81.03    5.11
  -1  -3 -23   81.26    5.08
  -1  -3 -24   24.92    3.05
   1  -4 -25  147.25    6.85
   1  -4 -24   30.95    3.23
   1   4 -24   31.45    3.39
   1   4 -23   -1.00    1.49
   1  -4 -23    0.91    1.66
   1   4 -22    3.52    1.64
   1  -4 -22    7.01    1.88
   1   4 -21   49.83    3.85
   1  -4 -21   52.01    3.70
   1   4 -20    0.66    1.41
   1  -4 -20    4.70    1.60
   1  -4 -19   -0.75    1.29
   1   4 -19   -1.58    1.50
   1  -4 -18   83.49    4.21
   1   4 -18   89.01    4.56
   1  -4 -17  175.09    5.93
   1   4 -17  177.53    6.30
   1   4 -16   47.74    3.21
   1  -4 -16   50.07    3.07
  -1   4  15  424.06    9.41
   1   4 -15  385.97    9.60
   1  -4 -15  398.34    9.21
   1   4 -14    2.74    1.12
   1  -4 -14    1.88    1.03
   1  -4 -14    2.08    0.93
  -1   4  14    1.89    0.97
  -1   4  13   43.61    2.50
   1   4 -13   44.93    2.77
  -1  -4  13   46.99    2.73
   1  -4 -13   41.53    2.47
   1  -4 -13   42.86    2.56
  -1   4  12   57.83    2.73
  -1  -4  12   55.73    2.89
   1  -4 -12   56.08    2.72
   1   4 -12   53.88    2.94
  -1   4  12   55.61    2.81
   1  -4 -12   55.19    2.80
  -1  -4  11  648.06   12.07
   1   4 -11  621.58   11.94
  -1   4  11  634.08   11.42
   1  -4 -11  626.01   11.38
   1  -4 -11  647.27   11.82
  -1   4  11  615.04   11.63
  -1  -4  10   -0.08    0.26
   1   4 -10    0.24    0.89
   1  -4 -10   -0.17    0.79
  -1  -4  10   -0.72    0.82
   1   4 -10    0.46    1.00
  -1   4  10   -0.98    0.81
   1  -4 -10   -0.70    0.80
  -1   4  10    0.67    0.86
   1   4  -9  336.95    7.37
  -1  -4   9  321.93    5.07
  -1  -4   9  342.15    7.32
   1  -4  -9  339.36    6.77
   1   4  -9  341.42    7.35
  -1   4   9  332.59    7.15
  -1   4   9  344.79    6.78
   1  -4  -9  341.61    7.13
   1   4  -8  226.50    5.50
   1  -4  -8  216.08    4.87
  -1  -4   8  220.63    5.39
   1  -4  -8  224.54    5.26
  -1   4   8  207.86    5.19
  -1   4   8  222.85    4.90
   1   4  -7  676.04   11.63
   1  -4  -7  684.69   10.88
  -1  -4   7  682.31   11.65
  -1   4   7  681.03   10.87
  -1   4   7  666.37   11.33
   1  -4  -7  665.27   11.30
   1   4  -6   12.42    1.30
  -1  -4   6   13.44    1.21
   1  -4  -6   11.17    1.02
  -1   4   6   13.17    1.19
   1  -4  -6   12.58    1.12
   1  -4  -5  555.48    8.85
  -1  -4   5  557.69    9.56
   1   4  -5  538.75    9.51
   1  -4  -5  552.13    8.77
  -1  -4   5  554.13    9.51
   1  -4  -5  554.91    9.27
  -1   4   5  563.10    9.33
  -1  -4   4 1009.90   15.20
   1   4  -4 1025.29   15.27
   1  -4  -4  984.06   14.39
   1  -4  -4 1004.64   14.33
  -1   4   4  981.24   14.93
   1  -4  -4 1000.43   14.95
   1   4  -3  207.96    4.43
  -1  -4   3  194.39    4.33
   1  -4  -3  197.27    3.73
  -1   4   3  205.05    3.76
   1  -4  -3  196.06    4.18
  -1   4   3  203.28    4.22
   1   4  -2  149.73    3.58
  -1  -4   2  148.60    3.52
  -1   4   2  149.55    2.90
   1  -4  -2  142.45    2.87
   1  -4  -2  146.63    3.36
  -1   4   2  151.70    3.40
  -1  -4   1   75.69    2.32
   1  -4  -1   72.11    1.82
   1   4  -1   71.17    2.28
  -1   4   1   79.03    1.85
  -1   4   1   78.63    2.31
  -1   4   0  190.02    3.41
   1  -4   0  176.16    3.38
  -1   4   0  190.82    3.93
  -1  -4   0  181.41    3.96
   1   4   0  183.73    4.01
   1  -4   1  353.39    5.80
  -1   4  -1  363.65    5.84
  -1  -4  -1  372.10    6.46
   1   4   1  362.06    6.47
   1   4   1  350.21    5.28
   1   4   2  415.10    7.27
  -1  -4  -2  409.98    6.10
  -1  -4  -2  410.19    7.24
  -1   4  -2  411.53    6.75
   1  -4   2  412.22    6.85
   1   4   2  418.21    6.11
   1   4   3  117.62    3.23
  -1  -4  -3  122.88    3.22
  -1   4  -3  121.07    2.96
   1  -4   3  121.27    3.02
   1   4   3  121.77    2.43
  -1  -4  -3  118.92    2.40
   1   4   4   95.05    2.94
  -1  -4  -4  101.28    2.96
  -1   4  -4  103.78    2.80
   1  -4   4  102.55    2.84
  -1   4  -4  101.18    2.85
   1   4   4   98.04    2.30
  -1  -4  -4   98.84    2.28
  -1  -4  -5  100.51    3.07
  -1   4  -5   96.79    2.96
   1  -4   5   97.47    2.90
  -1  -4  -5  100.05    3.06
   1   4   5   99.99    2.47
  -1  -4  -5   95.89    2.43
  -1  -4  -6    9.77    1.09
   1  -4   6   10.45    1.13
  -1   4  -6   11.97    1.26
  -1  -4  -6   12.74    1.27
  -1  -4  -6   11.96    0.92
  -1  -4  -7  689.35   11.61
   1  -4   7  644.83   10.38
  -1   4  -7  684.41   11.46
  -1  -4  -7  675.65   11.43
   1  -4   7  646.41   11.37
  -1  -4  -7  647.87   10.63
  -1  -4  -8  494.66    9.44
   1  -4   8  475.48    8.20
   1  -4   8  504.55    9.43
  -1  -4  -8  498.88    9.35
  -1   4  -8  508.55    9.48
   1   4   8  506.92    9.44
  -1  -4  -8  478.50    8.62
   1  -4   9  173.72    3.96
  -1   4  -9  179.98    4.99
  -1  -4  -9  175.59    4.87
   1  -4   9  177.36    4.96
  -1  -4  -9  178.57    4.46
   1   4   9  179.62    4.93
   1  -4  10    2.84    0.65
  -1   4 -10    4.64    1.08
  -1  -4 -10    4.23    1.05
   1  -4  10    5.58    1.13
  -1  -4 -10    2.84    0.73
   1   4  10    3.60    0.97
  -1   4 -11   86.83    3.59
   1  -4  11   86.58    3.62
  -1  -4 -11   84.97    3.54
   1   4  11   85.38    3.52
  -1  -4 -11   78.96    3.09
  -1  -4 -12   -0.78    1.00
  -1   4 -12    1.33    1.03
   1  -4  12    0.10    0.91
   1   4  12    1.04    0.86
  -1  -4 -12    0.61    0.74
   1  -4  13   40.71    2.66
  -1  -4 -13   38.99    2.61
  -1   4 -13   36.71    2.54
  -1  -4 -13   43.81    2.46
   1   4  13   46.97    2.80
  -1  -4 -14   54.28    3.15
  -1   4 -14   56.99    3.27
  -1  -4 -14   57.61    2.98
  -1  -4 -15  291.07    7.99
  -1   4 -15  305.88    8.34
  -1  -4 -15  295.55    7.66
  -1   4 -16   26.78    2.52
  -1  -4 -16   21.37    2.24
  -1  -4 -17  269.40    8.08
  -1   4 -17  281.33    8.35
  -1   4 -18   51.84    3.60
  -1  -4 -18   47.04    3.33
  -1  -4 -19    0.71    1.37
  -1   4 -19    1.92    2.81
  -1  -4 -20    2.50    1.46
  -1   4 -20    8.13    2.05
  -1  -4 -21  245.57    8.48
  -1   4 -21  249.94    8.71
  -1  -4 -22    1.11    1.67
  -1   4 -22    4.66    1.97
  -1   4 -23    0.54    1.66
  -1  -4 -23    0.08    1.49
  -1  -4 -24   12.04    2.55
   1  -5 -25   22.00    2.89
   1   5 -24    6.33    2.15
   1  -5 -24    6.06    1.86
   1   5 -23   63.91    4.82
   1  -5 -23   60.20    4.26
   1   5 -23   65.19    4.55
   1   5 -22    1.20    1.51
   1   5 -22    2.46    1.76
   1  -5 -22    5.00    1.79
   1   5 -21   55.79    4.05
   1  -5 -21   48.04    3.64
   1   5 -21   51.50    3.93
   1   5 -20    5.55    1.72
   1  -5 -20   11.22    1.92
   1  -5 -19  189.05    6.67
   1   5 -19  200.10    7.24
   1   5 -18   26.49    2.82
   1  -5 -18   28.86    2.57
   1   5 -17  107.73    4.90
   1  -5 -17  106.49    4.59
   1   5 -16   74.17    3.99
   1   5 -16   82.76    4.24
   1  -5 -16   76.65    3.72
   1   5 -15  298.20    8.32
   1   5 -15  307.00    8.29
   1  -5 -15  297.05    7.75
  -1   5  15  309.81    7.80
   1   5 -14   68.51    3.62
   1  -5 -14   66.83    3.25
   1   5 -14   67.66    3.64
  -1   5  14   69.36    3.27
   1  -5 -14   73.40    3.49
   1   5 -13  699.75   13.86
   1   5 -13  717.28   13.88
  -1  -5  13  722.82   13.92
   1  -5 -13  696.79   13.09
   1  -5 -13  747.96   13.68
  -1   5  13  697.29   13.46
  -1   5  13  720.30   13.20
   1   5 -12   59.87    3.19
   1  -5 -12   57.78    2.78
   1   5 -12   58.20    3.05
  -1  -5  12   60.54    3.11
  -1   5  12   55.11    2.93
  -1   5  12   55.46    2.68
   1  -5 -12   66.55    3.09
   1   5 -11   42.26    2.56
  -1  -5  11   41.08    1.26
   1  -5 -11   39.97    2.26
  -1  -5  11   42.35    2.56
  -1   5  11   42.88    2.26
  -1   5  11   42.32    2.39
   1  -5 -11   46.30    2.49
   1   5 -10   21.87    1.83
  -1  -5  10   25.27    1.91
   1  -5 -10   20.91    1.59
   1  -5 -10   24.69    1.75
  -1   5  10   22.85    1.59
  -1   5  10   23.55    1.76
   1   5  -9  657.76   12.01
   1  -5  -9  648.22   11.16
  -1  -5   9  651.51   11.95
  -1   5   9  644.89   11.18
  -1   5   9  647.41   11.60
   1  -5  -9  647.92   11.55
   1  -5  -8  227.94    5.23
   1   5  -8  232.23    5.76
   1  -5  -8  227.52    5.13
  -1  -5   8  230.88    5.76
  -1   5   8  237.02    5.54
   1  -5  -8  222.20    5.44
   1  -5  -7  119.86    3.32
   1   5  -7  110.76    3.66
  -1  -5   7  118.01    3.76
   1  -5  -7  113.46    3.21
   1  -5  -7  111.87    3.44
  -1   5   7  113.52    3.48
   1  -5  -6   17.57    1.21
   1   5  -6   13.98    1.32
  -1  -5   6   16.53    1.36
   1  -5  -6   16.41    1.25
   1  -5  -6   15.68    1.16
  -1   5   6   14.89    1.28
  -1  -5   5  525.40    9.25
   1   5  -5  508.33    9.24
   1  -5  -5  502.02    8.46
   1  -5  -5  518.90    8.92
   1  -5  -5  499.36    8.37
  -1   5   5  519.64    8.93
  -1  -5   4   44.11    2.04
   1   5  -4   47.40    2.13
   1  -5  -4   45.01    1.87
   1  -5  -4   43.61    1.65
  -1   5   4   45.56    1.93
  -1  -5   3 1700.73   24.53
   1   5  -3 1747.84   24.58
  -1   5   3 1698.71   23.60
   1  -5  -3 1680.06   24.18
   1  -5  -3 1688.92   23.58
  -1   5   3 1734.33   24.23
  -1  -5   2    3.80    0.71
   1  -5  -2    4.14    0.59
   1   5  -2    3.30    0.88
  -1   5   2    3.72    0.63
  -1   5   2    3.70    0.84
   1  -5  -2    2.09    0.65
   1  -5  -1  193.60    3.80
  -1  -5   1  199.70    4.43
   1   5  -1  196.89    4.46
  -1   5   1  198.07    3.82
  -1   5   1  197.31    4.27
  -1  -5   0 1348.60   19.65
   1  -5   0 1332.61   18.80
   1   5   0 1336.85   19.66
  -1   5   0 1353.21   18.83
  -1   5   0 1348.77   19.45
   1  -5   1   16.73    1.03
  -1   5  -1   18.12    1.06
  -1  -5  -1   19.65    1.32
   1   5   1   19.24    0.84
   1   5   1   20.25    1.43
  -1  -5  -2    3.53    0.74
  -1  -5  -2    3.12    0.48
   1   5   2    4.75    0.98
  -1   5  -2    3.73    0.75
   1  -5   2    2.62    0.60
   1  -5   2    2.35    0.62
   1   5   2    2.95    0.45
  -1  -5  -3    5.13    0.55
   1   5   3    3.73    0.87
  -1  -5  -3    6.68    0.97
  -1   5  -3    6.00    0.85
   1  -5   3    5.25    0.81
   1   5   3    4.98    0.56
   1   5   4  141.05    3.80
  -1  -5  -4  145.75    3.84
  -1   5  -4  145.87    3.61
   1  -5   4  134.56    3.59
  -1  -5  -4  139.11    2.97
   1   5   4  141.24    2.99
   1   5   5  825.82   13.31
  -1  -5  -5  823.53   13.32
  -1   5  -5  828.74   13.01
   1  -5   5  797.53   13.13
   1   5   5  817.42   12.14
  -1  -5  -5  800.87   12.12
  -1  -5  -5  816.70   13.23
  -1  -5  -6  108.20    3.44
  -1   5  -6  106.43    3.30
  -1   5  -6  101.68    3.32
   1  -5   6  104.29    3.35
  -1  -5  -6  103.43    2.75
  -1  -5  -6  101.48    3.33
   1   5   6  100.12    2.76
  -1  -5  -7  446.91    8.68
  -1   5  -7  457.56    8.64
   1  -5   7  444.77    8.60
  -1  -5  -7  428.61    8.51
  -1  -5  -7  432.50    7.72
   1   5   7  433.75    7.71
  -1  -5  -8   42.15    2.26
   1  -5   8   42.79    1.81
  -1   5  -8   41.68    2.30
   1  -5   8   41.80    2.25
  -1  -5  -8   41.08    2.22
  -1  -5  -8   41.94    1.90
  -1  -5  -9  600.29   11.14
   1  -5   9  562.51    9.59
  -1  -5  -9  577.80   10.92
  -1   5  -9  582.03   11.02
   1  -5   9  600.50   11.16
  -1  -5  -9  572.59   10.11
  -1  -5 -10   86.88    3.53
   1  -5  10   87.32    2.71
  -1  -5 -10   79.38    3.36
   1  -5  10   89.23    3.60
  -1   5 -10   88.44    3.58
  -1  -5 -10   87.38    3.08
  -1  -5 -11  508.26   10.30
   1  -5  11  472.82    8.43
   1  -5  11  501.19   10.32
  -1   5 -11  479.67   10.13
  -1  -5 -11  479.40    9.99
   1   5  11  482.87   10.09
  -1  -5 -11  468.20    9.34
  -1  -5 -12   46.74    2.76
   1  -5  12   38.40    1.77
  -1   5 -12   44.45    2.75
   1  -5  12   48.03    2.80
  -1  -5 -12   42.12    2.57
   1   5  12   41.28    2.56
  -1  -5 -12   42.00    2.36
  -1  -5 -13  295.48    7.69
  -1   5 -13  310.11    7.99
  -1  -5 -13  296.98    7.21
   1   5  13  306.49    7.84
  -1  -5 -14   13.79    1.75
  -1   5 -14   15.68    1.95
  -1  -5 -14   12.88    1.54
  -1  -5 -15   63.00    3.57
  -1   5 -15   67.24    3.69
  -1  -5 -15   68.40    3.37
  -1  -5 -16  111.00    4.86
  -1   5 -16  115.63    5.04
  -1   5 -17    2.77    1.61
  -1  -5 -17    0.36    1.22
  -1  -5 -18    6.23    1.75
  -1   5 -18    4.59    1.47
  -1  -5 -19  273.17    8.57
  -1   5 -19  267.94    8.78
  -1   5 -20    1.92    1.40
  -1  -5 -20    6.55    1.93
  -1   5 -21    8.30    1.99
  -1  -5 -21   12.28    2.33
  -1  -5 -22    1.37    1.48
  -1   5 -22    1.81    1.65
  -1  -5 -23  111.04    5.93
  -1   5 -23  111.01    6.05
   1  -6 -25   63.40    4.56
   1  -6 -24    8.78    2.05
   1   6 -23   18.52    2.76
   1  -6 -23   16.79    2.38
   1   6 -22    3.68    1.84
   1  -6 -22    2.28    1.49
   1   6 -21   26.42    3.06
   1   6 -21   24.97    2.84
   1  -6 -21   24.27    2.77
   1   6 -20   58.32    4.19
   1  -6 -20   52.76    3.58
   1   6 -20   60.89    4.14
   1   6 -19   28.21    2.87
   1  -6 -19   24.82    2.53
   1   6 -19   26.57    2.83
   1   6 -18   12.57    2.13
   1   6 -18   11.27    1.95
   1  -6 -18    9.16    1.78
   1   6 -17  347.14    9.64
   1  -6 -17  339.26    8.88
   1   6 -16   84.15    4.31
   1  -6 -16   80.05    3.89
   1   6 -15   22.69    2.36
   1  -6 -15   21.05    2.03
   1   6 -14   61.18    3.40
   1  -6 -14   53.39    2.99
   1  -6 -14   60.87    3.17
  -1   6  14   57.88    3.01
  -1   6  14   57.57    3.19
   1   6 -13    2.15    1.22
  -1  -6  13    1.37    0.41
   1  -6 -13   -0.12    0.97
  -1   6  13    0.50    0.78
   1  -6 -13    1.26    0.94
  -1   6  13    0.22    0.92
   1  -6 -12  238.82    6.29
  -1  -6  12  237.28    4.31
   1   6 -12  234.94    6.73
  -1  -6  12  242.24    6.77
   1  -6 -12  231.84    6.07
  -1   6  12  234.68    6.39
  -1   6  12  246.44    6.25
   1  -6 -12  244.16    6.43
   1  -6 -11   46.20    2.48
   1   6 -11   44.91    2.71
  -1  -6  11   48.66    2.75
   1  -6 -11   45.92    2.42
   1  -6 -11   41.15    2.39
  -1   6  11   44.54    2.51
   1  -6 -10    4.13    0.85
   1   6 -10    3.47    1.09
  -1  -6  10    4.80    1.16
   1  -6 -10    4.21    0.94
  -1   6  10    3.98    1.00
   1  -6 -10    2.23    0.90
   1  -6  -9   13.74    1.28
   1   6  -9   14.24    1.52
  -1  -6   9   14.21    1.53
   1  -6  -9   15.02    1.43
   1  -6  -9   16.75    1.46
  -1   6   9   15.34    1.53
   1  -6  -8   30.90    1.78
   1   6  -8   30.92    2.06
   1  -6  -8   30.13    1.71
  -1  -6   8   30.18    2.01
  -1   6   8   30.44    1.86
   1  -6  -8   33.31    1.93
   1  -6  -7  425.57    7.89
   1   6  -7  435.06    8.69
   1  -6  -7  413.14    7.74
  -1  -6   7  424.91    8.71
   1  -6  -7  415.30    8.14
  -1   6   7  413.48    8.15
   1  -6  -6    8.65    1.07
   1  -6  -6    7.96    0.90
   1   6  -6    7.12    1.14
  -1  -6   6    7.02    1.05
  -1  -6   6    8.11    1.15
   1  -6  -6    8.24    0.97
  -1   6   6    7.29    1.04
  -1  -6   5 1674.94   24.74
   1   6  -5 1709.48   24.82
   1  -6  -5 1674.25   24.22
   1  -6  -5 1656.41   23.77
  -1   6   5 1669.68   24.23
   1  -6  -5 1634.40   23.69
   1   6  -4  119.80    3.64
  -1  -6   4  116.70    3.54
   1  -6  -4  115.45    3.29
   1  -6  -4  114.36    3.04
  -1   6   4  113.63    3.02
  -1   6   4  118.12    3.36
   1   6  -3   21.16    1.51
  -1  -6   3   22.88    1.55
   1  -6  -3   19.40    1.16
  -1   6   3   19.48    1.17
   1  -6  -3   21.06    1.34
  -1   6   3   19.55    1.39
   1   6  -2   -0.03    0.76
   1  -6  -2    0.57    0.48
  -1  -6   2    1.72    0.73
  -1   6   2    0.21    0.72
  -1   6   2    2.33    0.65
   1  -6  -1  954.70   14.37
  -1  -6   1  982.61   15.24
  -1   6   1  981.23   14.40
  -1   6   1  988.27   14.97
   1   6  -1  978.79   15.25
   1  -6   0   98.94    2.65
  -1  -6   0  101.25    3.11
   1   6   0  100.28    3.12
  -1   6   0   99.29    2.95
  -1   6   0  100.52    2.71
   1  -6   1   16.48    1.11
  -1   6  -1   15.74    1.15
  -1  -6  -1   16.91    1.29
   1   6   1   17.64    0.91
   1   6   1   18.65    1.43
  -1   6  -2  279.54    5.47
   1  -6   2  276.27    5.43
  -1  -6  -2  284.04    5.96
   1   6   2  287.50    5.98
   1   6   2  278.70    4.84
  -1  -6  -3    6.25    0.96
   1   6   3    6.10    1.03
  -1  -6  -3    6.58    0.66
  -1   6  -3    6.55    0.88
   1  -6   3    8.09    0.95
   1   6   3    6.83    0.66
  -1  -6  -4  126.48    3.68
  -1  -6  -4  119.27    2.77
   1   6   4  114.25    3.56
  -1   6  -4  116.22    3.32
   1  -6   4  118.51    3.47
   1   6   4  116.88    2.77
  -1  -6  -5   57.25    2.47
   1   6   5   60.62    2.60
  -1   6  -5   55.96    2.31
   1  -6   5   54.73    2.37
  -1  -6  -5   51.69    1.82
   1   6   5   52.34    1.83
  -1  -6  -6   15.94    1.42
  -1   6  -6   17.32    1.44
   1  -6   6   15.47    1.38
  -1  -6  -6   15.38    1.06
  -1  -6  -6   17.28    1.51
   1   6   6   16.19    1.10
  -1  -6  -7 1277.74   19.82
  -1   6  -7 1263.21   19.55
   1  -6   7 1250.65   19.68
   1   6   7 1239.80   18.46
  -1  -6  -7 1246.52   19.62
  -1  -6  -7 1252.14   18.47
  -1  -6  -8    0.61    0.73
  -1   6  -8   -0.45    0.86
   1  -6   8    0.50    0.74
  -1   6  -8    1.24    0.92
  -1  -6  -8   -0.07    0.99
  -1  -6  -8    1.74    0.64
   1   6   8    1.35    0.66
  -1  -6  -9    2.78    0.96
  -1   6  -9    2.38    0.99
  -1   6  -9    1.88    1.06
   1  -6   9    1.99    0.89
  -1  -6  -9    1.15    0.64
  -1  -6  -9    0.92    0.95
  -1  -6 -10  134.83    4.54
   1  -6  10  126.16    3.50
   1  -6  10  129.38    4.49
  -1   6 -10  121.97    4.37
  -1  -6 -10  122.68    4.31
  -1  -6 -10  129.37    3.88
  -1  -6 -11  225.64    6.29
   1  -6  11  213.88    4.93
   1  -6  11  231.20    6.42
  -1   6 -11  222.70    6.30
  -1  -6 -11  220.54    6.15
  -1  -6 -11  211.66    5.52
  -1  -6 -12   91.31    3.95
   1  -6  12   87.61    2.91
   1  -6  12   90.23    3.96
  -1  -6 -12   89.70    3.86
  -1   6 -12   92.88    4.01
  -1  -6 -12   95.76    3.56
   1  -6  13   72.18    2.58
  -1  -6 -13   71.97    3.53
  -1   6 -13   71.91    3.71
  -1  -6 -13   74.79    3.25
  -1  -6 -14   63.77    3.41
  -1   6 -14   67.09    3.67
  -1  -6 -14   64.39    3.13
  -1  -6 -15   99.52    4.49
  -1   6 -15  109.20    4.81
  -1  -6 -15   99.73    4.11
  -1   6 -16  259.83    7.93
  -1  -6 -16  247.27    7.63
  -1  -6 -17  161.13    6.15
  -1   6 -17  168.42    6.40
  -1  -6 -18   14.59    2.19
  -1   6 -18   17.94    2.34
  -1   6 -19   38.14    3.33
  -1  -6 -19   34.67    3.12
  -1  -6 -20   28.21    2.90
  -1   6 -20   27.30    3.09
  -1  -6 -21  177.99    7.17
  -1   6 -21  170.16    7.23
  -1  -6 -22   56.63    4.19
  -1   6 -22   46.91    4.09
  -1  -6 -23    3.80    1.67
   1  -7 -25    2.55    1.68
   1  -7 -24   53.38    4.08
   1   7 -23   13.45    2.58
   1  -7 -23   11.53    2.16
   1   7 -22    7.98    2.11
   1  -7 -22    8.26    1.93
   1   7 -21    4.78    2.06
   1  -7 -21    0.23    1.46
   1   7 -20   48.37    3.81
   1  -7 -20   45.69    3.44
   1   7 -19   21.14    2.63
   1  -7 -19   16.23    2.18
   1   7 -18   67.49    4.16
   1  -7 -18   67.28    3.80
   1   7 -17  115.26    5.34
   1  -7 -17  120.82    4.96
   1   7 -16   10.65    1.83
   1  -7 -16   11.25    1.72
   1   7 -15  163.17    5.98
   1  -7 -15  162.29    5.47
   1  -7 -14   -0.07    0.86
  -1  -7  14    1.00    0.39
   1   7 -14    3.56    1.29
   1  -7 -14    2.13    1.12
  -1   7  14    1.44    1.00
   1  -7 -13  343.57    8.23
  -1  -7  13  342.65    5.94
   1   7 -13  351.44    8.91
   1  -7 -13  327.23    7.91
   1  -7 -13  348.33    8.36
  -1   7  13  327.99    8.21
   1  -7 -12  192.78    5.58
   1   7 -12  188.97    6.03
   1  -7 -12  187.08    5.41
   1  -7 -12  192.29    5.67
  -1   7  12  183.88    5.58
   1  -7 -11   66.75    3.04
   1   7 -11   67.02    3.38
   1  -7 -11   65.83    2.93
  -1  -7  11   67.41    3.40
   1  -7 -11   67.95    3.10
  -1   7  11   61.32    3.01
   1  -7 -10    8.57    1.15
   1   7 -10    6.60    1.31
   1  -7 -10    7.02    1.16
  -1  -7  10    7.38    1.24
   1  -7 -10    8.21    1.14
  -1   7  10    6.12    1.22
   1  -7  -9  402.41    8.27
   1   7  -9  419.23    9.05
  -1  -7   9  406.44    9.00
   1  -7  -9  400.71    8.12
   1  -7  -9  408.08    8.43
  -1   7   9  403.16    8.48
   1  -7  -8  387.36    7.87
   1   7  -8  403.62    8.76
   1  -7  -8  389.88    7.74
  -1  -7   8  400.55    8.68
   1  -7  -8  402.05    8.15
  -1   7   8  390.47    8.12
   1  -7  -7  479.99    8.93
   1   7  -7  477.22    9.71
  -1  -7   7  501.10    9.80
   1  -7  -7  471.26    8.76
   1  -7  -7  484.51    9.16
  -1   7   7  478.71    9.19
   1   7  -6  271.36    6.41
  -1  -7   6  256.38    6.25
   1  -7  -6  260.50    5.66
   1  -7  -6  259.24    5.86
   1  -7  -6  258.97    5.57
  -1   7   6  259.51    5.90
  -1  -7   5  426.85    8.52
   1   7  -5  428.82    8.56
  -1   7   5  422.72    7.74
   1  -7  -5  422.40    8.05
   1  -7  -5  408.83    7.72
  -1   7   5  418.32    8.07
   1   7  -4 1087.71   17.08
  -1  -7   4 1053.20   16.99
   1  -7  -4 1055.30   16.08
  -1   7   4 1084.68   16.07
   1  -7  -4 1047.79   16.46
  -1   7   4 1037.23   16.42
   1   7  -3  528.83    9.61
  -1  -7   3  512.32    9.52
   1  -7  -3  500.24    8.67
  -1   7   3  506.13    8.68
   1  -7  -3  497.01    9.02
  -1   7   3  506.88    9.10
  -1  -7   2  634.57   11.14
   1  -7  -2  622.22   10.31
  -1   7   2  649.70   10.36
   1   7  -2  644.53   11.22
  -1   7   2  631.30   10.74
  -1  -7   1  477.03    8.87
   1  -7  -1  455.43    8.06
  -1   7   1  465.75    8.11
  -1   7   1  489.51    8.66
   1   7  -1  483.75    8.94
   1  -7   0  443.55    7.92
  -1  -7   0  453.32    8.66
  -1   7   0  458.15    8.41
  -1   7   0  458.76    7.98
   1   7   0  471.87    8.72
   1   7   0  463.40    7.54
   1  -7   1  385.12    7.15
  -1  -7  -1  399.99    7.77
   1   7   1  388.71    6.60
  -1   7  -1  400.56    7.22
   1   7   1  404.07    7.81
  -1  -7  -2    9.39    1.14
   1  -7   2    8.16    0.92
  -1   7  -2    9.68    1.04
   1   7   2    7.25    0.72
   1   7   2    7.50    1.20
   1   7   3   97.97    3.33
  -1  -7  -3  105.87    3.39
   1  -7   3   95.25    3.00
  -1   7  -3  100.14    3.09
   1  -7   3   98.24    3.14
   1   7   3   95.94    2.52
   1   7   4  638.71   11.38
  -1  -7  -4  633.29   11.36
  -1  -7  -4  636.89    9.99
  -1   7  -4  650.67   11.00
   1  -7   4  644.52   11.15
   1   7   4  635.09   10.02
   1   7   5  679.34   12.13
  -1  -7  -5  687.70   12.19
  -1  -7  -5  682.63   10.77
  -1   7  -5  694.38   11.86
   1  -7   5  693.97   12.00
   1   7   5  690.67   10.82
   1   7   6   40.89    2.26
  -1  -7  -6   41.97    2.29
  -1   7  -6   44.34    2.24
   1  -7   6   39.29    2.18
  -1  -7  -6   39.14    2.22
   1   7   6   35.81    1.67
  -1  -7  -6   40.20    1.72
  -1  -7  -7  195.14    5.30
  -1   7  -7  181.91    5.01
   1  -7   7  188.33    5.21
  -1  -7  -7  190.36    5.14
   1   7   7  179.80    4.30
  -1  -7  -7  176.48    4.23
  -1  -7  -8  666.24   12.27
  -1   7  -8  676.18   12.09
   1  -7   8  651.56   12.19
   1   7   8  632.95   10.94
  -1  -7  -8  644.67   12.03
  -1  -7  -8  644.89   10.94
  -1  -7  -9  194.85    5.58
  -1   7  -9  200.49    5.59
  -1  -7  -9  183.88    5.43
   1  -7   9  190.55    5.62
   1   7   9  191.34    4.78
  -1  -7  -9  186.98    4.72
  -1  -7 -10   64.66    3.23
  -1   7 -10   63.80    3.13
   1  -7  10   68.76    3.42
  -1  -7 -10   64.61    3.15
  -1  -7 -10   66.62    2.72
  -1  -7 -11   56.80    3.06
  -1   7 -11   59.67    3.13
   1  -7  11   54.14    2.31
  -1   7 -11   56.00    3.14
   1  -7  11   59.71    3.21
  -1  -7 -11   53.46    2.99
  -1  -7 -11   57.24    2.61
   1  -7  12    1.62    0.68
  -1   7 -12    2.81    1.27
  -1   7 -12    2.68    1.29
  -1  -7 -12    2.38    1.12
  -1  -7 -12    3.36    0.97
  -1   7 -13  446.82   10.38
   1  -7  13  438.50    8.37
  -1  -7 -13  433.53   10.10
  -1   7 -13  451.29   10.42
  -1  -7 -13  443.54    9.41
  -1   7 -14    0.60    1.15
   1  -7  14    1.99    0.68
  -1   7 -14    3.02    1.45
  -1  -7 -14    3.12    1.30
  -1  -7 -14    2.50    1.03
  -1   7 -15    2.10    1.42
  -1   7 -15   -1.82    1.28
  -1  -7 -15    0.11    1.16
  -1  -7 -15    1.08    0.88
  -1   7 -16   15.86    2.08
  -1   7 -16   14.41    2.13
  -1  -7 -16   16.29    2.15
  -1   7 -17    3.41    1.57
  -1  -7 -17    3.56    1.61
  -1   7 -17    3.64    1.50
  -1   7 -18  184.37    7.02
  -1   7 -18  187.95    7.10
  -1  -7 -18  179.68    6.75
  -1   7 -19   41.36    3.40
  -1   7 -19   38.34    3.40
  -1  -7 -19   37.28    3.22
  -1   7 -20   11.37    2.28
  -1  -7 -20   11.44    2.09
  -1   7 -20   14.63    2.52
  -1   7 -21    3.59    1.86
  -1  -7 -21    1.84    1.68
  -1   7 -21   -0.73    1.57
  -1   7 -22   13.32    2.47
  -1   7 -22   10.74    2.37
  -1  -7 -22   12.35    2.44
  -1  -7 -23   10.06    2.21
   1  -8 -24   16.90    2.65
   1  -8 -23    1.50    1.67
   1   8 -22   35.42    3.71
   1  -8 -22   35.85    3.31
   1   8 -21   83.44    5.19
   1  -8 -21   81.90    4.65
   1   8 -20    8.43    1.96
   1  -8 -20    9.56    1.87
   1   8 -19   35.89    3.33
   1  -8 -19   29.62    2.71
   1   8 -18   44.90    3.49
   1  -8 -18   37.63    3.18
   1   8 -17   80.57    4.54
   1  -8 -17   71.72    3.86
   1   8 -16  474.89   11.64
   1  -8 -16  445.29   10.50
   1   8 -15    2.66    1.44
  -1  -8  15    2.45    0.54
   1  -8 -15    3.05    1.23
  -1   8  15    2.44    1.17
   1   8 -14    1.91    1.30
  -1  -8  14    0.32    0.43
   1  -8 -14    0.17    0.98
  -1   8  14   -1.29    1.15
   1  -8 -13  508.72   10.99
   1   8 -13  520.08   11.68
   1  -8 -13  506.02   10.64
  -1   8  13  510.84   10.90
   1  -8 -13  521.44   10.98
   1  -8 -12  534.18   10.98
   1   8 -12  547.37   11.81
   1  -8 -12  527.54   10.73
   1  -8 -12  546.47   11.06
  -1   8  12  513.82   10.94
   1  -8 -11   61.34    3.00
   1   8 -11   66.50    3.50
   1  -8 -11   62.83    2.98
  -1   8  11   61.52    3.05
   1  -8 -11   63.68    3.04
   1  -8 -10   75.07    3.18
   1   8 -10   77.51    3.68
  -1  -8  10   75.54    3.60
   1  -8 -10   71.67    3.08
  -1   8  10   72.19    3.21
   1  -8 -10   75.65    3.27
   1  -8  -9  366.46    7.89
   1   8  -9  371.58    8.69
   1  -8  -9  362.23    7.74
  -1  -8   9  378.76    8.73
   1  -8  -9  368.45    8.05
  -1   8   9  364.24    8.07
   1  -8  -8  428.46    8.54
   1   8  -8  435.21    9.44
   1  -8  -8  409.92    8.33
  -1  -8   8  439.55    9.48
   1  -8  -8  421.33    8.65
  -1   8   8  415.22    8.67
   1  -8  -7  332.78    7.23
   1  -8  -7  332.05    7.08
   1   8  -7  334.88    7.83
  -1  -8   7  332.37    7.77
  -1  -8   7  341.15    7.89
   1  -8  -7  341.06    7.00
  -1   8   7  323.97    7.23
  -1  -8   6  106.09    3.82
   1   8  -6  105.47    3.84
   1  -8  -6  101.20    3.43
   1  -8  -6  105.35    3.36
  -1   8   6  103.80    3.49
   1  -8  -6   99.72    3.26
  -1  -8   5    2.08    0.81
   1   8  -5    0.29    0.89
  -1   8   5   -0.62    0.80
   1  -8  -5    0.68    0.59
   1  -8  -5    0.71    0.68
  -1   8   5   -0.28    0.82
   1   8  -4  229.72    5.80
  -1  -8   4  221.42    5.70
   1  -8  -4  222.77    5.11
   1  -8  -4  225.83    5.35
  -1   8   4  224.82    5.11
  -1   8   4  224.24    5.36
   1   8  -3  504.91    9.54
  -1  -8   3  464.10    9.30
  -1   8   3  481.53    8.58
   1  -8  -3  463.22    8.49
  -1   8   3  467.99    8.85
   1  -8  -2  850.14   13.67
  -1  -8   2  873.48   14.59
  -1   8   2  869.07   14.11
   1   8  -2  872.63   14.59
  -1   8   2  870.96   13.71
  -1  -8   1  133.81    4.07
   1  -8  -1  125.45    3.51
  -1   8   1  131.03    3.57
   1   8  -1  141.91    4.20
  -1   8   1  131.49    3.84
  -1  -8   0  260.98    6.15
   1  -8   0  259.88    5.58
   1   8   0  266.24    5.21
   1   8   0  273.81    6.23
  -1   8   0  261.79    5.94
  -1   8   0  265.26    5.64
  -1  -8  -1   48.61    2.40
   1  -8   1   52.18    2.15
  -1   8  -1   49.45    2.13
   1   8   1   51.52    1.85
   1   8   1   52.38    2.45
   1  -8   2  462.05    8.71
  -1   8  -2  492.73    8.84
  -1  -8  -2  479.53    9.31
   1   8   2  484.57    9.33
   1   8   2  481.22    8.01
  -1   8  -3   45.76    2.15
   1  -8   3   43.24    2.08
   1   8   3   42.00    2.27
  -1  -8  -3   40.66    2.22
   1   8   3   41.17    1.69
  -1  -8  -4  465.07    9.09
   1   8   4  436.76    8.92
  -1  -8  -4  443.88    7.65
  -1   8  -4  474.89    8.74
   1  -8   4  439.87    8.75
   1   8   4  437.73    7.67
  -1  -8  -5    9.64    0.93
   1   8   5    8.74    1.23
  -1  -8  -5    9.16    1.28
  -1   8  -5   11.63    1.30
   1  -8   5   10.18    1.22
   1   8   5   10.86    0.98
   1   8   6   77.43    3.28
  -1  -8  -6   79.05    3.27
  -1  -8  -6   76.92    2.51
  -1   8  -6   77.26    3.14
   1  -8   6   73.24    3.14
   1   8   6   74.41    2.51
  -1  -8  -7  227.48    6.04
  -1   8  -7  227.83    5.85
   1  -8   7  226.78    5.98
  -1  -8  -7  220.84    5.90
  -1  -8  -7  215.71    4.91
   1   8   7  216.29    4.96
  -1  -8  -8  348.41    8.09
  -1   8  -8  358.13    7.96
   1  -8   8  352.50    8.10
  -1  -8  -8  347.77    6.94
   1   8   8  337.94    6.90
  -1  -8  -8  334.08    7.80
  -1  -8  -9  391.32    8.87
  -1   8  -9  392.00    8.72
  -1  -8  -9  380.44    8.63
   1  -8   9  392.30    8.89
  -1  -8  -9  380.00    7.64
   1   8   9  375.25    7.64
  -1  -8 -10    2.56    0.92
  -1   8 -10    4.22    1.19
   1  -8  10    1.04    0.94
  -1  -8 -10    0.60    0.63
  -1  -8 -10    3.86    1.32
   1   8  10    1.73    0.71
  -1   8 -11   54.68    3.12
   1  -8  11   55.05    2.44
  -1  -8 -11   54.52    3.08
  -1  -8 -11   58.69    2.69
  -1   8 -12  359.61    8.92
   1  -8  12  351.96    7.34
  -1  -8 -12  349.39    8.70
  -1  -8 -12  357.61    7.92
   1  -8  13  125.03    3.80
  -1   8 -13  119.51    4.90
  -1  -8 -13  116.99    4.81
  -1  -8 -13  125.00    4.34
  -1   8 -14    1.80    1.14
   1  -8  14    2.11    0.81
  -1  -8 -14    0.08    1.18
  -1  -8 -14    2.87    0.97
   1  -8  15  105.69    3.45
  -1   8 -15   98.51    4.74
  -1  -8 -15  101.11    4.68
  -1  -8 -15  105.13    4.24
  -1   8 -16  362.72    9.93
  -1  -8 -16  361.89    9.70
  -1   8 -17   57.03    3.86
  -1  -8 -17   65.58    3.96
  -1   8 -18    9.27    2.04
  -1  -8 -18    7.93    1.81
  -1   8 -19    3.12    1.65
  -1  -8 -19   -0.86    1.48
  -1   8 -20   56.75    4.20
  -1  -8 -20   53.94    3.93
  -1   8 -21   30.74    3.30
  -1  -8 -21   33.97    3.44
  -1   8 -22    8.32    2.20
  -1  -8 -22   12.47    2.38
   1  -9 -24   75.53    4.86
   1  -9 -23    0.07    1.51
   1  -9 -22    4.26    1.63
   1   9 -21    1.31    1.42
   1  -9 -21   -0.38    1.38
   1   9 -20  200.16    7.99
   1  -9 -20  183.97    7.00
   1   9 -19    4.91    1.74
   1  -9 -19    4.82    1.61
   1   9 -18  143.81    6.34
   1  -9 -18  139.86    5.72
   1   9 -17   85.63    4.77
   1  -9 -17   81.46    4.21
  -1  -9  16   16.19    1.06
   1   9 -16   16.20    2.23
   1  -9 -16   15.99    2.00
  -1   9  16   17.66    2.05
   1   9 -15   23.34    2.40
  -1  -9  15   24.20    1.36
   1  -9 -15   24.66    2.31
  -1   9  15   22.99    2.24
   1   9 -14  281.83    8.40
  -1  -9  14  283.20    5.69
   1  -9 -14  286.66    7.58
  -1   9  14  273.04    7.66
   1   9 -13    9.84    1.81
   1  -9 -13    8.31    1.45
  -1   9  13    8.46    1.59
   1  -9 -12  183.92    5.64
   1   9 -12  167.73    6.04
   1  -9 -12  178.13    5.44
  -1   9  12  173.11    5.59
   1  -9 -12  179.73    5.59
   1  -9 -11  352.57    8.32
   1   9 -11  360.57    9.13
   1  -9 -11  359.21    8.21
   1  -9 -11  372.95    8.51
  -1   9  11  348.27    8.30
   1  -9 -10  116.12    4.18
   1   9 -10  120.95    4.74
   1  -9 -10  117.39    4.09
  -1   9  10  123.96    4.36
   1  -9 -10  115.75    4.21
   1  -9  -9    3.95    0.96
   1  -9  -9    3.93    1.03
   1   9  -9    6.34    1.35
  -1  -9   9    6.79    1.35
   1  -9  -9    7.18    1.15
  -1   9   9    5.37    1.16
   1  -9  -8   64.26    2.87
   1  -9  -8   57.38    2.70
   1   9  -8   62.11    3.19
  -1  -9   8   64.36    3.29
   1  -9  -8   53.96    2.61
  -1   9   8   53.98    2.74
   1  -9  -7   45.51    2.30
   1  -9  -7   42.05    2.29
  -1  -9   7   45.09    2.59
   1   9  -7   46.69    2.67
  -1  -9   7   44.99    2.69
   1  -9  -7   44.39    2.26
  -1   9   7   42.41    2.32
   1   9  -6  187.47    5.62
  -1  -9   6  197.87    5.72
   1  -9  -6  202.17    5.29
  -1   9   6  196.53    5.08
   1  -9  -6  196.79    5.08
  -1   9   6  197.64    5.25
  -1  -9   5   53.99    2.74
   1   9  -5   52.37    2.79
   1  -9  -5   52.79    2.39
   1  -9  -5   50.28    2.40
  -1   9   5   52.28    2.36
  -1   9   5   50.19    2.47
  -1  -9   4  358.77    7.98
   1   9  -4  352.34    8.01
  -1   9   4  360.24    7.24
   1  -9  -4  347.43    7.18
  -1   9   4  345.11    7.44
   1   9  -3   14.47    1.53
   1  -9  -3   15.48    1.31
  -1  -9   3   12.51    1.43
  -1   9   3   13.27    1.35
  -1   9   3   13.42    1.22
   1  -9  -2    4.41    0.86
   1   9  -2    4.73    1.10
  -1  -9   2    3.92    0.90
  -1   9   2    4.04    0.99
  -1   9   2    4.30    0.85
  -1  -9   1   39.78    2.24
   1  -9  -1   36.76    1.95
  -1   9   1   39.53    1.97
   1   9  -1   42.02    2.35
  -1   9   1   41.44    2.16
  -1  -9   0  415.80    8.63
   1  -9   0  398.87    7.91
  -1   9   0  418.70    8.04
   1   9   0  406.09    8.58
   1   9   0  418.72    7.50
  -1   9   0  418.92    8.32
  -1  -9  -1    4.19    1.00
   1  -9   1    2.42    0.68
  -1   9  -1    2.23    0.76
   1   9   1    1.38    0.85
   1   9   1    2.96    0.64
  -1   9  -1    3.97    1.06
  -1   9  -2    1.46    0.69
   1  -9   2    0.33    0.59
  -1  -9  -2    1.62    0.84
   1   9   2    1.38    0.95
   1   9   2    1.21    0.51
  -1   9  -3  345.86    7.29
   1  -9   3  333.18    7.18
  -1  -9  -3  350.38    7.74
   1   9   3  347.25    7.70
   1   9   3  338.28    6.40
  -1  -9  -4  545.45   10.57
   1   9   4  529.05   10.43
   1  -9   4  519.87    9.99
  -1   9  -4  545.08   10.10
   1  -9   4  537.70   10.26
   1   9   4  520.69    9.02
  -1  -9  -5  106.69    3.87
   1   9   5  103.22    3.83
  -1  -9  -5   97.35    2.91
  -1   9  -5  102.62    3.63
   1  -9   5   93.66    3.65
   1   9   5  102.09    2.99
  -1  -9  -6  826.70   13.47
   1   9   6  850.86   15.10
  -1  -9  -6  872.37   15.22
  -1   9  -6  875.47   14.89
   1  -9   6  859.34   15.07
   1   9   6  856.50   13.57
  -1  -9  -7  331.87    6.75
  -1  -9  -7  360.71    8.23
   1   9   7  327.62    7.94
  -1   9  -7  355.71    7.97
   1  -9   7  354.64    8.14
  -1  -9  -7  337.25    7.94
   1   9   7  337.71    6.83
  -1  -9  -8   23.93    2.00
  -1   9  -8   23.25    1.99
   1  -9   8   22.63    1.99
  -1  -9  -8   19.95    1.45
  -1  -9  -8   22.40    1.98
   1   9   8   19.22    1.42
  -1  -9  -9   49.88    2.85
  -1   9  -9   49.27    2.87
   1  -9   9   53.09    2.98
  -1  -9  -9   46.33    2.80
  -1  -9  -9   46.67    2.21
   1   9   9   45.13    2.22
  -1   9 -10  491.16   10.52
  -1  -9 -10  460.01   10.30
  -1  -9 -10  474.30    9.23
   1   9  10  467.65    9.21
  -1   9 -11  107.94    4.50
  -1  -9 -11  105.64    4.42
  -1  -9 -11  107.24    3.74
   1   9  11  106.22    3.78
   1  -9  12   25.89    1.77
  -1   9 -12   26.43    2.39
  -1  -9 -12   27.15    2.35
  -1  -9 -12   23.96    1.85
   1  -9  13   20.44    1.62
  -1   9 -13   21.85    2.25
  -1  -9 -13   22.76    2.26
  -1  -9 -13   21.19    1.83
  -1   9 -14  150.12    5.83
   1  -9  14  152.32    4.44
  -1  -9 -14  143.69    5.67
  -1  -9 -14  146.34    4.98
   1  -9  15   15.10    1.42
  -1   9 -15   12.78    1.93
  -1  -9 -15   12.34    1.96
   1  -9  16   10.07    1.14
  -1   9 -16   10.49    2.01
  -1  -9 -16    8.77    1.89
  -1   9 -17   66.32    4.14
  -1  -9 -17   59.89    3.89
  -1   9 -18  270.00    9.05
  -1  -9 -18  288.69    8.98
  -1   9 -19    4.51    1.70
  -1  -9 -19    2.95    1.45
  -1   9 -20  135.48    6.47
  -1  -9 -20  130.95    6.22
  -1   9 -21   17.31    2.85
  -1  -9 -21   15.94    2.44
  -1  -9 -22   29.76    3.26
   1 -10 -23    9.21    2.14
   1 -10 -22    7.37    1.90
   1  10 -21   14.85    2.55
   1 -10 -21   19.42    2.59
   1  10 -20   11.73    2.33
   1 -10 -20   12.56    2.14
   1  10 -19   14.35    2.38
   1 -10 -19   13.06    2.11
   1  10 -18   20.83    2.74
   1 -10 -18   22.17    2.44
   1  10 -17   17.81    2.47
   1 -10 -17   16.14    2.18
  -1 -10  16  151.77    3.81
   1  10 -16  153.22    6.37
   1 -10 -16  148.70    5.64
  -1  10  16  149.24    5.80
  -1 -10  15   32.24    1.66
   1  10 -15   34.49    2.98
   1 -10 -15   29.04    2.52
  -1  10  15   29.12    2.53
   1  10 -14   73.43    4.21
   1 -10 -14   65.63    3.51
  -1  10  14   66.42    3.62
   1  10 -13   27.11    2.47
   1 -10 -13   28.15    2.33
  -1  10  13   28.18    2.38
   1 -10 -12    5.54    1.34
   1 -10 -12    4.22    1.25
   1  10 -12    1.93    1.19
   1 -10 -12    5.03    1.19
  -1  10  12    3.95    1.22
   1  10 -11    1.00    1.09
   1 -10 -11    0.77    0.88
   1 -10 -11    2.24    0.99
   1 -10 -11   -0.28    0.99
  -1  10  11    0.96    1.00
   1 -10 -10  182.62    5.50
   1 -10 -10  178.96    5.46
   1  10 -10  186.43    6.18
   1 -10 -10  170.60    5.31
  -1  10  10  185.81    5.63
   1  10  -9    2.24    1.03
   1 -10  -9    0.88    0.80
   1 -10  -9    1.71    0.96
   1 -10  -9    1.41    0.87
  -1  10   9    1.91    0.93
   1  10  -8   83.10    3.82
   1 -10  -8   79.79    3.37
   1 -10  -8   81.11    3.36
   1 -10  -8   74.58    3.17
  -1  10   8   79.26    3.39
   1 -10  -7   19.64    1.66
   1 -10  -7   15.39    1.44
   1  10  -7   17.00    1.80
  -1 -10   7   14.96    1.64
  -1 -10   7   16.87    1.86
  -1  10   7   14.61    1.44
   1 -10  -7   12.55    1.36
  -1 -10   6  421.41    9.38
   1  10  -6  411.94    9.36
  -1  10   6  411.24    8.55
   1 -10  -6  415.95    8.58
   1 -10  -6  417.80    8.72
  -1  10   6  411.34    8.70
   1 -10  -5   11.02    1.21
  -1 -10   5   13.32    1.58
   1  10  -5   11.14    1.48
  -1  10   5   10.94    1.30
  -1  10   5   13.68    1.46
  -1 -10   4  242.15    6.51
   1  10  -4  251.18    6.59
   1 -10  -4  244.86    5.87
  -1  10   4  246.01    5.85
  -1  10   4  241.06    6.04
  -1 -10   3  146.22    4.78
   1 -10  -3  143.78    4.22
   1  10  -3  145.68    4.78
  -1  10   3  147.04    4.24
  -1  10   3  140.05    4.33
   1 -10  -2  885.02   14.93
  -1 -10   2  909.60   15.87
  -1  10   2  921.44   15.33
   1  10  -2  918.39   15.92
  -1  10   2  929.75   15.08
  -1 -10   1    1.28    0.78
   1 -10  -1   -0.24    0.66
  -1  10   1    0.89    0.72
   1  10  -1   -0.53    0.89
   1  10  -1    0.56    0.57
  -1  10   1   -0.11    0.81
  -1 -10   0   94.98    3.74
   1 -10   0   94.88    3.33
   1  10   0   99.65    3.07
  -1  10   0   92.61    3.48
  -1  10   0   99.83    3.40
   1  10   0   93.44    3.69
   1 -10   1   27.00    1.75
  -1 -10  -1   31.30    2.12
   1  10   1   31.31    1.63
   1  10   1   30.08    2.13
  -1  10  -1   31.90    2.07
  -1  10  -1   33.11    1.97
   1 -10   2  548.73   10.52
  -1 -10  -2  595.95   11.31
   1  10   2  572.98   11.21
  -1  10  -2  578.13   10.65
   1  10   2  567.58    9.75
   1 -10   3  570.28   10.82
  -1  10  -3  596.25   10.97
  -1 -10  -3  587.66   11.39
   1  10   3  581.31   11.37
   1  10   3  571.96    9.85
  -1 -10  -4  302.76    7.31
   1  10   4  298.16    7.26
   1 -10   4  287.94    6.82
  -1  10  -4  294.44    6.91
   1 -10   4  280.86    6.98
   1  10   4  282.34    5.92
  -1 -10  -5  122.25    4.38
   1  10   5  120.96    4.36
  -1  10  -5  120.62    4.19
   1 -10   5  126.64    4.37
   1  10   5  116.10    3.42
  -1 -10  -6  842.98   15.11
   1  10   6  810.27   14.88
  -1 -10  -6  787.55   13.17
  -1  10  -6  852.54   14.73
   1 -10   6  818.75   14.87
   1  10   6  820.72   13.33
  -1 -10  -7   11.93    1.56
  -1 -10  -7   14.65    1.26
   1  10   7   12.04    1.56
  -1  10  -7   14.95    1.60
   1 -10   7   12.58    1.58
   1  10   7   12.46    1.17
  -1 -10  -8   81.92    3.70
  -1 -10  -8   75.79    2.85
  -1  10  -8   72.16    3.45
   1 -10   8   76.51    3.62
  -1 -10  -8   71.31    3.47
   1  10   8   71.56    2.80
  -1  10  -9   19.70    1.96
  -1 -10  -9   21.40    1.58
   1  10   9   21.95    1.62
  -1 -10  -9   21.28    2.04
  -1  10 -10  278.64    7.52
  -1 -10 -10  253.18    7.26
  -1 -10 -10  268.63    6.37
   1  10  10  267.62    6.40
  -1  10 -11   48.65    3.10
  -1 -10 -11   49.10    3.06
  -1 -10 -11   46.37    2.47
   1  10  11   44.75    2.46
  -1  10 -12   57.25    3.44
  -1 -10 -12   61.37    3.51
  -1 -10 -12   66.12    3.04
  -1 -10 -13    6.18    1.13
  -1  10 -13    4.47    1.35
   1 -10  13    3.53    0.94
  -1 -10 -13    4.39    1.45
   1 -10  14    9.88    1.30
  -1  10 -14    9.71    1.77
  -1 -10 -14   11.45    1.93
  -1 -10 -14    8.97    1.40
   1 -10  15   24.31    1.86
  -1  10 -15   21.12    2.41
  -1 -10 -15   25.68    2.65
   1 -10  16   38.93    2.27
  -1  10 -16   39.39    3.28
  -1 -10 -16   35.52    2.98
   1 -10  17    5.45    0.97
  -1  10 -17    6.85    1.80
  -1 -10 -17    8.85    2.01
  -1  10 -18   -0.25    1.62
  -1 -10 -18    1.42    1.49
  -1  10 -19    2.48    1.43
  -1 -10 -19    5.23    1.70
  -1  10 -20   51.65    4.15
  -1 -10 -20   52.18    4.08
  -1  10 -21    3.06    1.86
  -1 -10 -21    2.09    1.70
   1 -11 -23    8.80    2.10
   1 -11 -22   48.48    3.80
   1 -11 -21    9.61    2.15
   1  11 -20   -1.52    1.47
   1 -11 -20   -2.56    1.50
   1  11 -19   50.12    4.08
   1 -11 -19   47.49    3.55
   1  11 -18  235.16    8.56
   1 -11 -18  197.85    7.12
   1  11 -17    0.58    1.45
   1 -11 -17    0.59    1.18
   1  11 -16    3.64    1.67
   1 -11 -16    3.67    1.30
  -1  11  16    6.37    1.38
   1  11 -15   14.66    2.24
   1 -11 -15   14.34    1.98
  -1  11  15   11.95    1.85
   1  11 -14  255.75    8.19
   1 -11 -14  235.11    7.09
  -1  11  14  225.75    7.06
   1  11 -13   23.41    2.60
   1 -11 -13   16.90    1.89
  -1  11  13   16.10    1.91
   1  11 -12   -0.73    1.16
   1 -11 -12    0.62    1.02
  -1  11  12    1.69    1.06
   1  11 -11    3.27    1.21
   1 -11 -11    2.97    1.13
   1 -11 -11    2.93    1.07
   1 -11 -11    5.30    1.27
  -1  11  11    2.44    1.05
   1 -11 -10  181.36    5.62
   1 -11 -10  186.74    5.73
   1  11 -10  178.66    6.34
   1 -11 -10  185.09    5.60
  -1  11  10  172.35    5.59
   1  11  -9   33.70    2.68
   1 -11  -9   34.92    2.30
   1 -11  -9   32.80    2.32
   1 -11  -9   29.89    2.16
  -1  11   9   35.96    2.43
   1  11  -8    3.83    1.18
   1 -11  -8    3.15    0.90
   1 -11  -8    5.34    1.14
   1 -11  -8    4.62    1.19
  -1  11   8    5.16    1.24
   1  11  -7   12.02    1.73
   1 -11  -7    9.61    1.31
   1 -11  -7    8.27    1.27
   1 -11  -7   11.69    1.45
  -1  11   7    9.93    1.36
   1  11  -6  353.34    8.79
  -1 -11   6  357.56    8.76
   1 -11  -6  371.61    8.11
  -1  11   6  355.83    7.99
  -1  11   6  356.25    8.11
   1  11  -5  409.39    9.44
  -1 -11   5  412.97    9.50
   1 -11  -5  378.67    8.48
  -1  11   5  409.75    8.65
  -1  11   5  465.48    9.31
  -1 -11   4  302.11    7.64
   1 -11  -4  288.34    6.87
  -1  11   4  307.75    6.98
   1  11  -4  291.38    7.61
  -1  11   4  291.62    7.02
   1 -11  -3   27.44    1.88
  -1 -11   3   31.05    2.24
  -1  11   3   28.63    1.92
   1  11  -3   28.91    2.21
  -1  11   3   28.64    2.00
  -1 -11   2    7.74    1.25
   1 -11  -2    8.76    1.17
  -1  11   2    8.87    1.36
   1  11  -2   10.15    1.53
  -1  11   2    8.02    1.15
   1 -11  -1    0.74    0.67
  -1 -11   1    0.97    0.83
  -1  11   1   -0.48    0.86
  -1  11   1    1.21    0.79
   1  11  -1    1.83    0.78
   1  11  -1   -0.46    1.02
  -1 -11   0  423.69    9.42
   1 -11   0  418.24    8.76
   1  11   0  432.21    9.50
  -1  11   0  435.43    9.14
  -1  11   0  425.99    8.80
   1  11   0  443.16    8.29
   1 -11   1   74.77    3.13
  -1 -11  -1   79.18    3.54
  -1  11  -1   74.77    3.29
   1  11   1   76.73    3.54
   1  11   1   74.55    2.72
  -1  11  -1   83.63    3.28
   1 -11   2    5.28    0.99
  -1  11  -2    4.44    1.00
  -1 -11  -2    5.82    1.14
   1  11   2    5.86    1.24
  -1  11  -2    7.13    1.21
   1  11   2    6.71    0.91
  -1  11  -3    6.83    1.16
   1 -11   3    5.45    1.06
  -1 -11  -3    8.59    1.39
   1  11   3    6.63    1.32
   1  11   3    6.21    0.87
   1  11   4   13.09    1.58
  -1  11  -4   14.80    1.56
   1 -11   4   14.78    1.53
  -1 -11  -4   12.35    1.51
   1 -11   4   12.13    1.48
   1  11   4   12.44    1.19
   1  11   5  223.10    6.35
  -1 -11  -5  219.91    6.32
  -1  11  -5  217.70    6.03
   1 -11   5  210.25    6.12
   1  11   5  205.98    5.06
   1  11   6  322.21    8.17
  -1 -11  -6  342.69    8.33
  -1  11  -6  327.12    7.93
   1 -11   6  331.46    8.16
   1  11   6  323.16    6.86
  -1 -11  -7   11.03    1.19
   1  11   7    8.23    1.49
  -1  11  -7    7.74    1.35
   1 -11   7    9.62    1.49
   1  11   7   11.27    1.19
  -1  11  -8   18.56    1.90
  -1 -11  -8   15.52    1.41
  -1 -11  -8   15.91    1.92
   1  11   8   13.15    1.34
  -1  11  -9  270.60    7.42
  -1 -11  -9  257.54    6.17
  -1 -11  -9  258.45    7.30
   1  11   9  256.55    6.22
  -1  11 -10  484.63   10.90
  -1 -11 -10  456.97    9.28
  -1 -11 -10  475.01   10.76
   1  11  10  451.12    9.30
  -1  11 -11    2.12    1.17
  -1 -11 -11    4.43    1.09
  -1 -11 -11    4.10    1.45
   1  11  11    2.28    0.98
  -1  11 -12   16.51    2.12
  -1 -11 -12   17.67    1.69
  -1 -11 -12   17.92    2.14
   1  11  12   18.95    1.74
  -1  11 -13    7.03    1.56
  -1 -11 -13    6.08    1.15
  -1 -11 -13    5.13    1.57
   1 -11  14   45.57    2.56
  -1  11 -14   46.67    3.43
  -1 -11 -14   41.64    3.13
  -1 -11 -14   42.05    2.68
  -1  11 -15   13.64    2.14
   1 -11  15    7.81    1.26
  -1 -11 -15   11.18    1.99
  -1  11 -16   51.23    3.76
   1 -11  16   49.05    2.65
  -1 -11 -16   48.31    3.60
  -1  11 -17  115.50    5.75
  -1 -11 -17  111.63    5.50
  -1  11 -18  299.84    9.77
  -1 -11 -18  279.83    9.15
  -1  11 -19   95.06    5.43
  -1 -11 -19   84.83    4.98
  -1  11 -20    9.94    2.02
  -1 -11 -20   12.55    2.32
  -1 -11 -21   18.64    2.73
   1 -12 -22   63.95    4.44
   1 -12 -21   50.39    3.88
   1 -12 -20    9.92    2.05
   1  12 -19   14.23    2.39
   1 -12 -19   17.04    2.38
   1  12 -18    3.45    1.71
   1 -12 -18    5.84    1.61
   1  12 -17  147.72    6.77
   1 -12 -17  151.09    6.08
  -1  12  17  156.38    6.19
   1  12 -16  114.52    5.70
   1 -12 -16  100.06    4.75
  -1  12  16   91.53    4.64
   1  12 -15   63.62    4.24
   1 -12 -15   57.22    3.56
  -1  12  15   61.30    3.65
   1  12 -14   27.91    2.89
   1 -12 -14   22.95    2.32
  -1  12  14   22.12    2.28
   1  12 -13  144.19    6.07
   1 -12 -13  137.85    5.21
  -1  12  13  137.81    5.34
   1  12 -12   69.59    4.07
   1 -12 -12   63.41    3.48
  -1  12  12   67.81    3.58
   1  12 -11  132.62    5.58
   1 -12 -11  128.58    4.84
  -1  12  11  128.87    4.90
   1  12 -10   38.19    2.98
   1 -12 -10   31.14    2.32
  -1  12  10   38.46    2.60
   1  12  -9   38.59    2.91
   1 -12  -9   38.18    2.49
   1 -12  -9   34.06    2.40
   1 -12  -9   34.79    2.41
  -1  12   9   42.69    2.69
   1  12  -8    6.25    1.52
   1 -12  -8    6.70    1.28
   1 -12  -8    5.95    1.19
   1 -12  -8    3.84    1.05
  -1  12   8    7.88    1.43
   1  12  -7   86.37    4.13
   1 -12  -7   84.07    3.61
  -1  12   7   87.64    3.69
   1  12  -6  115.20    4.78
  -1  12   6  119.69    4.27
   1 -12  -6  106.36    4.03
  -1  12   6  111.45    4.18
   1  12  -5   28.24    2.40
   1 -12  -5   27.94    1.99
  -1  12   5   26.30    1.97
  -1  12   5   26.82    2.09
   1  12  -4    3.45    1.27
   1 -12  -4    2.65    0.85
  -1  12   4    3.17    0.96
  -1  12   4    2.16    0.94
   1 -12  -3  135.40    4.48
  -1 -12   3  135.76    5.00
  -1  12   3  145.10    4.61
   1  12  -3  144.10    5.11
  -1  12   3  142.55    4.67
   1 -12  -2   35.40    2.21
  -1 -12   2   38.83    2.58
  -1  12   2   36.89    2.27
   1  12  -2   37.82    2.15
   1  12  -2   41.15    2.75
  -1  12   2   37.40    2.35
   1 -12  -1   86.43    3.49
  -1 -12   1   92.13    3.99
   1  12  -1   91.55    4.01
   1  12  -1   87.70    3.24
  -1  12   1   90.63    3.59
  -1  12   1   90.94    3.68
  -1 -12   0    1.24    0.93
   1 -12   0    1.93    0.86
   1  12   0    1.28    0.63
  -1  12   0    1.05    0.87
  -1  12   0    2.65    1.13
   1  12   0    1.69    0.99
   1 -12   1    5.93    1.11
  -1 -12  -1    4.36    1.13
  -1  12  -1    6.88    1.29
   1  12   1    7.55    1.42
  -1  12  -1    3.52    1.00
   1  12   1    5.87    0.98
   1 -12   2   68.57    3.20
  -1 -12  -2   75.25    3.58
  -1  12  -2   76.81    3.38
  -1  12  -2   73.20    3.40
   1  12   2   76.61    3.65
   1  12   2   74.48    2.84
   1 -12   3  242.41    6.47
  -1 -12  -3  252.61    6.99
   1  12   3  243.97    6.85
  -1  12  -3  236.90    6.40
   1  12   3  243.47    5.66
   1  12   4   15.97    1.84
  -1 -12  -4   18.62    1.94
  -1  12  -4   16.24    1.69
   1 -12   4   17.53    1.69
   1 -12   4   19.62    1.88
   1  12   4   17.16    1.37
   1  12   5    4.96    1.24
  -1  12  -5    5.28    1.22
   1 -12   5    6.70    1.35
   1  12   5    4.89    0.83
  -1  12  -6   19.16    2.03
   1  12   6   19.06    2.07
   1  12   6   18.21    1.49
  -1  12  -7  110.67    4.52
   1  12   7  108.14    4.58
   1  12   7  112.92    3.69
  -1  12  -8   33.71    2.48
  -1 -12  -8   31.02    1.93
  -1 -12  -8   30.41    2.47
   1  12   8   31.04    1.94
  -1  12  -9  267.34    7.64
  -1 -12  -9  264.95    6.36
  -1 -12  -9  258.11    7.52
   1  12   9  249.86    6.33
  -1  12 -10   20.71    2.20
  -1 -12 -10   20.97    1.76
  -1 -12 -10   22.48    2.29
   1  12  10   18.42    1.63
  -1 -12 -11   67.84    3.12
  -1  12 -11   74.30    4.02
  -1 -12 -11   71.13    3.92
   1  12  11   71.72    3.25
  -1  12 -12    0.42    1.18
  -1 -12 -12    0.72    0.81
  -1 -12 -12    2.11    1.21
   1  12  12    1.15    0.84
  -1 -12 -13  158.04    5.24
  -1  12 -13  167.63    6.45
  -1 -12 -13  156.79    6.13
  -1  12 -14   -0.33    1.29
   1 -12  14    0.01    0.82
  -1 -12 -14   -1.42    1.43
   1 -12  15  103.04    4.04
  -1  12 -15   99.78    5.21
  -1 -12 -15  104.82    5.19
  -1  12 -16   -0.12    1.44
   1 -12  16    1.56    1.00
  -1 -12 -16   -1.21    1.56
  -1  12 -17   80.00    4.92
  -1 -12 -17   81.62    4.79
  -1  12 -18    9.92    2.22
  -1 -12 -18    5.67    1.75
  -1  12 -19    5.86    1.89
  -1 -12 -19    6.19    1.86
  -1 -12 -20    0.12    1.50
   1 -13 -21   25.53    2.96
   1 -13 -20    3.92    1.70
   1 -13 -19   53.20    3.84
   1  13 -18    8.72    2.16
   1 -13 -18    6.77    1.75
   1  13 -17   14.22    2.49
   1 -13 -17   13.47    1.98
  -1  13  17   13.26    2.19
   1  13 -16    9.55    1.97
   1 -13 -16   10.06    2.36
  -1  13  16   11.91    1.92
   1  13 -15   22.60    2.68
   1 -13 -15   21.65    2.42
  -1  13  15   18.89    2.20
   1  13 -14   -1.16    1.60
   1 -13 -14    2.18    1.36
  -1  13  14    0.59    1.18
   1  13 -13  113.63    5.51
   1 -13 -13  113.49    4.85
  -1  13  13  108.89    4.85
   1  13 -12   -0.77    1.25
  -1  13  12    0.33    1.03
   1 -13 -12    0.97    1.09
   1  13 -11   -0.82    1.24
  -1  13  11   -0.21    1.03
   1 -13 -11    2.21    1.19
   1  13 -10    3.34    1.51
   1 -13 -10    2.80    1.15
  -1  13  10    3.55    1.23
   1  13  -9  165.19    6.12
   1 -13  -9  146.56    5.21
  -1  13   9  143.44    5.17
   1  13  -8    1.33    1.11
   1 -13  -8   -0.15    0.79
  -1  13   8    0.47    0.94
   1 -13  -8    1.27    0.97
   1  13  -7   78.24    4.05
   1 -13  -7   71.71    3.45
  -1  13   7   72.77    3.48
  -1  13   7   77.77    3.61
   1  13  -6   51.72    3.32
   1 -13  -6   51.10    2.88
  -1  13   6   49.57    2.83
  -1  13   6   47.34    2.79
   1 -13  -5  306.44    7.69
   1  13  -5  316.42    8.46
  -1  13   5  309.94    7.68
  -1  13   5  313.59    7.77
   1 -13  -4    1.77    0.87
   1  13  -4    1.57    1.22
  -1  13   4    0.20    0.94
  -1  13   4    0.71    0.88
   1 -13  -3  168.24    5.32
  -1  13   3  180.48    5.44
   1  13  -3  179.55    6.07
  -1  13   3  176.40    5.49
   1 -13  -2   66.45    3.14
   1  13  -2   65.52    3.54
   1  13  -2   61.32    2.87
  -1  13   2   61.39    3.05
  -1  13   2   62.53    3.13
   1 -13  -1    4.03    1.06
   1  13  -1    3.81    0.98
   1  13  -1    3.76    1.38
  -1  13   1    5.75    1.26
  -1  13   1    5.30    1.18
   1 -13   0   54.88    2.95
  -1  13   0   59.49    3.10
  -1  13   0   63.59    3.11
   1  13   0   52.76    3.13
   1  13   0   53.88    2.56
   1 -13   1  176.24    5.45
  -1  13  -1  180.59    5.55
   1  13   1  188.26    6.07
  -1  13  -1  178.96    5.65
   1  13   1  181.69    4.94
   1 -13   2    8.24    1.31
   1  13   2    6.06    1.05
   1  13   2    4.66    1.20
  -1  13  -2    8.41    1.34
  -1  13  -2    5.36    1.30
   1 -13   3  126.54    4.61
  -1  13  -3  123.50    4.62
  -1  13  -3  123.92    4.72
   1  13   3  120.57    4.79
   1  13   3  125.35    3.91
   1 -13   4   68.70    3.41
   1  13   4   60.99    3.39
  -1  13  -4   60.09    3.27
   1  13   4   61.44    2.69
   1  13   5  227.42    6.94
  -1  13  -5  235.43    6.78
   1  13   5  230.03    5.74
  -1  13  -6    3.38    1.05
   1  13   6    2.18    1.01
   1  13   6    2.07    0.69
  -1  13  -7   13.00    1.78
   1  13   7   12.04    1.78
   1  13   7   12.61    1.34
  -1  13  -8   51.96    3.24
   1  13   8   52.84    2.60
  -1 -13  -8   42.66    3.01
  -1  13  -9   80.99    4.09
   1  13   9   84.55    3.39
  -1 -13  -9   80.30    4.14
  -1  13 -10   -1.12    1.32
  -1 -13 -10    1.45    0.87
   1  13  10    0.14    0.78
  -1 -13 -10   -1.45    1.28
  -1  13 -11    4.48    1.40
  -1 -13 -11    7.69    1.31
  -1 -13 -11    3.42    1.53
   1  13  11    3.21    0.99
  -1  13 -12   10.12    1.89
  -1 -13 -12    9.24    1.70
   1  13  12    8.59    1.31
  -1  13 -13    3.60    1.57
  -1 -13 -13    4.17    1.64
  -1  13 -14    6.94    1.82
  -1 -13 -14    6.40    1.81
  -1  13 -15    2.73    1.60
   1 -13  15    2.88    1.10
  -1 -13 -15    4.03    1.55
  -1  13 -16   20.40    2.70
  -1 -13 -16   15.34    2.37
  -1  13 -17   43.48    3.72
  -1 -13 -17   46.92    3.77
  -1  13 -18    4.24    1.76
  -1 -13 -18    4.58    1.80
  -1 -13 -19   62.39    4.44
   1 -14 -20   15.32    2.35
   1 -14 -19   23.77    2.78
   1 -14 -18   10.12    1.98
   1  14 -17   78.64    5.09
   1 -14 -17   84.21    4.66
  -1  14  17   80.78    4.63
   1  14 -16   23.23    2.95
   1 -14 -16   19.37    2.50
  -1  14  16   21.62    2.54
   1  14 -15   90.85    5.25
   1 -14 -15   80.09    4.43
  -1  14  15   84.97    4.49
   1  14 -14   -0.60    1.98
   1 -14 -14    1.57    1.33
  -1  14  14   -2.07    1.50
   1  14 -13   62.36    4.26
   1 -14 -13   56.04    3.48
  -1  14  13   59.08    3.63
   1  14 -12    3.41    1.48
  -1  14  12    0.70    1.05
   1 -14 -12    2.00    1.34
   1  14 -11  177.12    6.89
   1 -14 -11  172.43    6.03
  -1  14  11  172.30    6.08
   1  14 -10    0.60    1.29
   1 -14 -10    1.47    1.10
  -1  14  10   -0.42    1.09
   1  14  -9   -0.89    1.46
  -1  14   9   -1.85    1.27
   1 -14  -9   -0.25    1.03
   1  14  -8   30.07    2.82
   1 -14  -8   33.01    2.54
  -1  14   8   35.23    2.60
  -1  14   7  287.87    7.72
   1  14  -7  279.56    8.43
  -1  14   7  283.30    7.62
  -1  14   6   83.57    3.84
   1  14  -6   88.21    4.44
  -1  14   6   78.66    3.75
   1 -14  -5    3.01    1.07
   1  14  -5    4.94    1.50
  -1  14   5    4.42    1.18
  -1  14   5    5.85    1.30
   1 -14  -4  112.84    4.45
   1  14  -4  114.87    5.03
  -1  14   4  118.49    4.51
  -1  14   4  120.75    4.56
   1 -14  -3  408.01    9.49
   1  14  -3  419.70    9.18
   1  14  -3  424.83   10.36
  -1  14   3  424.56    9.58
  -1  14   3  426.22    9.68
   1 -14  -2    2.94    1.05
   1  14  -2    3.39    1.35
   1  14  -2    4.16    0.99
  -1  14   2    3.08    1.11
  -1  14   2    3.04    1.09
   1 -14  -1  221.85    6.46
  -1  14   1  224.01    6.46
   1  14  -1  227.17    6.01
   1  14  -1  231.21    7.07
  -1  14   1  220.48    6.54
   1 -14   0  132.61    4.80
  -1  14   0  123.79    4.74
   1  14   0  128.16    5.14
   1  14   0  123.98    4.20
  -1  14   0  127.77    4.74
   1 -14   1    1.77    0.90
   1  14   1    1.24    1.03
  -1  14  -1   -0.89    1.07
   1  14   1    1.24    0.87
  -1  14  -1    1.19    0.99
   1 -14   2   -0.15    0.87
   1  14   2    0.93    0.70
  -1  14  -2   -0.72    1.01
  -1  14  -2    1.21    1.12
   1  14   2    2.46    1.31
  -1  14  -3  168.58    5.80
  -1  14  -3  181.34    5.85
   1  14   3  168.29    6.00
   1  14   3  177.45    5.00
  -1  14  -4   19.52    2.07
   1  14   4   19.23    2.13
   1  14   4   18.43    1.58
  -1  14  -5    8.85    1.58
   1  14   5    6.11    1.43
   1  14   5    7.31    1.17
  -1  14  -6    2.28    1.22
   1  14   6    0.67    1.18
   1  14   6    1.15    0.72
  -1  14  -7   94.62    4.43
   1  14   7   95.21    4.58
   1  14   7   92.88    3.57
  -1  14  -8  113.77    4.99
   1  14   8  118.01    5.15
   1  14   8  106.24    3.91
  -1 -14  -8  110.27    4.90
  -1  14  -9    6.55    1.55
  -1 -14  -9    8.67    1.75
   1  14   9    7.98    1.30
  -1  14 -10   17.28    2.27
   1  14  10   18.24    1.73
  -1 -14 -10   21.42    2.49
  -1  14 -11   39.24    3.13
   1  14  11   39.44    2.49
  -1 -14 -11   41.79    3.26
  -1  14 -12   17.37    2.30
   1  14  12   16.17    1.83
  -1 -14 -12   13.75    2.11
  -1  14 -13   63.54    4.21
  -1 -14 -13   63.43    4.06
  -1  14 -14    4.71    1.55
  -1 -14 -14    4.53    1.61
  -1  14 -15   49.77    3.91
  -1 -14 -15   41.41    3.54
  -1  14 -16   27.11    3.07
  -1 -14 -16   23.57    2.78
  -1  14 -17   38.82    3.68
  -1 -14 -17   37.41    3.47
  -1  14 -18    9.82    2.45
  -1 -14 -18    9.52    2.10
   1 -15 -19   61.83    4.25
   1 -15 -18   33.86    3.18
   1 -15 -17   48.11    3.65
  -1  15  17   42.60    3.44
   1  15 -16    1.28    1.46
   1 -15 -16    1.29    1.55
  -1  15  16    1.03    1.31
   1  15 -15  113.59    6.00
   1 -15 -15   96.43    4.96
  -1  15  15   97.03    4.93
   1  15 -14   51.54    4.07
   1 -15 -14   44.49    3.31
  -1  15  14   46.29    3.34
   1  15 -13   54.19    4.10
   1 -15 -13   52.17    3.49
  -1  15  13   56.38    3.58
   1  15 -12   21.68    2.77
   1 -15 -12   17.88    2.11
  -1  15  12   18.32    2.33
   1  15 -11   79.78    4.75
   1 -15 -11   68.96    3.85
  -1  15  11   76.41    4.02
   1  15 -10   46.24    3.69
   1 -15 -10   48.97    3.22
  -1  15  10   49.08    3.18
   1  15  -9  106.99    5.30
  -1  15   9  105.79    4.61
   1 -15  -9  102.79    4.57
   1  15  -8    0.72    1.28
  -1  15   8    0.68    0.95
   1 -15  -8   -1.51    1.22
   1  15  -7    9.58    1.88
  -1  15   7    6.05    1.44
  -1  15   7    7.57    1.43
   1  15  -6   11.37    1.90
  -1  15   6    8.76    1.49
  -1  15   6    9.86    1.59
   1  15  -5  360.37    9.80
  -1  15   5  348.20    8.85
  -1  15   5  347.12    8.84
  -1  15   4   28.50    2.31
   1  15  -4   28.91    2.71
   1  15  -4   32.27    2.37
  -1  15   4   26.22    2.32
  -1  15   3   55.77    3.19
   1  15  -3   56.69    3.01
   1  15  -3   53.35    3.46
  -1  15   3   54.26    3.19
  -1  15   2   10.17    1.70
   1  15  -2    6.53    1.26
   1  15  -2    8.34    1.60
  -1  15   2    5.47    1.30
  -1  15   1    1.00    1.00
   1  15  -1    2.13    0.98
  -1  15   1    3.18    1.24
   1  15  -1    1.78    1.17
  -1  15   0    8.61    1.49
  -1  15   0    6.10    1.28
   1  15   0    7.83    1.55
   1  15   0    6.83    1.19
  -1  15  -1   17.97    1.96
   1  15   1   19.34    2.19
  -1  15  -1   16.87    1.97
   1  15   1   20.04    1.73
   1  15   2   23.70    2.36
  -1  15  -2   22.12    2.13
  -1  15  -2   21.13    2.18
   1  15   2   24.53    1.87
  -1  15  -3   32.80    2.67
   1  15   3   26.35    2.49
  -1  15  -3   35.27    2.74
   1  15   3   32.44    2.14
  -1  15  -4    5.72    1.49
   1  15   4    4.37    1.32
  -1  15  -4    2.62    1.15
   1  15   4    4.31    1.03
  -1  15  -5   91.03    4.37
   1  15   5   88.62    4.45
   1  15   5   97.04    3.68
  -1  15  -6   24.43    2.40
   1  15   6   26.65    2.65
   1  15   6   23.38    1.86
  -1  15  -7    4.11    1.41
   1  15   7    0.98    1.42
   1  15   7    2.10    0.84
  -1  15  -8   46.69    3.40
   1  15   8   39.46    3.13
   1  15   8   45.06    2.56
  -1 -15  -8   41.63    3.24
  -1  15  -9  336.31    9.52
  -1 -15  -9  334.19    9.51
   1  15   9  334.42    7.98
  -1  15 -10   36.20    3.11
  -1 -15 -10   31.43    2.87
   1  15  10   30.10    2.18
  -1  15 -11   45.93    3.46
   1  15  11   48.27    2.79
  -1 -15 -11   45.53    3.47
  -1  15 -12    0.35    2.05
  -1 -15 -12    0.74    1.42
  -1  15 -13   13.36    2.28
  -1 -15 -13   16.33    2.43
  -1  15 -14   20.47    2.71
  -1 -15 -14   19.98    2.57
  -1  15 -15  128.63    6.31
  -1 -15 -15  124.26    6.03
  -1  15 -16   -0.70    1.52
  -1 -15 -16   -0.67    1.56
  -1  15 -17   45.69    4.02
  -1 -15 -17   42.70    3.70
   1 -16 -17   46.23    3.67
   1 -16 -16   31.52    3.13
   1  16 -15    4.65    1.77
   1 -16 -15   -0.12    1.33
  -1  16  15    3.40    1.46
   1  16 -14   -1.04    1.89
   1 -16 -14    0.99    1.62
  -1  16  14    1.02    1.29
   1  16 -13    9.17    2.09
  -1  16  13    4.50    1.36
   1 -16 -13    4.24    1.36
   1  16 -12   40.90    3.60
   1 -16 -12   31.04    2.79
  -1  16  12   36.00    2.97
   1  16 -11   56.22    4.08
   1 -16 -11   48.06    3.33
  -1  16  11   51.65    3.44
   1  16 -10    3.70    1.86
   1 -16 -10    4.30    1.51
  -1  16  10    5.10    1.44
   1  16  -9    0.88    1.30
   1 -16  -9   -0.10    1.27
  -1  16   9    0.49    1.09
   1  16  -8   29.06    2.93
  -1  16   8   32.05    2.65
   1 -16  -8   30.58    2.62
  -1  16   7  115.01    4.93
   1  16  -7  119.68    5.60
  -1  16   7  108.92    4.73
  -1  16   6   52.39    3.27
   1  16  -6   45.73    3.44
  -1  16   6   48.49    3.16
   1  16  -5   -0.17    1.24
  -1  16   5    0.70    1.03
   1  16  -5    1.41    1.13
  -1  16   5   -1.14    1.13
   1  16  -4   19.60    1.93
  -1  16   4   18.46    2.07
   1  16  -4   18.99    2.36
  -1  16   4   23.38    2.26
   1  16  -3  224.87    7.65
   1  16  -3  229.21    6.69
  -1  16   3  235.68    7.11
  -1  16   3  230.43    7.03
  -1  16   2  106.45    4.61
   1  16  -2   95.61    4.76
   1  16  -2   99.95    4.12
  -1  16   2   97.45    4.40
  -1  16   1   45.69    3.03
   1  16  -1   51.18    2.85
   1  16  -1   38.84    3.20
  -1  16   1   51.60    3.20
   1  16   0   17.48    1.73
  -1  16   0   19.30    2.13
   1  16   0   18.75    2.36
  -1  16   0   18.75    2.08
  -1  16  -1  195.25    6.45
  -1  16  -1  193.69    6.52
   1  16   1  185.80    6.73
   1  16   1  194.37    5.72
  -1  16  -2   62.41    3.67
  -1  16  -2   60.33    3.57
   1  16   2   61.32    3.84
   1  16   2   60.88    3.03
  -1  16  -3  290.94    8.43
   1  16   3  299.66    8.86
  -1  16  -3  297.10    8.43
   1  16   3  303.54    7.40
   1  16   4   52.52    3.60
  -1  16  -4   50.81    3.36
  -1  16  -4   56.67    3.57
   1  16   4   46.91    2.62
   1  16   5   49.27    3.57
  -1  16  -5   51.96    3.47
  -1  16  -5   52.00    3.42
   1  16   5   50.07    2.74
   1  16   6  111.31    5.26
  -1  16  -6  118.38    5.21
   1  16   6  114.43    4.23
   1  16   7   40.73    3.29
  -1  16  -7   44.85    3.33
   1  16   7   40.97    2.48
  -1  16  -8  120.65    5.47
  -1 -16  -8  127.61    5.66
   1  16   8  127.22    4.47
  -1  16  -9   44.94    3.42
  -1 -16  -9   41.34    3.32
  -1  16 -10   24.07    2.77
  -1 -16 -10   19.78    2.51
  -1  16 -11   29.06    2.97
  -1 -16 -11   28.28    2.89
  -1  16 -12   33.51    3.19
  -1 -16 -12   33.59    3.21
  -1  16 -13    1.13    1.36
  -1 -16 -13    4.71    1.77
  -1  16 -14   -0.75    1.62
  -1 -16 -14    0.70    1.45
  -1  16 -15    0.85    1.62
  -1 -16 -15    0.21    1.52
  -1 -16 -16   20.65    2.90
   1 -17 -15   47.41    3.68
   1 -17 -14   18.45    2.53
   1  17 -13   41.99    3.84
   1 -17 -13   41.02    3.32
   1  17 -12   16.58    2.56
  -1  17  12   17.36    2.17
   1 -17 -12   14.57    2.18
   1  17 -11   48.72    3.93
   1 -17 -11   47.01    3.41
  -1  17  11   45.74    3.35
   1  17 -10  103.19    5.56
  -1  17  10   99.62    4.76
   1 -17 -10   99.37    4.88
   1  17  -9   30.85    3.19
   1 -17  -9   19.33    2.31
  -1  17   9   24.31    2.44
   1  17  -8   42.67    3.99
   1 -17  -8   35.36    2.94
  -1  17   8   42.35    3.11
   1  17  -7    2.60    1.60
  -1  17   7    0.96    1.11
   1  17  -6  120.50    5.04
  -1  17   6  107.83    4.91
   1  17  -6  116.92    5.68
  -1  17   6  111.22    4.93
  -1  17   5  121.52    5.14
   1  17  -5  117.47    5.65
   1  17  -5  115.82    4.88
  -1  17   5  115.20    5.00
  -1  17   4  361.89    9.56
   1  17  -4  357.22   10.31
   1  17  -4  363.93    9.15
  -1  17   4  357.20    9.44
   1  17  -3   -0.04    1.31
   1  17  -3   -0.42    1.07
  -1  17   3   -0.09    1.21
  -1  17   3    2.21    1.13
   1  17  -2   42.98    3.41
   1  17  -2   43.02    2.83
  -1  17   2   40.59    2.98
  -1  17   2   39.57    2.95
  -1  17   1    2.37    1.23
   1  17  -1   -0.33    1.48
   1  17  -1    1.97    1.02
  -1  17   1   -1.77    1.37
  -1  17   0  150.36    5.78
   1  17   0  152.66    6.28
  -1  17   0  151.03    5.79
   1  17   0  162.46    5.32
   1  17   1   32.69    2.98
  -1  17  -1   38.61    2.96
  -1  17  -1   32.87    2.76
   1  17   1   36.33    2.42
  -1  17  -2   -0.38    1.17
   1  17   2    0.63    1.44
  -1  17  -2    1.25    1.28
   1  17   2    0.00    0.86
  -1  17  -3   28.38    2.63
  -1  17  -3   27.22    2.56
   1  17   3   28.10    2.78
   1  17   3   25.55    2.06
  -1  17  -4  252.46    8.02
   1  17   4  248.94    8.31
  -1  17  -4  258.93    8.13
   1  17   4  265.47    6.92
  -1  17  -5   12.21    2.08
   1  17   5   13.83    2.21
  -1  17  -5   10.52    1.92
  -1  17  -6    1.84    1.29
   1  17   6    2.61    1.53
  -1  17  -6    3.75    1.45
  -1  17  -7   -0.64    1.38
   1  17   7    0.51    1.39
  -1  17  -8   27.93    2.86
  -1 -17  -8   27.67    2.88
  -1  17  -9   17.33    2.44
  -1 -17  -9   16.50    2.37
  -1  17 -10    3.90    1.52
  -1 -17 -10    5.88    1.85
  -1  17 -11   51.41    3.89
  -1 -17 -11   51.84    3.87
  -1  17 -12   15.02    2.48
  -1 -17 -12   12.34    2.23
  -1  17 -13    8.37    2.09
  -1 -17 -13    3.56    1.56
  -1  17 -14    7.10    2.19
  -1 -17 -14   11.19    2.30
  -1 -17 -15   22.38    2.92
   1 -18 -12  319.37    9.61
   1  18 -11   11.69    2.22
   1 -18 -11   12.18    2.03
   1  18 -10   -1.29    1.66
   1 -18 -10   -0.72    1.62
   1  18  -9    1.85    1.61
   1 -18  -9   -1.60    1.38
  -1  18   9   -1.29    1.23
   1  18  -8  100.37    5.56
   1 -18  -8   87.12    4.64
  -1  18   8  101.20    4.81
   1  18  -7    5.45    1.91
   1  18  -7    9.33    1.82
  -1  18   7    7.49    1.59
   1  18  -6   20.01    2.56
   1  18  -6   20.07    2.26
  -1  18   6   26.04    2.59
  -1  18   6   22.21    2.37
   1  18  -5    4.39    1.67
  -1  18   5    1.86    1.17
   1  18  -5    2.70    1.25
  -1  18   5    5.08    1.56
  -1  18   4   61.78    3.80
   1  18  -4   62.41    3.58
   1  18  -4   58.04    4.11
  -1  18   4   61.90    3.77
   1  18  -3    4.83    1.71
   1  18  -3    3.82    1.12
  -1  18   3    6.82    1.65
  -1  18   3    4.35    1.48
  -1  18   2   31.45    2.77
   1  18  -2   32.80    2.49
  -1  18   2   32.05    2.86
   1  18  -2   32.63    3.72
  -1  18   1    7.63    1.85
   1  18  -1   13.97    2.95
   1  18  -1    9.26    1.56
  -1  18   1    9.72    1.73
   1  18   0   16.73    1.94
  -1  18   0   12.51    2.09
   1  18   0   14.78    2.72
  -1  18   0   16.59    2.19
   1  18   1   26.95    2.90
  -1  18  -1   28.96    2.81
  -1  18  -1   22.46    2.48
  -1  18  -2   20.82    2.40
   1  18   2   16.54    2.34
  -1  18  -2   19.62    2.37
  -1  18  -3    1.12    1.19
  -1  18  -3    3.26    1.41
   1  18   3    2.09    1.49
  -1  18  -4   31.52    2.89
  -1  18  -4   34.95    3.07
   1  18   4   37.34    3.26
  -1  18  -5    0.48    1.29
   1  18   5   -0.55    1.50
  -1  18  -5   -0.29    1.27
  -1  18  -6    9.98    2.05
   1  18   6   11.93    2.20
  -1  18  -6   11.18    2.10
  -1  18  -7    6.52    1.87
   1  18   7   -0.18    1.58
  -1  18  -7    4.12    1.54
  -1  18  -8   80.79    4.74
  -1  18  -8   82.90    4.84
  -1 -18  -8   83.88    4.88
  -1  18  -9   -0.57    1.47
  -1 -18  -9    0.81    1.50
  -1  18 -10   17.82    2.50
  -1 -18 -10   17.40    2.45
  -1  18 -11    5.95    1.86
  -1 -18 -11    4.88    1.79
  -1  18 -12  112.85    5.94
  -1 -18 -12   98.79    5.53
  -1  18 -13    4.46    1.86
  -1 -18 -13    5.49    2.00
   1  19  -9   26.91    3.31
   1 -19  -9   30.92    2.95
   1  19  -8   15.86    2.53
   1  19  -8   14.39    2.19
   1 -19  -8   10.12    1.96
   1  19  -7   72.35    4.83
   1 -19  -7   67.43    4.20
  -1  19   6   85.08    4.60
   1  19  -6   78.87    4.96
  -1  19   5   -0.49    1.57
   1  19  -5    1.65    1.44
  -1  19   5    0.53    1.20
  -1  19   4  278.06    8.70
   1  19  -4  278.37    9.42
  -1  19   4  282.03    8.54
  -1  19   3   25.75    2.61
   1  19  -3   33.08    3.21
  -1  19   3   28.99    2.68
   1  19  -2    3.75    1.66
  -1  19   2    4.74    1.57
  -1  19   2    4.98    1.50
   1  19  -1   47.66    3.81
  -1  19   1   51.65    3.57
  -1  19   1   51.76    3.53
   1  19   0  145.02    6.50
  -1  19   0  154.97    6.25
  -1  19   0  147.91    6.11
  -1  19  -1   17.44    2.31
  -1  19  -1   16.26    2.26
   1  19   1   18.41    2.54
   1  19   2   -2.56    1.70
  -1  19  -2    0.79    1.27
  -1  19  -2   -0.52    1.55
   1  19   3    0.44    1.43
  -1  19  -3    2.71    1.59
  -1  19  -3    3.24    1.59
   1  19   4  148.06    6.62
  -1  19  -4  142.24    6.21
  -1  19  -4  146.79    6.23
  -1  19  -5   -0.99    1.43
  -1  19  -5    1.21    1.35
   1  19   5    2.52    1.44
  -1  19  -6   35.01    3.18
   1  19   6   38.98    3.55
  -1  19  -6   34.91    3.26
  -1  19  -7   55.61    4.01
   1  19   7   52.45    4.05
  -1  19  -7   53.41    3.94
  -1  19  -8   45.14    3.79
  -1  19  -8   51.53    3.93
  -1 -19  -8   43.54    3.79
  -1  19  -9    0.34    1.36
  -1  19  -9    0.24    1.43
  -1 -19  -9   -1.24    1.54
  -1  19 -10   72.41    4.73
  -1 -19 -10   56.86    4.22
  -1  19 -11   21.11    2.87
  -1 -19 -11   19.38    2.81
   1  20  -6   17.58    2.64
   1  20  -5   24.30    2.96
  -1  20   4    3.27    1.42
   1  20  -4    4.55    1.88
  -1  20   3   65.51    4.18
   1  20  -3   74.90    4.93
   1  20  -2   10.06    2.36
  -1  20   2    9.67    1.95
  -1  20   1   60.04    4.04
   1  20  -1   62.49    4.59
   1  20   0    0.70    1.42
  -1  20   0    0.74    1.44
  -1  20   0    1.06    1.39
  -1  20  -1   39.46    3.30
   1  20   1   36.43    3.44
  -1  20  -1   34.17    3.12
   1  20   2   69.57    4.67
  -1  20  -2   82.68    4.72
  -1  20  -2   76.22    4.52
  -1  20  -3   14.35    2.29
  -1  20  -3   12.79    2.17
   1  20   3   12.90    2.36
  -1  20  -4   18.48    2.47
   1  20   4   23.22    2.87
  -1  20  -4   21.70    2.69
  -1  20  -5    7.95    1.84
   1  20   5    4.90    1.80
  -1  20  -5   10.96    2.10
   1  20   6   29.27    3.18
  -1  20  -6   33.50    3.13
  -1  20  -6   37.00    3.34
   1  20   7   18.20    2.58
  -1  20  -7   11.91    2.27
  -1  20  -7   20.58    2.69
  -1 -20  -7   15.28    2.60
  -1  20  -8    5.67    1.92
  -1  20  -8   13.26    2.34
  -1  20  -9   18.00    2.64
   1  21  -1    5.56    2.16
   1  21   0    6.95    2.17
   1  21   1   12.99    2.49
   1  21   2    7.37    2.06
   1  21   3    5.19    1.74
   2   0 -25    1.39    1.71
   2   0 -24   32.28    3.29
   2   0 -23   -0.57    1.55
   2   0 -22  101.90    5.25
   2   0 -21    0.75    1.44
   2   0 -20   82.06    4.35
   2   0 -19    1.11    1.34
   2   0 -18  118.14    4.93
   2   0 -17    0.32    0.21
   2   0 -17    0.61    1.12
   2   0 -16   83.98    1.71
   2   0 -16   80.17    3.75
  -2   0  15   -0.11    0.83
   2   0 -15    0.22    1.00
   2   0 -14  208.15    5.98
  -2   0  14  228.79    6.17
   2   0 -14  224.73    6.44
  -2   0  13    0.80    0.76
   2   0 -13    0.08    0.92
   2   0 -13    1.29    1.00
  -2   0  12  120.04    3.93
   2   0 -12  107.04    3.76
   2   0 -12  115.97    4.12
   2   0 -11   -0.77    0.82
  -2   0  11   -0.89    0.73
   2   0 -11    0.53    0.87
   2   0 -10  243.19    5.62
  -2   0  10  246.63    5.63
   2   0 -10  251.68    6.06
   2   0  -9   -0.97    0.88
  -2   0   9   -0.67    0.72
   2   0  -9    0.74    0.74
  -2   0   8  566.32    9.80
   2   0  -8  604.18    9.91
  -2   0   8  597.08   10.37
   2   0  -8  594.89   10.37
  -2   0   7    0.08    0.56
   2   0  -7    0.07    0.66
   2   0  -7   -1.25    0.81
  -2   0   7    0.44    0.82
   2   0  -6  929.20   13.83
  -2   0   6  934.83   13.81
  -2   0   6  943.49   14.42
   2   0  -6  946.47   14.41
   2   0  -5    0.51    0.38
  -2   0   5    0.21    0.49
   2   0  -5    0.52    0.60
   2   0  -5    2.34    1.37
   2   0  -4  373.11    5.67
   2   0  -4  368.29    6.07
  -2   0   4  368.79    5.92
  -2   0   4  365.31    6.43
   2   0  -4  380.56    6.46
  -2   0   3    0.80    0.47
   2   0  -3    0.00    0.47
   2   0  -3   -0.08    0.49
   2   0  -3    0.38    0.54
  -2   0   3   -0.07    0.63
  -2   0   2   23.11    0.87
   2   0  -2   29.21    1.12
  -2   0   2   26.59    1.07
   2   0  -2   25.80    0.96
  -2   0   2   27.94    1.17
   2   0  -2   27.67    1.14
  -2   0   1    0.99    0.39
  -2   0   1    0.34    0.45
   2   0  -1    0.77    0.60
   2   0  -1    0.67    0.41
   2   0  -1    0.60    0.44
  -2   0   1    0.99    0.52
  -2   0   0 5270.51   68.01
   2   0   0 5265.69   68.01
  -2   0   0 5126.38   67.66
   2   0   0 5148.92   67.52
  -2   0   0 5123.99   67.52
  -2   0  -1    0.10    0.49
   2   0   1    0.18    0.47
  -2   0  -1   -0.44    0.48
  -2   0  -2 1802.90   24.52
  -2   0  -2 1762.61   24.74
  -2   0  -2 1839.76   24.57
   2   0   2 1774.54   24.52
  -2   0  -3    0.19    0.56
  -2   0  -3   -0.11    0.70
   2   0   3    0.68    0.59
  -2   0  -4 1229.06   17.72
   2   0   4 1222.26   17.82
  -2   0  -4 1235.45   17.84
  -2   0  -5    1.75    0.67
  -2   0  -5    1.05    0.84
   2   0   5    0.08    0.63
  -2   0  -6 1018.32   15.32
   2   0   6 1020.65   15.76
  -2   0  -6 1027.49   15.78
  -2   0  -7    0.42    0.64
   2   0   7   -0.50    0.73
  -2   0  -7   -1.39    0.90
  -2   0  -8   33.08    1.68
   2   0   8   35.54    1.98
  -2   0  -8   34.16    2.02
  -2   0  -9   -0.26    0.60
  -2   0  -9   -0.25    0.83
   2   0   9    0.63    0.73
  -2   0 -10  312.51    6.50
  -2   0 -10  320.79    7.40
   2   0  10  340.37    7.53
  -2   0 -11   -0.43    0.59
  -2   0 -11   -1.63    1.09
   2   0  11    0.51    0.74
  -2   0 -12  159.98    4.35
   2   0  12  170.68    5.34
  -2   0 -12  162.74    5.23
  -2   0 -13    0.83    0.72
  -2   0 -13   -0.67    1.20
   2   0  13   -0.09    0.88
  -2   0 -14  154.53    4.42
  -2   0 -14  152.21    5.41
  -2   0 -15    1.36    0.84
  -2   0 -15    0.93    1.31
  -2   0 -16   70.71    2.97
  -2   0 -16   67.61    3.80
  -2   0 -17   -0.74    0.80
  -2   0 -17   -1.58    1.52
  -2   0 -18    6.45    1.26
  -2   0 -18   11.46    2.03
  -2   0 -19    1.87    0.98
  -2   0 -19   -0.65    1.44
  -2   0 -20   11.72    2.20
  -2   0 -21   -0.98    1.58
  -2   0 -22    0.34    1.52
  -2   0 -23   -3.52    1.84
   2  -1 -26   30.14    3.33
   2  -1 -25   -1.18    1.56
   2   1 -25    0.18    1.57
   2  -1 -24   16.37    2.60
   2   1 -24    8.48    2.17
   2   1 -23   68.23    4.51
   2  -1 -23   63.69    4.26
   2  -1 -22  498.96   12.59
   2   1 -22  505.08   12.81
   2  -1 -21   17.89    2.38
   2   1 -21   23.17    2.71
   2  -1 -20  135.00    5.61
   2   1 -20  131.13    5.67
   2  -1 -19   14.73    0.86
   2   1 -19   16.32    2.12
   2  -1 -19   14.85    1.98
   2   1 -18   -1.25    1.22
   2  -1 -18    1.96    1.29
   2  -1 -17    2.56    1.30
   2   1 -17    1.36    1.20
  -2   1  16  583.66   11.94
   2   1 -16  570.17   12.08
   2  -1 -16  578.91   11.91
  -2  -1  15   35.09    2.38
  -2   1  15   35.36    2.37
   2   1 -15   34.47    2.53
   2  -1 -15   30.06    2.28
   2   1 -14    3.36    1.16
   2  -1 -14    5.96    1.22
  -2   1  14    4.18    1.16
  -2  -1  14    5.32    1.20
   2  -1 -14    3.07    1.01
   2   1 -14    4.74    1.17
   2   1 -13    0.91    0.96
   2  -1 -13    0.78    0.88
  -2   1  13    1.95    0.93
  -2  -1  13    1.36    0.90
   2   1 -13    0.12    0.87
   2  -1 -13    0.95    0.89
   2   1 -12   79.08    3.24
   2  -1 -12   77.91    3.14
  -2  -1  12   78.22    3.20
  -2   1  12   84.43    3.21
   2  -1 -12   84.32    3.46
   2   1 -12   80.58    3.43
   2  -1 -11   13.74    1.36
  -2  -1  11   15.26    1.45
  -2   1  11   14.83    1.33
   2   1 -11   14.34    1.47
   2  -1 -11   13.39    1.40
   2   1 -11   14.43    1.48
   2   1 -10    3.44    0.99
  -2   1  10    2.27    0.78
   2  -1 -10    2.15    0.81
  -2  -1  10    2.96    0.91
   2  -1 -10    3.36    0.94
   2   1 -10    2.51    0.92
  -2   1  10    1.84    0.99
   2   1  -9  414.31    8.03
   2  -1  -9  415.24    7.76
  -2  -1   9  425.22    8.06
  -2   1   9  429.37    7.79
  -2   1   9  410.12    8.31
   2  -1  -9  441.49    8.47
   2   1  -9  427.38    8.38
  -2   1   8 1360.59   19.69
  -2  -1   8 1326.29   20.02
   2   1  -8 1369.04   20.10
   2  -1  -8 1355.47   19.70
  -2   1   8 1381.94   20.48
   2  -1  -8 1338.80   20.46
   2   1  -8 1356.36   20.40
  -2   1   7   36.00    1.58
   2   1  -7   42.47    1.87
   2  -1  -7   40.45    1.69
  -2  -1   7   39.21    1.76
   2  -1  -7   41.22    1.96
  -2   1   7   38.27    2.00
   2   1  -7   39.58    1.87
   2   1  -6    1.67    0.70
  -2   1   6    1.74    0.52
  -2  -1   6    1.58    0.62
   2  -1  -6    2.52    0.65
  -2  -1   6    1.80    0.79
   2   1  -6    0.98    0.63
   2  -1  -6    2.77    0.75
  -2   1   6    2.64    0.96
   2   1  -5 1238.94   17.93
  -2  -1   5 1241.48   17.78
   2  -1  -5 1245.45   17.30
  -2   1   5 1231.38   17.28
   2  -1  -5 1235.78   18.19
  -2   1   5 1261.96   18.27
   2   1  -5 1262.67   18.03
  -2  -1   5 1251.83   18.03
   2   1  -4  200.64    4.02
  -2  -1   4  197.44    3.35
  -2  -1   4  204.78    4.02
   2  -1  -4  201.08    3.47
  -2   1   4  203.11    3.46
   2  -1  -4  205.18    4.21
  -2   1   4  206.50    4.25
  -2  -1   4  201.47    4.03
   2   1  -4  200.33    4.02
  -2  -1   3 1249.29   17.62
  -2  -1   3 1252.84   17.16
   2   1  -3 1268.76   17.64
   2  -1  -3 1254.76   17.00
  -2   1   3 1247.13   16.81
  -2  -1   3 1283.39   17.62
  -2   1   3 1273.84   17.92
   2   1  -3 1242.55   17.58
   2  -1  -3 1268.32   17.89
  -2   1   2   23.56    0.71
  -2  -1   2   26.65    1.13
   2  -1  -2   24.69    0.75
   2   1  -2   24.73    1.13
  -2  -1   2   25.40    1.01
   2  -1  -2   24.87    1.18
  -2  -1   2   27.02    1.05
  -2   1   2   24.50    1.26
   2   1  -2   26.17    1.00
   2  -1  -1  396.39    6.29
   2   1  -1  388.14    6.15
  -2  -1   1  383.09    6.12
   2  -1  -1  377.19    6.28
  -2   1   1  386.84    6.30
  -2  -1   1  393.42    5.81
   2   1  -1  364.61    5.78
  -2  -1   0  218.42    4.02
  -2   1   0  223.51    3.47
   2   1   0  218.24    3.58
   2   1   0  224.11    4.04
  -2   1   0  233.19    4.15
   2  -1   0  221.64    4.19
  -2   1   0  223.98    3.50
  -2  -1   0  221.85    3.58
   2   1   1   70.86    1.96
  -2  -1  -1   68.86    1.92
  -2   1  -1   70.53    2.03
   2  -1   1   70.59    2.08
   2  -1   1   70.00    1.65
  -2   1  -1   69.77    1.65
  -2  -1  -2  126.00    2.85
   2   1   2  121.15    2.86
  -2   1  -2  114.87    2.83
   2  -1   2  124.33    2.93
   2  -1   2  118.13    2.60
  -2   1  -2  120.23    2.61
  -2  -1  -2  119.73    2.83
  -2  -1  -3  172.66    3.73
   2  -1   3  167.97    3.67
  -2   1  -3  171.88    3.66
  -2  -1  -3  171.93    3.74
  -2   1  -3  168.74    3.54
   2  -1   3  166.51    3.51
   2   1   3  165.36    3.67
  -2   1  -4  239.12    4.73
   2  -1   4  235.22    4.74
   2  -1   4  243.48    4.77
  -2  -1  -4  248.01    4.97
  -2   1  -4  245.30    4.81
   2   1   4  236.03    4.87
  -2   1  -5   43.16    1.76
  -2   1  -5   42.86    1.89
  -2  -1  -5   40.05    1.90
   2  -1   5   41.38    1.80
   2   1   5   43.27    1.88
  -2   1  -6  528.82    8.88
   2   1   6  527.35    9.36
  -2   1  -6  522.28    9.23
  -2  -1  -6  515.48    9.32
   2  -1   6  557.59    9.35
  -2   1  -7   40.67    1.80
  -2  -1  -7   48.07    2.23
   2   1   7   45.03    2.14
   2  -1   7   44.05    2.12
  -2   1  -7   47.54    2.20
  -2   1  -8  668.26   11.10
   2  -1   8  686.46   11.92
   2   1   8  687.47   11.97
  -2   1  -8  690.72   11.91
  -2  -1  -8  688.84   11.95
  -2   1  -9    2.19    0.72
  -2  -1  -9    2.36    0.93
  -2   1  -9    3.53    1.09
   2  -1   9    3.83    0.98
   2   1   9    4.37    0.96
  -2   1 -10   76.09    2.67
   2   1  10   78.99    3.26
  -2   1 -10   71.07    3.16
   2  -1  10   78.71    3.25
  -2  -1 -10   82.95    3.34
  -2   1 -11   37.63    1.92
   2   1  11   38.63    2.41
   2  -1  11   38.91    2.41
  -2   1 -11   35.89    2.37
  -2  -1 -11   38.35    2.42
  -2   1 -12  485.62    9.08
  -2   1 -12  493.42   10.36
  -2  -1 -12  486.97   10.36
   2   1  12  514.14   10.57
   2  -1  12  496.36   10.44
  -2   1 -13   -0.20    0.60
  -2  -1 -13   -0.81    1.03
  -2   1 -13    0.33    1.07
   2  -1  13    1.74    0.96
   2   1  13   -0.41    0.83
  -2   1 -14   35.19    1.95
  -2  -1 -14   34.06    2.00
  -2   1 -14   34.27    2.59
  -2  -1 -14   33.81    2.59
  -2   1 -15   16.44    1.46
  -2  -1 -15   17.46    1.56
  -2   1 -15   15.30    2.02
  -2  -1 -15   19.26    2.16
  -2  -1 -16  419.34    8.78
  -2   1 -16  416.82    8.50
  -2  -1 -16  416.22   10.44
  -2   1 -16  427.39   10.43
  -2  -1 -17   10.27    1.30
  -2   1 -17   11.56    1.34
  -2  -1 -17    9.89    1.86
  -2   1 -17    9.67    1.87
  -2  -1 -18  106.00    3.94
  -2   1 -18  100.92    3.66
  -2  -1 -18  106.25    5.04
  -2   1 -18  108.85    5.09
  -2  -1 -19   14.07    1.56
  -2   1 -19   13.26    1.41
  -2   1 -19   12.50    2.20
  -2  -1 -19   14.76    2.17
  -2  -1 -20  298.21    9.46
  -2   1 -20  317.46    9.67
  -2   1 -21   15.87    2.42
  -2  -1 -21   23.64    2.82
  -2  -1 -22   88.46    5.21
  -2   1 -22   90.61    5.31
  -2   1 -23   53.37    4.22
  -2  -1 -23   54.71    4.30
   2  -2 -26   51.33    4.20
   2   2 -25    5.71    1.91
   2  -2 -25    5.40    2.04
   2   2 -24    1.15    1.66
   2  -2 -24    0.10    1.51
   2  -2 -23   85.21    4.92
   2   2 -23   91.01    5.24
   2   2 -22  174.05    7.02
   2  -2 -22  173.62    6.80
   2   2 -21   58.08    3.96
   2  -2 -21   51.58    3.60
   2  -2 -20    5.64    1.60
   2   2 -20    8.87    2.01
   2   2 -19  103.56    4.88
   2  -2 -19  102.39    4.65
   2  -2 -18  202.73    6.50
   2   2 -18  199.62    6.70
   2  -2 -17   19.47    2.02
   2   2 -17   22.96    2.27
  -2   2  16    0.77    0.82
   2  -2 -16    1.19    1.07
   2   2 -16    3.42    1.37
   2  -2 -15   88.41    3.77
  -2  -2  15   90.96    3.98
   2   2 -15   85.57    3.86
  -2   2  15   92.05    3.76
  -2  -2  14  246.03    6.61
   2   2 -14  230.20    6.49
  -2   2  14  237.94    6.23
   2  -2 -14  226.00    6.14
   2   2 -14  228.13    6.60
   2  -2 -14  236.63    6.69
   2  -2 -13  216.52    5.74
  -2  -2  13  219.98    6.05
  -2   2  13  230.90    5.86
   2   2 -13  218.02    6.06
   2   2 -13  216.80    6.26
   2  -2 -13  224.47    6.30
   2  -2 -12    2.48    0.98
  -2   2  12   -0.40    0.72
  -2  -2  12    0.56    0.88
   2   2 -12   -0.36    0.98
   2   2 -12    0.99    0.87
   2  -2 -12    0.24    0.76
   2   2 -11  679.69   12.32
   2  -2 -11  676.31   11.81
  -2  -2  11  687.64   12.36
  -2   2  11  697.28   11.86
  -2   2  11  663.70   12.46
   2  -2 -11  698.19   12.62
   2   2 -11  702.99   12.59
   2   2 -10  562.25   10.48
  -2   2  10  577.74    9.98
   2  -2 -10  565.39    9.94
  -2  -2  10  576.04   10.51
   2   2 -10  573.64   10.68
  -2   2  10  557.84   10.66
   2  -2 -10  571.62   10.72
  -2   2   9  694.25   11.22
  -2  -2   9  688.90   11.80
   2   2  -9  685.77   11.83
   2  -2  -9  681.85   11.21
   2  -2  -9  694.06   12.05
  -2   2   9  681.94   12.01
   2   2  -9  676.48   11.92
   2   2  -8  482.12    8.86
  -2  -2   8  461.55    8.63
   2  -2  -8  469.85    8.08
  -2   2   8  477.82    8.09
   2   2  -8  459.35    8.64
   2  -2  -8  480.80    8.96
  -2   2   8  479.29    8.92
   2   2  -8  481.33    8.79
   2   2  -7  381.33    7.27
   2  -2  -7  376.79    6.55
  -2   2   7  373.80    6.52
  -2  -2   7  377.77    7.17
   2   2  -7  386.43    7.21
   2  -2  -7  384.23    7.40
  -2   2   7  374.66    7.39
   2   2  -6  634.68   10.35
  -2  -2   6  610.71    8.51
  -2  -2   6  622.41   10.18
  -2   2   6  631.18    9.43
   2  -2  -6  611.61    9.39
  -2   2   6  644.74   10.51
   2   2  -6  619.05   10.15
   2  -2  -6  627.35   10.41
   2   2  -5  978.19   14.74
  -2  -2   5  966.32   14.69
   2  -2  -5  980.01   13.69
  -2  -2   5  978.62   14.59
  -2   2   5  980.61   13.69
  -2   2   5  963.74   14.86
   2  -2  -5  953.07   14.84
   2   2  -5  994.44   14.53
  -2  -2   4  241.48    4.87
   2   2  -4  259.02    4.94
  -2   2   4  245.63    3.95
   2  -2  -4  246.12    3.94
   2  -2  -4  255.09    5.03
  -2   2   4  248.76    5.01
   2   2  -4  250.95    4.65
  -2  -2   3 1251.61   18.21
   2   2  -3 1281.54   18.23
   2  -2  -3 1277.81   18.35
   2   2  -3 1250.96   17.74
  -2   2   3 1281.06   18.39
  -2  -2   3 1313.73   17.77
   2   2  -2 1055.74   15.38
  -2  -2   2 1039.75   15.33
   2  -2  -2 1050.79   15.45
  -2   2   2 1062.68   15.52
   2   2  -2 1072.78   14.69
  -2  -2   2 1084.28   14.69
  -2  -2   1   75.36    2.15
   2   2  -1   80.48    2.23
  -2   2   1   80.08    2.31
   2  -2  -1   79.98    2.25
   2   2  -1   75.11    1.59
  -2  -2   1   80.39    1.61
  -2  -2   0 3249.34   44.13
  -2   2   0 3291.10   44.21
   2   2   0 3308.31   44.15
   2  -2   0 3283.97   43.01
  -2   2   0 3328.56   43.00
  -2  -2  -1   23.48    1.29
   2   2   1   25.57    1.32
   2  -2   1   25.55    0.93
  -2   2  -1   24.14    0.88
  -2  -2  -2  831.66   12.75
   2   2   2  847.08   12.73
   2  -2   2  865.98   12.66
  -2   2  -2  843.10   12.13
   2  -2   2  832.74   12.12
  -2  -2  -3   43.71    1.78
   2   2   3   42.03    1.82
   2  -2   3   40.32    1.70
  -2   2  -3   43.70    1.62
   2  -2   3   42.22    1.56
  -2  -2  -3   39.71    1.79
  -2  -2  -4  127.83    3.33
   2  -2   4  124.76    3.16
  -2   2  -4  123.76    3.11
   2  -2   4  125.13    3.10
  -2  -2  -4  117.39    3.34
  -2  -2  -5   93.03    2.92
   2  -2   5   91.29    2.68
  -2   2  -5   92.75    2.66
  -2   2  -5   95.19    2.83
   2  -2   5   91.26    2.76
  -2  -2  -5   92.09    2.96
   2   2   5   90.53    2.88
  -2   2  -6  195.57    4.30
   2  -2   6  194.22    4.31
  -2   2  -6  199.79    4.61
   2  -2   6  195.13    4.59
  -2  -2  -6  185.78    4.71
   2   2   6  195.69    4.73
  -2   2  -7   44.17    1.89
  -2   2  -7   44.21    2.16
  -2  -2  -7   44.55    2.25
   2  -2   7   43.52    2.12
   2   2   7   46.61    2.22
  -2   2  -8  350.20    6.66
  -2   2  -8  351.19    7.33
  -2  -2  -8  354.61    7.48
   2  -2   8  345.11    7.32
   2   2   8  351.80    7.50
  -2   2  -9   20.03    1.34
  -2  -2  -9   18.53    1.70
  -2   2  -9   22.18    1.78
   2  -2   9   17.67    1.50
   2   2   9   18.18    1.58
  -2   2 -10  208.51    4.87
  -2   2 -10  214.18    5.72
   2  -2  10  215.54    5.73
   2   2  10  214.41    5.76
  -2  -2 -10  213.61    5.79
  -2   2 -11  310.05    6.44
  -2  -2 -11  317.30    7.60
   2   2  11  324.97    7.70
   2  -2  11  317.05    7.67
  -2   2 -11  307.60    7.47
  -2   2 -12    0.76    0.59
  -2   2 -12    1.20    1.02
   2  -2  12    1.54    0.86
  -2  -2 -12    2.71    1.09
   2   2  12    2.38    1.01
  -2   2 -13  572.76   10.37
  -2   2 -13  570.61   11.97
   2  -2  13  620.26   12.25
  -2  -2 -13  575.12   12.00
  -2  -2 -13  589.10   11.48
  -2   2 -14  120.78    3.75
  -2   2 -14  121.82    4.82
  -2  -2 -14  124.86    4.83
  -2  -2 -14  127.03    4.51
  -2   2 -15  248.42    5.92
  -2   2 -15  259.98    7.56
  -2  -2 -15  262.86    7.55
  -2  -2 -15  258.61    7.09
  -2   2 -16   18.32    2.18
  -2  -2 -16   18.34    2.20
  -2  -2 -17   44.95    3.24
  -2   2 -17   40.50    3.16
  -2  -2 -18   26.10    2.04
  -2   2 -18   28.13    2.78
  -2  -2 -18   28.46    2.79
  -2  -2 -19  320.73    7.82
  -2   2 -19  333.76    9.70
  -2  -2 -19  318.68    9.61
  -2  -2 -20   58.78    4.16
  -2   2 -20   58.71    4.06
  -2   2 -21   22.76    2.91
  -2  -2 -21   20.76    2.77
  -2  -2 -22   78.49    4.86
  -2   2 -22   63.84    4.46
  -2  -2 -23   21.24    2.97
  -2   2 -23   24.84    3.06
   2  -3 -26   64.35    4.57
   2   3 -25   43.36    3.96
   2  -3 -25   35.14    3.41
   2   3 -24    1.82    1.57
   2  -3 -24    3.58    1.81
   2   3 -23   23.73    2.92
   2  -3 -23   25.49    2.93
   2  -3 -22  263.72    8.55
   2   3 -22  275.78    9.12
   2   3 -21  135.46    6.02
   2  -3 -21  132.24    5.67
   2   3 -20   39.72    3.27
   2  -3 -20   35.98    2.94
   2  -3 -19    7.93    1.64
   2   3 -19    6.58    1.53
   2   3 -18   -0.42    1.37
   2  -3 -18    0.87    1.11
   2   3 -17  429.83   10.42
   2  -3 -17  428.94    9.94
  -2   3  16  199.21    5.96
   2   3 -16  182.63    6.15
   2  -3 -16  170.48    5.63
  -2   3  15   42.66    2.58
   2   3 -15   39.99    2.78
   2  -3 -15   41.39    2.53
  -2   3  14  151.15    4.81
   2  -3 -14  145.29    4.72
  -2  -3  14  157.38    5.24
   2   3 -14  150.20    5.15
   2   3 -14  158.93    5.35
   2  -3 -14  153.58    5.23
  -2  -3  13  401.83    9.02
   2   3 -13  397.35    8.95
   2  -3 -13  392.91    8.40
  -2   3  13  403.27    8.46
   2   3 -13  402.61    9.14
  -2   3  13  379.67    9.08
   2  -3 -13  412.04    9.16
   2   3 -12   27.63    2.08
  -2  -3  12   25.85    1.99
   2  -3 -12   24.55    1.74
   2   3 -12   25.36    2.06
  -2   3  12   27.81    1.83
   2   3 -12   26.64    2.03
  -2   3  12   25.59    2.03
   2  -3 -12   22.98    1.91
   2   3 -11  309.13    7.34
  -2   3  11  314.24    6.66
  -2  -3  11  319.55    7.31
   2  -3 -11  306.66    6.66
   2   3 -11  313.22    7.29
   2  -3 -11  317.23    7.37
  -2   3  11  304.59    7.29
   2   3 -11  326.70    7.39
   2   3 -10  345.73    7.60
   2  -3 -10  340.93    6.88
  -2   3  10  345.96    6.90
  -2  -3  10  356.95    7.59
   2  -3 -10  356.83    7.71
   2   3 -10  343.64    7.57
  -2   3  10  335.11    7.61
   2   3  -9  215.34    5.43
  -2   3   9  205.39    4.71
   2  -3  -9  213.05    4.77
  -2  -3   9  217.94    5.37
   2   3  -9  215.44    5.38
   2  -3  -9  222.05    5.50
  -2   3   9  219.48    5.47
   2   3  -8   10.53    1.30
   2  -3  -8   13.24    1.05
  -2   3   8   12.14    1.00
  -2  -3   8   13.68    1.32
   2  -3  -8   13.88    1.44
   2   3  -8   13.00    1.28
  -2   3   8   15.40    1.90
   2   3  -7 1200.72   18.29
  -2   3   7 1200.30   17.11
   2  -3  -7 1177.24   17.10
  -2  -3   7 1175.70   18.13
   2  -3  -7 1197.51   18.28
  -2   3   7 1182.51   18.29
   2   3  -7 1193.17   17.98
   2   3  -6 1422.65   21.13
   2  -3  -6 1426.40   19.89
  -2   3   6 1433.68   19.88
  -2  -3   6 1441.32   21.05
  -2   3   6 1440.26   21.21
   2  -3  -6 1447.82   21.23
   2   3  -6 1408.12   20.72
  -2  -3   5  568.74    9.67
   2   3  -5  579.76    9.75
   2  -3  -5  568.22    8.47
  -2   3   5  571.72    8.47
   2  -3  -5  589.66    9.75
   2   3  -5  567.58    9.25
  -2   3   5  572.07    9.73
   2   3  -4 2967.86   40.06
  -2  -3   4 2911.54   40.00
   2  -3  -4 2911.04   38.44
  -2   3   4 2935.05   40.09
   2  -3  -4 2924.96   40.05
   2   3  -4 2930.92   39.34
   2   3  -3 6500.83   86.14
  -2  -3   3 6551.66   86.11
   2  -3  -3 6501.10   84.48
   2  -3  -3 6517.71   86.12
  -2   3   3 6556.01   86.16
   2   3  -3 6539.57   85.23
  -2  -3   2 4516.68   60.59
   2   3  -2 4510.19   60.61
   2  -3  -2 4538.63   60.62
  -2   3   2 4616.57   60.64
   2   3  -2 4546.38   59.44
  -2  -3   1   67.90    2.22
   2   3  -1   67.67    2.27
   2  -3  -1   70.86    2.21
  -2   3   1   74.25    2.34
   2   3  -1   69.67    1.42
  -2  -3   0  341.44    6.21
   2   3   0  340.54    6.21
  -2   3   0  343.67    6.23
   2  -3   0  343.38    5.08
  -2   3   0  335.08    4.90
  -2  -3  -1   77.11    2.37
   2   3   1   76.45    2.43
  -2   3  -1   75.41    1.82
   2  -3   1   73.02    1.80
   2   3   2  866.01   13.14
  -2  -3  -2  830.36   13.12
   2  -3   2  853.66   12.32
  -2   3  -2  851.61   12.32
   2   3   3  146.85    3.70
  -2  -3  -3  149.20    3.72
   2  -3   3  146.53    3.27
  -2   3  -3  142.85    3.26
  -2  -3  -3  143.35    2.55
  -2  -3  -4  135.04    3.61
   2  -3   4  130.20    3.37
  -2   3  -4  137.05    3.32
   2  -3   4  129.24    3.24
  -2  -3  -4  128.90    3.56
  -2  -3  -5  298.93    6.22
   2  -3   5  294.22    5.72
   2  -3   5  293.01    5.82
  -2   3  -5  295.54    5.84
  -2  -3  -5  290.57    5.10
  -2  -3  -5  288.16    6.12
  -2  -3  -6  524.41    9.49
   2  -3   6  512.46    8.80
   2  -3   6  507.33    9.08
  -2  -3  -6  510.44    9.37
  -2   3  -6  512.12    9.10
  -2  -3  -6  512.87    8.32
  -2  -3  -7  824.51   13.84
   2  -3   7  810.92   12.93
  -2  -3  -7  812.54   13.68
  -2   3  -7  815.85   13.48
   2  -3   7  821.70   13.53
  -2  -3  -7  821.99   12.66
   2   3   7  835.68   13.85
  -2  -3  -8  532.32   10.10
   2  -3   8  522.05    9.09
  -2  -3  -8  519.97    9.96
   2  -3   8  533.57    9.92
  -2   3  -8  529.10    9.84
   2   3   8  523.00   10.02
  -2  -3  -8  521.32    9.08
   2  -3   9    6.52    1.09
  -2   3  -9    9.43    1.36
  -2  -3  -9    8.17    1.22
   2   3   9    8.34    1.19
  -2  -3  -9    8.93    1.04
  -2  -3 -10  244.20    6.37
   2  -3  10  263.69    6.52
  -2   3 -10  255.27    6.43
   2   3  10  256.00    6.50
  -2  -3 -10  251.52    5.80
   2  -3  11  391.04    8.71
  -2  -3 -11  377.82    8.64
  -2   3 -11  379.17    8.58
  -2  -3 -11  376.07    7.92
   2   3  11  397.56    8.82
  -2   3 -12   11.65    1.66
   2  -3  12   12.21    1.60
  -2  -3 -12   13.76    1.67
   2   3  12   10.85    1.41
  -2  -3 -12   10.51    1.30
  -2   3 -13  159.40    5.44
  -2  -3 -13  160.48    5.44
  -2  -3 -13  171.21    5.09
  -2   3 -14   90.11    4.14
  -2  -3 -14   81.44    3.99
  -2  -3 -14   92.62    3.77
  -2  -3 -15    1.03    1.15
  -2   3 -15    1.11    1.21
  -2  -3 -15    1.66    0.93
  -2   3 -16   14.91    2.16
  -2  -3 -16   13.45    1.98
  -2  -3 -17   45.25    3.32
  -2   3 -17   47.41    3.41
  -2   3 -18   21.47    2.57
  -2  -3 -18   22.11    2.47
  -2   3 -19  134.12    6.00
  -2  -3 -19  137.43    6.03
  -2   3 -20   53.62    3.94
  -2  -3 -20   46.65    3.72
  -2   3 -21   55.79    4.19
  -2  -3 -21   59.34    4.18
  -2  -3 -22   35.87    3.47
  -2   3 -22   35.33    3.48
  -2  -3 -23   10.72    2.33
  -2   3 -23    8.42    2.19
   2  -4 -26    4.49    2.00
   2  -4 -25   33.00    3.47
   2   4 -24    3.70    2.10
   2   4 -24    6.67    2.06
   2  -4 -24    5.40    2.02
   2   4 -23  160.22    7.17
   2   4 -23  167.73    7.20
   2  -4 -23  152.83    6.53
   2   4 -22   44.01    3.73
   2  -4 -22   46.97    3.56
   2   4 -22   41.77    3.67
   2   4 -21   18.57    2.59
   2  -4 -21   17.91    2.30
   2   4 -21   19.69    2.60
   2   4 -20   -0.75    1.55
   2   4 -20    2.52    1.52
   2  -4 -20    1.98    1.42
   2   4 -19  181.97    6.81
   2   4 -19  174.32    6.63
   2  -4 -19  179.43    6.25
   2   4 -18   98.36    4.83
   2   4 -18   98.84    4.79
   2  -4 -18  100.80    4.48
   2   4 -17    1.25    1.19
   2  -4 -17    1.09    1.08
   2   4 -17    1.05    1.41
   2   4 -16  128.65    5.20
   2  -4 -16  124.18    4.67
  -2   4  16  132.78    4.78
   2   4 -16  127.80    5.13
   2   4 -15   82.59    3.96
   2  -4 -15   77.87    3.51
  -2   4  15   86.74    3.65
   2   4 -15   80.61    3.89
   2   4 -14   52.77    3.23
  -2   4  14   64.12    2.97
   2  -4 -14   57.57    2.88
   2   4 -14   56.93    3.21
  -2   4  14   58.93    3.21
   2   4 -13  536.83   11.41
  -2   4  13  558.45   10.65
   2  -4 -13  538.73   10.52
  -2  -4  13  565.64   11.43
   2   4 -13  541.81   11.37
   2  -4 -13  579.30   11.52
  -2   4  13  538.95   11.31
   2   4 -12  404.47    9.18
  -2   4  12  407.70    8.37
   2  -4 -12  404.28    8.33
  -2  -4  12  430.94    9.24
   2  -4 -12  429.68    9.22
   2   4 -12  416.89    9.19
  -2   4  12  404.89    9.06
   2   4 -11   10.46    1.47
  -2  -4  11   13.40    1.50
   2  -4 -11   10.95    1.25
  -2   4  11   10.94    1.19
   2  -4 -11   12.53    1.42
   2   4 -11    8.88    1.24
  -2   4  11    7.84    1.32
   2   4 -10  525.27   10.49
  -2   4  10  536.57    9.50
   2  -4 -10  526.21    9.52
  -2  -4  10  549.12   10.45
   2  -4 -10  547.58   10.45
  -2   4  10  528.99   10.38
   2   4  -9  814.10   14.08
  -2   4   9  816.27   12.94
   2  -4  -9  808.57   12.92
  -2  -4   9  822.22   14.06
   2  -4  -9  838.91   14.05
  -2   4   9  804.80   13.97
   2   4  -8   17.27    1.59
   2  -4  -8   17.64    1.20
  -2  -4   8   16.64    1.44
  -2   4   8   19.28    1.63
   2  -4  -8   16.57    1.47
  -2   4   8   19.35    1.21
   2   4  -7  561.67   10.22
  -2  -4   7  571.59   10.13
   2  -4  -7  546.90    8.95
  -2   4   7  552.83    8.93
   2  -4  -7  569.98   10.12
  -2   4   7  553.22   10.09
   2   4  -6    1.05    0.78
  -2  -4   6    1.78    0.68
   2  -4  -6    2.59    0.58
  -2   4   6    1.15    0.79
   2  -4  -6    0.51    0.68
  -2   4   6    3.19    0.56
   2  -4  -5   91.81    2.25
   2   4  -5   96.05    3.11
  -2  -4   5   93.26    3.04
   2  -4  -5   96.53    2.22
   2  -4  -5   97.47    3.03
  -2   4   5   91.00    3.01
   2  -4  -4  807.78   11.58
   2   4  -4  818.32   13.10
  -2  -4   4  822.05   13.05
   2  -4  -4  814.06   11.48
   2  -4  -4  817.87   12.98
  -2   4   4  827.64   13.05
   2   4  -3 1129.54   17.06
  -2  -4   3 1151.73   17.05
   2  -4  -3 1153.45   16.97
   2  -4  -3 1099.26   15.35
   2  -4  -3 1139.43   15.32
  -2   4   3 1132.45   17.00
  -2  -4   2   37.11    1.77
   2  -4  -2   35.16    0.94
   2   4  -2   31.98    1.81
   2  -4  -2   36.51    1.69
  -2   4   2   38.38    0.97
  -2   4   2   33.77    1.78
   2   4  -1  210.81    4.70
  -2   4   1  214.10    4.69
  -2   4   1  211.91    3.33
  -2  -4   1  214.49    4.69
   2  -4  -1  209.51    3.32
   2   4   0  339.85    6.53
  -2  -4   0  346.67    6.53
  -2   4   0  332.77    6.48
   2  -4   0  340.40    5.41
  -2   4   0  347.74    5.22
  -2  -4  -1   14.16    1.15
   2   4   1   13.39    1.27
   2  -4   1   12.16    0.79
  -2   4  -1   12.45    0.74
  -2  -4  -2    5.17    0.90
   2   4   2    3.90    0.94
  -2   4  -2    4.90    0.64
  -2   4  -2    5.58    0.73
   2  -4   2    3.59    0.63
   2   4   3   36.25    1.91
  -2  -4  -3   38.25    1.87
   2  -4   3   38.38    1.55
  -2   4  -3   36.12    1.58
  -2  -4  -3   36.75    0.97
   2   4   4   71.75    2.71
  -2  -4  -4   76.14    2.71
  -2   4  -4   71.89    2.39
   2  -4   4   70.06    2.32
  -2  -4  -4   71.73    1.72
  -2  -4  -5 1158.97   17.85
   2  -4   5 1140.00   17.20
   2  -4   5 1132.44   17.29
  -2   4  -5 1158.90   17.32
  -2  -4  -5 1165.32   17.79
  -2  -4  -5 1144.14   16.16
  -2  -4  -6    2.65    0.80
   2  -4   6    1.90    0.77
   2  -4   6    2.29    0.67
  -2   4  -6    1.52    0.82
  -2  -4  -6    2.95    1.00
  -2  -4  -6    2.41    0.55
  -2  -4  -7   48.53    2.39
   2  -4   7   46.50    2.05
   2  -4   7   50.13    2.29
  -2  -4  -7   42.05    2.40
  -2   4  -7   51.61    2.42
  -2  -4  -7   48.94    1.84
  -2  -4  -8   11.71    1.32
   2  -4   8   10.43    1.17
   2  -4   8   11.08    1.31
  -2   4  -8   12.81    1.41
  -2  -4  -8   12.21    1.45
  -2  -4  -8   12.89    1.06
  -2  -4  -9   22.08    1.79
   2  -4   9   19.27    1.39
  -2   4  -9   23.13    1.80
  -2  -4  -9   20.38    1.83
   2  -4   9   19.31    1.68
  -2  -4  -9   18.45    1.35
  -2  -4 -10  191.19    5.54
   2  -4  10  178.91    4.48
   2  -4  10  181.26    5.33
  -2   4 -10  182.98    5.30
  -2  -4 -10  176.81    5.36
  -2  -4 -10  180.98    4.65
   2   4  10  184.90    5.45
  -2  -4 -11    1.96    1.05
  -2  -4 -11    1.54    1.06
   2  -4  11    1.52    0.89
  -2   4 -11    1.93    1.01
  -2  -4 -11    2.90    0.82
   2   4  11    2.08    0.95
  -2  -4 -12    0.31    0.86
  -2  -4 -12   -0.08    1.08
  -2   4 -12    1.59    1.21
   2  -4  12   -0.11    0.89
  -2  -4 -12    0.69    0.78
   2   4  12    0.17    0.90
  -2   4 -13  843.54   15.84
  -2  -4 -13  851.93   15.88
  -2  -4 -13  853.33   14.96
  -2  -4 -14  323.31    8.45
  -2   4 -14  326.93    8.51
  -2  -4 -14  314.90    7.73
  -2   4 -15  317.98    8.72
  -2  -4 -15  324.38    8.80
  -2  -4 -15  338.48    8.20
  -2  -4 -16    1.41    1.33
  -2   4 -16    2.39    1.47
  -2  -4 -17   -1.50    1.49
  -2   4 -17    4.30    1.70
  -2  -4 -18  166.40    6.47
  -2   4 -18  164.74    6.51
  -2  -4 -19  278.61    8.84
  -2   4 -19  276.13    8.94
  -2  -4 -20    2.55    1.70
  -2   4 -20    2.21    1.58
  -2  -4 -21    6.24    1.85
  -2   4 -21    4.02    1.75
  -2  -4 -22   16.23    2.60
  -2   4 -22   20.60    2.92
  -2  -4 -23   55.90    4.41
  -2   4 -23   45.17    3.96
   2  -5 -26   15.56    2.55
   2  -5 -25   48.22    3.98
   2   5 -24    0.94    1.64
   2  -5 -24    1.05    1.53
   2   5 -23   -0.94    1.64
   2  -5 -23   -1.56    1.57
   2   5 -22    1.99    1.63
   2  -5 -22    1.50    1.39
   2   5 -21  205.69    7.75
   2  -5 -21  190.15    6.96
   2   5 -20  105.46    5.35
   2  -5 -20  102.45    4.91
   2   5 -19  195.71    7.21
   2  -5 -19  194.31    6.57
   2   5 -18    8.04    1.75
   2  -5 -18    7.73    1.70
   2   5 -17   48.02    3.30
   2  -5 -17   45.49    2.94
   2   5 -16   21.55    2.33
   2  -5 -16   16.14    1.86
  -2   5  16   16.93    1.79
   2   5 -15  166.75    5.93
   2  -5 -15  165.87    5.27
  -2   5  15  171.86    5.30
  -2   5  15  170.41    5.82
   2   5 -14   -0.57    1.09
   2  -5 -14    0.73    0.91
  -2   5  14    0.49    0.77
  -2   5  14    0.42    1.00
   2   5 -13   25.74    2.22
  -2  -5  13   27.31    2.19
   2  -5 -13   25.66    1.92
  -2   5  13   27.39    2.27
   2  -5 -13   25.06    2.05
  -2   5  13   27.97    1.94
   2   5 -12   97.05    4.02
  -2  -5  12   99.44    3.97
   2  -5 -12   93.99    3.43
   2  -5 -12   93.67    3.81
  -2   5  12   96.54    3.41
  -2   5  12   92.90    3.83
   2   5 -11  707.52   13.37
   2  -5 -11  698.88   12.13
  -2  -5  11  745.74   13.45
   2  -5 -11  711.75   13.13
  -2   5  11  696.95   12.11
  -2   5  11  693.68   13.10
   2   5 -10    0.56    0.89
   2  -5 -10    0.21    0.66
  -2  -5  10    0.32    0.81
   2  -5 -10    1.48    0.79
  -2   5  10    1.37    0.68
  -2   5  10    1.08    0.98
   2   5  -9  336.45    7.66
  -2  -5   9  336.88    7.63
   2  -5  -9  341.17    6.64
  -2   5   9  339.22    7.53
  -2   5   9  333.63    6.58
   2  -5  -9  343.52    7.56
   2   5  -8  149.56    4.52
   2  -5  -8  144.87    3.62
  -2  -5   8  146.24    4.45
  -2   5   8  145.05    4.37
   2  -5  -8  155.25    4.43
   2  -5  -7  950.93   14.52
   2   5  -7  974.38   15.93
  -2  -5   7  979.55   15.88
   2  -5  -7  948.43   14.38
  -2  -5   7  982.90   15.86
   2  -5  -7  952.92   15.63
  -2   5   7  985.36   15.75
   2  -5  -6   49.72    1.79
  -2  -5   6   51.61    2.41
   2   5  -6   55.58    2.51
   2  -5  -6   50.70    1.74
  -2   5   6   49.48    2.33
   2  -5  -6   54.86    2.40
   2  -5  -5  641.18   10.00
  -2  -5   5  657.56   11.43
   2   5  -5  687.94   11.57
   2  -5  -5  661.67    9.91
   2  -5  -5  668.33   11.28
  -2   5   5  652.88   11.29
   2   5  -4  333.70    6.95
  -2  -5   4  345.06    6.95
   2  -5  -4  341.78    5.63
   2  -5  -4  342.49    6.81
  -2   5   4  339.24    6.84
   2  -5  -4  340.41    5.56
  -2   5   3   15.27    1.40
  -2   5   3   13.92    0.77
   2  -5  -3   15.28    1.27
   2  -5  -3   14.65    0.77
   2   5  -3   16.11    1.44
  -2  -5   3   14.68    1.27
   2  -5  -2  645.80   10.65
  -2   5   2  642.45   10.66
   2   5  -2  631.65   10.77
  -2   5   2  635.53    9.10
  -2  -5   2  635.22   10.72
   2  -5  -2  609.83    9.08
  -2   5   1   30.65    1.70
   2   5  -1   32.14    1.80
  -2   5   1   29.97    1.06
  -2  -5   1   32.68    1.76
   2  -5  -1   29.40    1.03
  -2  -5   0   33.43    1.79
  -2   5   0   37.86    1.88
   2   5   0   37.23    1.92
   2  -5   0   31.48    1.23
  -2   5   0   33.79    1.18
   2  -5   0   32.13    1.13
  -2  -5  -1   56.99    2.30
   2   5   1   52.57    2.33
   2  -5   1   55.37    1.79
  -2   5  -1   56.27    1.67
  -2  -5  -2  318.44    6.52
   2   5   2  316.38    6.55
  -2   5  -2  308.50    5.50
   2  -5   2  311.66    5.67
  -2  -5  -3  134.18    3.85
   2   5   3  132.55    3.85
  -2   5  -3  139.15    3.23
   2  -5   3  134.41    3.33
  -2  -5  -3  128.83    2.33
   2   5   4  150.29    4.28
  -2  -5  -4  153.56    4.28
  -2   5  -4  150.68    3.71
   2  -5   4  150.85    3.81
  -2   5  -4  158.55    3.85
  -2  -5  -4  155.05    2.88
   2   5   5   13.88    1.42
  -2  -5  -5   14.05    1.35
  -2   5  -5   11.64    1.20
   2  -5   5   14.65    1.27
  -2  -5  -5   13.34    1.46
  -2  -5  -5   12.78    0.81
  -2  -5  -6   39.98    2.19
   2  -5   6   41.85    2.09
  -2   5  -6   44.49    2.19
  -2  -5  -6   39.01    2.18
  -2  -5  -6   40.01    1.53
  -2  -5  -7   21.74    1.70
   2  -5   7   16.63    1.32
  -2   5  -7   17.43    1.53
   2  -5   7   15.45    1.39
  -2  -5  -7   18.36    1.71
  -2  -5  -7   14.79    1.06
  -2  -5  -8  131.85    4.32
   2  -5   8  123.11    3.64
  -2  -5  -8  127.14    4.19
   2  -5   8  125.66    4.05
  -2   5  -8  131.62    4.13
  -2  -5  -8  122.05    3.31
  -2  -5  -9   78.83    3.39
   2  -5   9   75.79    2.79
   2  -5   9   81.41    3.33
  -2  -5  -9   81.45    3.37
  -2   5  -9   76.58    3.26
  -2  -5  -9   76.86    2.68
  -2  -5 -10    4.50    1.09
   2  -5  10    3.96    0.92
  -2  -5 -10    3.01    1.00
  -2   5 -10    5.09    1.20
   2  -5  10    5.83    1.06
  -2  -5 -10    3.28    0.78
  -2  -5 -11   53.43    2.96
   2  -5  11   51.06    2.34
   2  -5  11   53.38    3.01
  -2   5 -11   54.85    2.97
  -2  -5 -11   50.06    3.00
  -2  -5 -11   54.58    2.50
  -2  -5 -12   56.10    3.21
   2  -5  12   64.98    3.36
  -2   5 -12   62.84    3.26
  -2  -5 -12   57.58    2.69
  -2  -5 -13  276.48    7.59
  -2   5 -13  276.77    7.59
  -2  -5 -13  279.43    6.83
  -2   5 -14  161.62    5.80
  -2  -5 -14  154.75    5.66
  -2  -5 -14  166.61    5.16
  -2   5 -15  256.09    7.78
  -2  -5 -15  254.56    7.68
  -2  -5 -15  260.22    6.99
  -2   5 -16  258.29    8.02
  -2  -5 -16  265.24    8.02
  -2  -5 -17  372.42   10.02
  -2   5 -17  363.49   10.01
  -2  -5 -18   17.43    2.27
  -2   5 -18   13.73    2.17
  -2  -5 -19   55.07    3.96
  -2   5 -19   59.42    4.03
  -2  -5 -20    2.03    1.69
  -2   5 -20    0.74    1.53
  -2  -5 -21  270.32    9.30
  -2   5 -21  276.15    9.47
  -2  -5 -22   -0.73    1.59
  -2   5 -22    2.59    2.01
  -2  -5 -23    8.25    2.24
   2  -6 -25    7.64    1.83
   2  -6 -24   15.52    2.39
   2   6 -23  166.53    7.38
   2  -6 -23  151.50    6.52
   2   6 -22   71.51    4.79
   2  -6 -22   65.04    4.07
   2   6 -21    0.69    1.58
   2  -6 -21   -1.52    1.44
   2   6 -20   17.38    2.40
   2  -6 -20   23.94    2.41
   2   6 -19  135.95    6.00
   2  -6 -19  127.85    5.26
   2   6 -18  135.43    5.88
   2  -6 -18  136.65    5.31
   2   6 -17    0.12    1.26
   2  -6 -17    1.93    1.17
   2   6 -16   13.40    1.94
   2  -6 -16   13.82    1.68
  -2   6  16   13.06    1.80
   2   6 -15  217.33    6.97
   2  -6 -15  210.50    6.05
  -2   6  15  216.37    6.13
  -2   6  15  203.32    6.61
   2   6 -14  225.04    6.93
   2  -6 -14  218.42    6.01
  -2   6  14  224.04    6.71
  -2   6  14  215.54    6.00
   2   6 -13  356.20    8.86
   2  -6 -13  348.14    7.82
  -2   6  13  336.93    8.46
   2  -6 -13  357.81    8.59
  -2   6  13  356.78    7.88
   2   6 -12   44.72    2.85
  -2  -6  12   44.58    1.18
  -2  -6  12   47.32    2.81
   2  -6 -12   45.81    2.40
  -2   6  12   44.05    2.68
  -2   6  12   47.73    2.41
   2  -6 -12   46.26    2.73
   2   6 -11   37.82    2.55
   2  -6 -11   39.67    2.12
  -2  -6  11   43.84    2.67
   2  -6 -11   46.21    2.62
  -2   6  11   42.76    2.59
   2  -6 -10  164.84    4.48
   2   6 -10  165.42    5.24
  -2  -6  10  176.23    5.34
   2  -6 -10  164.08    4.36
  -2   6  10  162.99    5.06
   2  -6 -10  171.88    5.11
   2  -6  -9  530.53    9.60
   2   6  -9  534.68   10.76
   2  -6  -9  531.96    9.41
  -2  -6   9  549.00   10.77
  -2   6   9  541.85   10.52
   2  -6  -9  533.47   10.46
   2  -6  -8  135.69    3.65
   2   6  -8  139.26    4.48
  -2  -6   8  143.77    4.50
   2  -6  -8  135.53    3.57
   2  -6  -8  147.55    4.38
  -2   6   8  131.03    4.25
   2  -6  -7  128.26    3.38
   2   6  -7  131.07    4.23
  -2  -6   7  135.00    4.25
   2  -6  -7  130.86    3.33
  -2  -6   7  136.32    4.28
  -2   6   7  126.11    4.05
   2  -6  -7  132.38    4.06
   2  -6  -6   79.94    2.41
   2   6  -6   82.71    3.28
  -2  -6   6   86.18    3.22
   2  -6  -6   78.04    2.34
   2  -6  -6   79.17    3.00
  -2   6   6   83.18    3.11
  -2  -6   5 1025.35   16.45
   2   6  -5  998.85   16.46
   2  -6  -5 1011.53   14.79
   2  -6  -5 1015.10   16.13
  -2   6   5 1007.82   16.16
   2  -6  -5  997.86   14.68
  -2  -6   4  152.95    4.32
   2   6  -4  142.61    4.37
   2  -6  -4  152.99    4.17
   2  -6  -4  150.31    3.25
  -2   6   4  157.14    4.22
   2   6  -3  616.43   10.82
  -2  -6   3  606.19   10.74
  -2   6   3  607.31    9.13
   2  -6  -3  579.75    9.09
   2  -6  -3  593.03   10.50
  -2   6   3  614.56   10.56
  -2  -6   2   34.71    1.92
   2  -6  -2   32.60    1.25
  -2   6   2   32.71    1.87
   2   6  -2   33.45    1.94
  -2   6   2   34.86    1.27
  -2  -6   1  806.71   13.22
   2  -6  -1  775.08   11.53
  -2   6   1  795.54   13.03
   2   6  -1  781.69   13.19
  -2   6   1  800.84   11.57
   2  -6   0   41.34    1.47
  -2  -6   0   42.93    2.15
   2   6   0   41.86    2.16
   2   6   0   40.76    1.13
  -2   6   0   40.62    1.44
  -2   6   0   41.32    2.10
  -2  -6  -1 1195.33   18.21
   2   6   1 1193.30   18.23
  -2   6  -1 1191.16   16.71
   2  -6   1 1154.26   16.91
   2   6   1 1147.23   15.70
   2   6   2   30.61    1.89
  -2  -6  -2   39.49    2.04
  -2   6  -2   35.14    1.53
   2  -6   2   34.70    1.61
   2   6   2   34.85    0.95
  -2  -6  -3  430.75    8.27
  -2  -6  -3  403.55    6.09
   2   6   3  415.26    8.19
  -2   6  -3  429.41    7.32
   2  -6   3  408.96    7.46
   2   6   3  406.32    6.12
   2   6   4   31.16    2.00
  -2  -6  -4   29.71    1.91
  -2   6  -4   29.75    1.57
   2  -6   4   32.94    1.74
   2   6   4   32.68    1.11
  -2  -6  -4   28.32    1.08
   2   6   5  398.30    8.28
  -2  -6  -5  406.72    8.35
  -2   6  -5  405.09    7.59
   2  -6   5  400.58    7.79
  -2  -6  -5  392.36    6.42
  -2  -6  -6   -0.83    0.84
  -2   6  -6    0.23    0.70
   2  -6   6   -0.05    0.79
  -2   6  -6    0.77    0.81
  -2  -6  -6    0.63    0.45
  -2  -6  -6   -0.72    0.96
  -2  -6  -7  251.29    6.25
   2  -6   7  233.40    5.79
  -2   6  -7  229.67    5.73
  -2  -6  -7  242.12    6.11
  -2  -6  -7  232.15    4.73
  -2  -6  -8    0.96    0.80
   2  -6   8    1.38    0.78
  -2   6  -8   -1.06    1.05
   2  -6   8    1.18    0.84
  -2  -6  -8    0.85    0.52
  -2  -6  -8   -0.56    1.03
  -2  -6  -9  240.44    6.54
   2  -6   9  234.86    5.56
  -2   6  -9  239.61    6.27
   2  -6   9  253.22    6.43
  -2  -6  -9  243.44    6.44
  -2  -6  -9  233.90    5.25
  -2  -6 -10   46.43    2.73
   2  -6  10   44.37    2.19
   2  -6  10   42.36    2.54
  -2   6 -10   45.40    2.62
  -2  -6 -10   46.17    2.76
  -2  -6 -10   44.06    2.11
  -2  -6 -11   65.30    3.38
   2  -6  11   65.75    2.70
   2  -6  11   68.14    3.34
  -2  -6 -11   62.49    3.27
  -2   6 -11   63.96    3.27
  -2  -6 -11   65.89    2.72
   2  -6  12    2.05    0.83
  -2  -6 -12    2.50    1.23
  -2   6 -12    3.36    1.33
  -2  -6 -12    1.63    0.73
   2  -6  13  972.33   15.86
  -2  -6 -13  962.33   17.88
  -2   6 -13  960.49   17.78
  -2  -6 -13  985.24   16.52
  -2  -6 -14   73.79    3.90
  -2   6 -14   74.73    3.89
  -2  -6 -14   73.69    3.32
  -2   6 -15   57.52    3.57
  -2  -6 -15   58.98    3.60
  -2  -6 -15   56.91    3.05
  -2   6 -16   25.79    2.64
  -2  -6 -16   24.38    2.51
  -2   6 -17   51.22    3.59
  -2  -6 -17   50.13    3.57
  -2   6 -18   93.34    4.89
  -2  -6 -18   82.25    4.67
  -2  -6 -19   13.13    2.19
  -2   6 -19   12.33    2.24
  -2   6 -20   -0.58    1.56
  -2  -6 -20   -0.27    1.44
  -2   6 -21    0.71    1.61
  -2  -6 -21   -0.77    1.68
  -2   6 -22   28.26    3.20
  -2  -6 -22   24.00    2.96
   2  -7 -25    0.55    1.55
   2  -7 -24   -0.41    1.42
   2   7 -23   13.15    2.50
   2  -7 -23   15.37    2.28
   2   7 -22   81.30    5.14
   2  -7 -22   89.26    4.81
   2   7 -21    9.77    2.03
   2  -7 -21    8.31    1.77
   2   7 -20   14.80    2.46
   2  -7 -20   15.26    2.10
   2   7 -19   23.27    2.72
   2  -7 -19   21.65    2.32
   2   7 -18   19.10    2.44
   2  -7 -18   17.94    2.02
   2   7 -17    2.52    1.45
   2  -7 -17    1.13    1.06
   2   7 -16  173.40    6.40
   2  -7 -16  174.16    5.62
  -2   7  16  163.48    6.05
   2  -7 -15    7.83    1.37
   2   7 -15   14.72    2.11
   2  -7 -15   14.53    1.69
  -2   7  15   12.16    1.82
   2  -7 -14   -0.53    0.81
  -2  -7  14    0.49    0.23
   2   7 -14    0.03    1.22
   2  -7 -14    0.15    0.89
  -2   7  14    1.70    1.25
   2  -7 -13   67.31    3.10
   2   7 -13   65.62    3.60
  -2  -7  13   66.22    1.68
   2  -7 -13   63.38    2.97
  -2   7  13   65.31    3.45
   2  -7 -12  152.39    4.73
   2   7 -12  157.73    5.54
   2  -7 -12  160.45    4.69
  -2   7  12  156.81    5.24
   2  -7 -12  160.25    5.26
   2  -7 -11  268.88    6.43
   2   7 -11  272.12    7.38
   2  -7 -11  272.38    6.30
  -2  -7  11  276.96    7.39
  -2   7  11  268.37    7.09
   2  -7 -11  275.81    7.07
   2  -7 -10  121.27    3.82
   2   7 -10  131.45    4.75
   2  -7 -10  121.97    3.75
  -2  -7  10  128.56    4.65
   2  -7 -10  128.70    4.42
  -2   7  10  115.51    4.26
   2  -7  -9   79.40    2.87
   2   7  -9   74.90    3.42
  -2  -7   9   83.32    3.56
   2  -7  -9   75.57    2.76
   2  -7  -9   79.11    3.31
  -2   7   9   75.23    3.30
   2  -7  -8   16.31    1.27
   2  -7  -8   14.22    1.44
   2   7  -8   12.90    1.62
  -2  -7   8   19.27    1.71
   2  -7  -8   14.66    1.19
  -2  -7   8   15.45    1.68
  -2   7   8   14.99    1.58
   2  -7  -7  478.07    8.45
   2   7  -7  467.40    9.75
  -2  -7   7  493.79    9.86
   2  -7  -7  468.72    8.32
   2  -7  -7  467.74    9.44
  -2   7   7  469.46    9.40
  -2  -7   6  797.83   14.08
   2   7  -6  800.91   14.11
   2  -7  -6  781.59   12.49
   2  -7  -6  808.73   13.71
   2  -7  -6  804.81   12.41
  -2   7   6  793.24   13.68
  -2  -7   5  773.22   13.57
   2   7  -5  783.96   13.64
   2  -7  -5  767.33   13.22
   2  -7  -5  755.99   11.93
  -2   7   5  779.07   13.25
   2  -7  -5  771.82   11.90
   2   7  -4  229.47    5.81
  -2  -7   4  233.82    5.82
   2  -7  -4  225.01    4.58
   2  -7  -4  227.78    5.56
  -2   7   4  231.54    4.60
  -2   7   4  230.08    5.59
   2  -7  -3  297.13    5.50
  -2  -7   3  308.98    6.92
   2  -7  -3  308.54    6.64
  -2   7   3  300.92    5.50
   2   7  -3  302.74    6.89
  -2   7   3  305.83    6.66
   2  -7  -2  283.97    5.29
  -2  -7   2  290.34    6.64
   2   7  -2  301.78    6.72
  -2   7   2  294.67    5.35
  -2   7   2  293.03    6.45
  -2  -7   1    0.22    0.82
   2  -7  -1    1.28    0.46
   2   7  -1    0.36    0.94
  -2   7   1    2.74    1.03
  -2   7   1    1.22    0.50
   2  -7   0   97.15    2.61
  -2  -7   0   99.79    3.48
   2   7   0   99.31    3.49
  -2   7   0   99.58    3.37
   2   7   0   99.50    2.21
  -2   7   0   98.10    2.62
   2   7   1  187.95    5.03
  -2  -7  -1  178.07    4.91
   2  -7   1  177.26    3.94
  -2   7  -1  187.72    4.03
   2  -7   1  178.84    4.14
   2   7   1  184.26    3.27
  -2  -7  -2  806.49   13.63
   2   7   2  777.41   13.50
  -2   7  -2  794.48   12.28
   2  -7   2  780.06   12.49
   2   7   2  779.08   11.09
   2   7   3  119.83    3.96
  -2  -7  -3  118.95    3.94
  -2   7  -3  118.90    3.29
   2  -7   3  117.99    3.42
   2   7   3  117.77    2.43
   2   7   4   99.61    3.60
  -2  -7  -4   98.02    3.59
  -2  -7  -4   96.64    2.24
  -2   7  -4  104.75    3.16
   2  -7   4   98.74    3.22
   2   7   4   99.62    2.27
   2   7   5  275.02    6.67
  -2  -7  -5  270.68    4.86
  -2  -7  -5  283.82    6.75
  -2   7  -5  284.64    6.04
   2  -7   5  274.36    6.17
   2   7   5  268.44    4.85
  -2  -7  -6  399.29    8.73
   2   7   6  397.21    8.64
  -2   7  -6  422.85    8.17
   2  -7   6  400.50    8.23
  -2  -7  -6  396.75    8.58
  -2  -7  -6  399.82    6.81
  -2  -7  -7 1114.44   18.41
  -2   7  -7 1076.42   17.56
   2  -7   7 1099.54   17.83
  -2  -7  -7 1079.79   18.14
  -2  -7  -7 1090.91   16.10
  -2  -7  -8   10.88    1.43
  -2   7  -8    7.76    1.25
   2  -7   8    8.99    1.21
  -2   7  -8    7.34    1.32
  -2  -7  -8    8.32    0.88
  -2  -7  -8   10.52    1.56
  -2  -7  -9    7.85    1.33
  -2   7  -9    6.69    1.15
   2  -7   9    9.43    1.23
  -2   7  -9    7.05    1.28
   2  -7   9    8.46    1.26
  -2  -7  -9    7.78    1.39
  -2  -7  -9    9.31    1.01
  -2  -7 -10  115.01    4.47
   2  -7  10  104.06    3.57
  -2   7 -10  103.75    4.02
   2  -7  10  117.01    4.36
  -2  -7 -10  110.20    4.31
  -2   7 -10  107.33    4.20
  -2  -7 -10  109.20    3.42
   2  -7  11   39.88    2.20
  -2   7 -11   44.09    2.83
   2  -7  11   47.54    2.91
  -2  -7 -11   40.17    2.79
  -2  -7 -11   41.85    2.16
   2  -7  12  109.66    3.71
  -2   7 -12  104.50    4.43
  -2  -7 -12  106.15    4.52
  -2  -7 -12  113.23    3.82
   2  -7  13    2.00    0.79
  -2   7 -13    3.27    1.49
  -2  -7 -13    3.32    1.37
  -2  -7 -13    5.32    1.10
   2  -7  14   21.25    1.67
  -2   7 -14   18.47    2.11
  -2  -7 -14   20.36    2.24
  -2  -7 -14   22.44    1.84
  -2  -7 -15   40.98    3.06
  -2   7 -15   41.61    3.17
  -2  -7 -15   38.99    2.50
  -2  -7 -16    4.68    1.57
  -2   7 -16    7.13    1.71
  -2   7 -17  161.11    6.46
  -2  -7 -17  167.74    6.56
  -2  -7 -18   56.98    3.95
  -2   7 -18   57.40    4.01
  -2  -7 -19   10.34    2.15
  -2   7 -19   14.08    2.34
  -2  -7 -20   21.47    2.73
  -2   7 -20   24.96    2.97
  -2   7 -21  123.67    6.33
  -2  -7 -21  130.27    6.39
  -2  -7 -22   67.50    4.71
   2  -8 -25   21.59    2.84
   2  -8 -24   20.48    2.69
   2  -8 -23    9.78    2.10
   2   8 -22   13.14    2.44
   2  -8 -22   15.66    2.27
   2   8 -21    9.16    2.15
   2  -8 -21   10.79    1.96
   2   8 -20   17.54    2.67
   2  -8 -20   16.07    2.09
   2   8 -19   44.60    3.67
   2  -8 -19   36.72    2.95
   2   8 -18  250.47    8.42
   2  -8 -18  238.39    7.32
   2   8 -17    9.79    3.13
   2  -8 -17    9.76    1.60
  -2   8  17   13.80    1.98
   2   8 -16    5.01    1.62
   2  -8 -16    4.61    1.43
  -2   8  16    3.39    1.41
   2   8 -15   19.93    2.36
  -2  -8  15   21.79    0.84
   2  -8 -15   20.18    1.99
  -2   8  15   22.76    2.29
   2  -8 -14   56.40    3.00
   2   8 -14   51.00    3.42
  -2  -8  14   52.95    1.60
   2  -8 -14   57.75    2.97
  -2   8  14   52.76    3.25
   2  -8 -13   68.22    3.21
   2   8 -13   73.10    3.91
   2  -8 -13   72.29    3.22
  -2   8  13   69.52    3.67
   2  -8 -12    8.96    1.48
   2  -8 -12    6.94    1.16
   2   8 -12    6.39    1.40
   2  -8 -12    6.69    1.14
  -2   8  12    6.54    1.33
   2  -8 -11    8.99    1.31
   2  -8 -11    8.67    1.17
   2   8 -11   10.95    1.69
   2  -8 -11    9.41    1.20
  -2   8  11    8.56    1.41
   2  -8 -10  651.54   11.75
   2   8 -10  655.23   13.13
   2  -8 -10  638.77   11.52
   2  -8 -10  690.20   12.75
  -2   8  10  634.14   12.54
   2  -8  -9  273.94    6.31
   2   8  -9  284.53    7.47
  -2  -8   9  297.11    7.56
   2  -8  -9  274.04    6.14
  -2   8   9  283.11    7.07
   2  -8  -9  287.62    7.07
   2  -8  -8  163.05    4.91
   2  -8  -8  152.62    4.19
  -2  -8   8  159.63    5.15
   2   8  -8  160.18    5.19
  -2  -8   8  157.77    5.12
   2  -8  -8  153.95    4.10
  -2   8   8  147.91    4.80
  -2  -8   7   16.36    1.61
   2   8  -7   15.08    1.67
   2  -8  -7   17.18    1.30
   2  -8  -7   17.15    1.60
   2  -8  -7   16.68    1.28
  -2   8   7   15.79    1.57
  -2  -8   6   55.26    2.79
   2   8  -6   48.52    2.71
   2  -8  -6   49.42    2.49
   2  -8  -6   47.13    2.00
   2  -8  -6   45.42    1.96
  -2   8   6   44.28    2.46
  -2  -8   5    1.33    0.85
   2   8  -5    1.95    0.99
   2  -8  -5    2.44    0.87
   2  -8  -5    1.85    0.65
  -2   8   5    1.13    0.89
   2   8  -4  103.01    3.88
  -2  -8   4  107.73    3.88
  -2   8   4   99.60    2.85
   2  -8  -4  100.39    2.87
   2  -8  -4  101.19    3.58
  -2   8   4   98.63    3.55
  -2  -8   3  318.72    7.25
   2  -8  -3  300.69    5.83
  -2   8   3  305.46    5.83
   2   8  -3  312.68    7.18
  -2   8   3  297.59    6.83
   2  -8  -2  259.51    5.25
  -2  -8   2  280.81    6.62
  -2   8   2  271.90    6.34
   2   8  -2  279.55    6.63
  -2   8   2  267.98    5.31
   2  -8  -1   -0.34    0.47
  -2  -8   1    0.19    0.80
   2   8  -1    0.20    0.90
  -2   8   1    1.91    0.99
  -2   8   1   -0.07    0.53
   2  -8   0  505.07    8.74
  -2  -8   0  533.57   10.26
   2   8   0  534.82   10.24
  -2   8   0  522.68    8.85
   2   8   0  525.43    8.16
  -2   8   0  516.62    9.94
   2  -8   1   26.41    1.46
  -2   8  -1   28.57    1.51
  -2  -8  -1   26.09    1.91
   2   8   1   27.83    1.99
  -2   8  -1   23.45    1.82
   2   8   1   26.83    1.10
   2   8   2   57.71    2.82
  -2  -8  -2   62.65    2.82
  -2   8  -2   58.66    2.24
   2  -8   2   53.59    2.28
   2   8   2   56.46    1.63
  -2  -8  -3   45.33    2.52
   2   8   3   47.38    2.55
  -2   8  -3   51.26    2.16
   2  -8   3   46.99    2.20
   2   8   3   49.46    1.52
  -2  -8  -4  123.28    4.23
   2   8   4  125.07    4.23
  -2   8  -4  117.54    3.59
   2  -8   4  117.64    3.70
   2   8   4  116.77    2.68
  -2  -8  -5    5.94    0.67
   2   8   5    5.82    1.22
  -2  -8  -5    4.17    1.02
  -2   8  -5    8.91    1.22
   2  -8   5    5.92    0.99
   2   8   5    6.76    0.68
   2   8   6  493.74   10.24
  -2  -8  -6  509.64   10.37
  -2  -8  -6  484.88    8.07
  -2   8  -6  501.28    9.50
   2  -8   6  487.78    9.68
   2   8   6  488.70    8.10
  -2  -8  -7   24.34    2.01
  -2   8  -7   27.57    1.91
   2  -8   7   26.52    1.95
  -2  -8  -7   26.73    1.39
  -2  -8  -7   27.14    2.18
  -2  -8  -8   10.70    1.42
  -2   8  -8   11.28    1.35
   2  -8   8   10.57    1.37
  -2  -8  -8   12.38    1.57
  -2  -8  -8   11.53    1.04
  -2  -8  -9   48.53    2.86
  -2   8  -9   50.78    2.75
   2  -8   9   55.47    2.96
  -2  -8  -9   50.11    2.16
  -2  -8  -9   46.17    2.88
   2  -8  10  249.56    6.14
  -2   8 -10  250.76    6.74
   2  -8  10  254.86    7.00
  -2  -8 -10  246.69    6.99
  -2  -8 -10  243.14    5.65
  -2   8 -11   38.53    2.62
   2  -8  11   37.32    2.21
  -2  -8 -11   41.82    2.84
  -2  -8 -11   38.70    2.10
   2  -8  12   26.36    1.90
  -2   8 -12   28.02    2.37
  -2  -8 -12   25.21    2.37
  -2   8 -12   26.38    2.33
  -2  -8 -12   26.60    1.85
  -2   8 -13  600.40   12.77
   2  -8  13  604.56   11.35
  -2  -8 -13  600.35   12.99
  -2   8 -13  606.93   12.99
  -2  -8 -13  589.26   11.37
   2  -8  14  209.59    5.63
  -2   8 -14  199.91    6.73
  -2  -8 -14  199.64    6.81
  -2   8 -14  215.37    7.05
  -2  -8 -14  209.53    5.87
  -2   8 -15  133.99    5.56
   2  -8  15  118.63    4.08
  -2  -8 -15  127.13    5.42
  -2   8 -15  124.05    5.42
  -2  -8 -15  121.31    4.49
  -2   8 -16   17.65    2.30
  -2  -8 -16   15.95    2.22
  -2   8 -16   15.41    2.27
  -2   8 -17   45.78    3.42
  -2   8 -17   46.10    3.58
  -2  -8 -17   43.31    3.39
  -2   8 -18  219.16    7.92
  -2   8 -18  229.82    8.24
  -2  -8 -18  223.85    7.97
  -2   8 -19   78.88    4.83
  -2   8 -19   74.53    4.73
  -2  -8 -19   71.16    4.50
  -2   8 -20   64.95    4.51
  -2   8 -20   71.08    4.75
  -2  -8 -20   62.89    4.43
  -2   8 -21   14.47    2.48
  -2  -8 -21   15.95    2.55
  -2   8 -21   15.26    2.61
   2  -9 -25   30.13    3.23
   2  -9 -24    0.50    1.41
   2  -9 -23   29.69    3.20
   2  -9 -22   22.70    2.63
   2   9 -21    2.13    1.58
   2  -9 -21    1.12    1.40
   2   9 -20  149.16    6.84
   2  -9 -20  151.35    6.21
   2   9 -19    0.42    1.47
   2  -9 -19    0.54    1.34
   2   9 -18   -0.54    1.57
   2  -9 -18    0.07    1.13
   2   9 -17   30.29    2.90
   2  -9 -17   26.14    2.34
  -2   9  17   26.35    2.61
  -2  -9  16  142.63    2.76
   2   9 -16  138.86    6.02
   2  -9 -16  139.75    5.15
  -2   9  16  131.67    5.55
   2   9 -15    6.54    1.68
  -2  -9  15    7.73    0.69
   2  -9 -15    7.67    1.42
  -2   9  15    8.42    1.70
   2  -9 -14   32.89    2.36
   2   9 -14   39.24    3.07
   2  -9 -14   36.59    2.49
  -2   9  14   36.17    2.75
   2  -9 -13   79.83    3.54
   2   9 -13   78.91    4.08
   2  -9 -13   76.04    3.34
  -2   9  13   73.86    3.79
   2  -9 -12   29.53    2.12
   2   9 -12   29.87    2.57
   2  -9 -12   29.09    2.07
  -2   9  12   24.83    2.25
   2  -9 -11   33.32    2.17
   2   9 -11   33.35    2.59
   2  -9 -11   32.70    2.07
   2  -9 -11   35.31    2.47
  -2   9  11   31.09    2.44
   2  -9 -10   82.19    3.42
   2   9 -10   84.36    4.01
   2  -9 -10   80.30    3.14
   2  -9 -10   85.13    3.68
  -2   9  10   86.68    3.89
   2   9  -9   -1.12    1.10
   2  -9  -9    0.84    0.67
   2  -9  -9   -0.29    0.83
  -2   9   9   -0.38    0.95
   2  -9  -9    0.48    0.67
   2  -9  -8   78.32    3.42
   2  -9  -8   78.54    2.96
  -2  -9   8   80.38    3.73
   2   9  -8   86.26    3.86
  -2  -9   8   82.66    3.78
   2  -9  -8   80.58    2.97
  -2   9   8   77.25    3.48
   2   9  -7   47.14    2.80
  -2  -9   7   47.94    2.77
   2  -9  -7   47.98    2.60
   2  -9  -7   46.43    2.15
   2  -9  -7   49.17    2.18
  -2   9   7   41.66    2.46
   2   9  -6  494.70   10.54
  -2  -9   6  505.02   10.57
   2  -9  -6  510.93   10.19
   2  -9  -6  494.29    9.09
   2  -9  -6  500.05    9.03
  -2   9   6  501.30   10.12
  -2  -9   5  577.22   11.43
   2   9  -5  552.12   11.43
  -2   9   5  569.87    9.85
   2  -9  -5  569.93   10.96
   2  -9  -5  562.71    9.83
  -2   9   5  558.93   10.89
   2  -9  -4  147.43    3.83
  -2  -9   4  148.94    4.88
  -2   9   4  143.28    3.77
   2   9  -4  154.30    4.95
  -2   9   4  143.64    4.52
  -2  -9   3   40.07    2.41
   2  -9  -3   35.47    1.72
  -2   9   3   40.55    1.81
   2   9  -3   37.12    2.38
  -2   9   3   35.44    2.18
   2  -9  -2  269.05    5.63
  -2  -9   2  272.23    6.86
   2   9  -2  282.34    7.00
  -2   9   2  276.97    6.62
  -2   9   2  276.82    5.67
  -2  -9   1  123.33    4.32
   2  -9  -1  117.52    3.33
  -2   9   1  120.00    3.34
   2   9  -1  124.98    4.34
  -2   9   1  121.96    4.10
  -2  -9   0  101.24    3.81
   2  -9   0   92.66    2.92
   2   9   0  100.05    3.82
  -2   9   0   94.16    3.58
   2   9   0   95.79    2.53
  -2   9   0   98.48    3.02
  -2  -9  -1   59.63    2.94
   2  -9   1   55.85    2.26
  -2   9  -1   61.73    2.86
  -2   9  -1   57.83    2.30
   2   9   1   55.87    2.89
   2   9   1   58.48    1.83
  -2  -9  -2 1103.00   18.35
   2   9   2 1072.52   18.21
   2  -9   2 1082.93   16.89
  -2   9  -2 1115.58   16.98
   2  -9   2 1062.73   17.12
   2   9   2 1095.38   15.64
   2   9   3    0.92    0.97
  -2   9  -3    1.50    0.73
  -2  -9  -3    1.91    0.99
   2  -9   3    1.62    0.76
   2   9   3    1.58    0.45
  -2  -9  -4  195.06    5.65
   2   9   4  177.31    5.44
  -2   9  -4  188.15    4.85
   2  -9   4  179.58    4.99
   2   9   4  182.10    3.79
   2   9   5  219.53    6.18
  -2  -9  -5  219.50    6.19
  -2   9  -5  222.72    5.55
   2  -9   5  216.98    5.68
   2   9   5  214.04    4.36
   2   9   6  460.10   10.12
  -2  -9  -6  464.93    7.94
  -2  -9  -6  491.35   10.31
  -2   9  -6  476.66    9.46
   2  -9   6  480.22    9.73
   2   9   6  465.53    7.95
  -2  -9  -7   46.02    2.78
  -2  -9  -7   44.65    1.83
   2   9   7   47.42    2.86
  -2   9  -7   46.77    2.53
   2  -9   7   42.60    2.51
   2   9   7   46.54    1.87
  -2  -9  -7   41.92    2.68
  -2   9  -8   89.95    3.67
   2  -9   8   87.40    3.74
  -2  -9  -8   94.53    4.04
  -2  -9  -8   91.49    2.84
  -2   9  -9   19.55    1.82
   2  -9   9   19.66    1.95
  -2  -9  -9   19.86    2.03
  -2  -9  -9   19.71    1.38
  -2   9 -10   63.73    3.27
  -2  -9 -10   60.52    3.47
  -2  -9 -10   62.26    2.54
   2  -9  11    0.38    0.85
  -2   9 -11    0.13    1.00
  -2  -9 -11    1.44    1.17
  -2  -9 -11    1.44    0.75
  -2   9 -12  195.69    6.36
   2  -9  12  193.34    5.52
  -2  -9 -12  202.13    6.62
  -2  -9 -12  195.16    5.29
  -2   9 -13   94.00    4.45
   2  -9  13   91.55    3.64
  -2  -9 -13   93.37    4.58
  -2  -9 -13   95.46    3.65
   2  -9  14    3.31    1.04
  -2   9 -14    6.34    1.58
  -2  -9 -14    3.01    1.47
  -2  -9 -14    4.31    1.07
   2  -9  15   18.65    1.67
  -2   9 -15   17.34    2.20
  -2  -9 -15   12.83    2.02
  -2  -9 -15   15.85    1.71
  -2   9 -16  202.28    7.27
   2  -9  16  210.88    5.83
  -2  -9 -16  223.56    7.63
  -2   9 -17   10.85    2.01
  -2  -9 -17   10.43    2.06
  -2   9 -18    7.36    1.89
  -2  -9 -18   10.37    2.13
  -2   9 -19   50.62    4.00
  -2  -9 -19   46.52    3.81
  -2   9 -20   48.16    3.95
  -2  -9 -20   52.08    4.10
  -2   9 -21   21.40    2.84
  -2  -9 -21   18.35    2.65
   2 -10 -24  168.81    7.17
   2 -10 -23    0.74    1.53
   2 -10 -22    4.32    1.49
   2  10 -21   23.57    3.10
   2 -10 -21   17.97    2.26
   2  10 -20   73.83    4.95
   2 -10 -20   66.55    4.09
   2  10 -19   -1.02    1.66
   2 -10 -19    0.41    1.19
   2  10 -18   86.33    5.06
   2 -10 -18   80.10    4.19
  -2  10  18   76.14    4.43
   2  10 -17    1.52    1.67
   2 -10 -17    0.07    1.20
  -2  10  17   -1.86    1.34
   2  10 -16    7.77    1.87
   2 -10 -16    4.58    1.27
  -2  10  16    5.72    1.53
   2  10 -15    6.01    1.75
   2 -10 -15    8.43    1.40
  -2  10  15    9.50    1.76
   2  10 -14  205.29    7.22
   2 -10 -14  195.12    5.95
  -2  10  14  200.56    6.68
   2 -10 -13   11.39    1.60
   2  10 -13    8.74    1.72
   2 -10 -13   10.76    1.42
  -2  10  13   12.58    1.80
   2 -10 -12  107.00    4.15
   2  10 -12  117.37    5.09
   2 -10 -12  110.29    4.10
  -2  10  12  113.56    4.67
   2 -10 -11   13.41    1.49
   2  10 -11   14.21    1.92
   2 -10 -11   11.02    1.41
  -2  10  11   11.06    1.62
   2 -10 -10   98.27    4.02
   2 -10 -10   86.59    3.51
   2  10 -10   89.18    4.28
   2 -10 -10   87.36    3.39
  -2  10  10   80.35    3.76
   2  10  -9    0.42    1.13
   2 -10  -9    1.30    0.83
   2 -10  -9   -0.32    0.93
   2 -10  -9    1.13    0.82
   2  10  -8  364.85    9.07
   2 -10  -8  359.49    7.71
   2 -10  -8  375.62    8.62
  -2  10   8  362.29    8.57
   2 -10  -8  366.70    7.66
   2  10  -7   17.33    1.94
   2 -10  -7   20.41    1.57
   2 -10  -7   18.99    1.75
   2 -10  -7   18.44    1.46
  -2  10   7   16.87    1.70
   2 -10  -6    0.96    0.62
  -2 -10   6    1.19    0.92
   2  10  -6   -0.32    1.10
   2 -10  -6    0.42    0.76
  -2  10   6   -0.34    1.01
  -2 -10   5   44.89    2.71
  -2  10   5   40.60    2.03
   2 -10  -5   40.24    2.04
   2  10  -5   47.76    2.88
  -2  10   5   44.71    2.54
   2 -10  -4  422.56    8.12
  -2 -10   4  428.58    9.58
  -2  10   4  427.46    8.13
   2  10  -4  424.87    9.56
  -2  10   4  422.33    9.10
  -2 -10   3   73.72    3.43
   2 -10  -3   67.13    2.57
   2  10  -3   72.08    3.40
  -2  10   3   72.54    2.67
  -2  10   3   69.32    3.15
  -2 -10   2   24.31    1.95
   2 -10  -2   22.74    1.49
  -2  10   2   25.32    1.92
  -2  10   2   22.76    1.52
   2  10  -2   19.67    1.88
  -2 -10   1   61.00    3.10
   2 -10  -1   58.93    2.44
   2  10  -1   59.44    3.03
  -2  10   1   59.05    2.94
   2  10  -1   63.99    2.21
  -2  10   1   62.67    2.47
  -2 -10   0  726.90   13.50
   2 -10   0  681.10   11.86
   2  10   0  710.89   13.43
  -2  10   0  715.87   11.97
  -2  10   0  717.89   13.15
   2  10   0  707.58   11.15
  -2  10  -1    8.57    1.06
   2 -10   1    8.13    1.03
  -2 -10  -1    7.10    1.18
   2  10   1   10.00    0.87
   2  10   1   10.06    1.40
  -2  10  -1    9.71    1.39
  -2 -10  -2  105.78    4.13
  -2  10  -2  106.94    3.46
   2  10   2  102.57    4.05
   2 -10   2   96.55    3.30
   2 -10   2   96.55    3.48
   2  10   2  103.09    2.68
   2  10   3  375.81    8.77
  -2 -10  -3  382.90    8.87
  -2  10  -3  389.33    7.88
   2 -10   3  361.20    7.99
   2  10   3  382.21    6.62
  -2 -10  -4  639.30   12.47
   2  10   4  608.62   12.25
  -2  10  -4  630.18   11.30
   2 -10   4  611.96   11.54
   2  10   4  602.52    9.78
  -2 -10  -5   13.21    1.62
   2  10   5   13.96    1.70
  -2  10  -5   13.90    1.42
   2 -10   5   17.22    1.69
   2  10   5   11.68    0.94
  -2 -10  -6  115.34    4.47
   2  10   6   98.89    4.21
  -2  10  -6  116.17    4.05
   2 -10   6  106.38    4.03
   2  10   6  107.26    2.97
  -2 -10  -7   29.80    1.54
   2  10   7   30.09    2.38
  -2  10  -7   31.96    2.19
   2 -10   7   29.94    2.24
   2  10   7   29.29    1.55
  -2 -10  -7   28.30    2.34
  -2 -10  -8  135.12    3.65
  -2  10  -8  141.48    4.83
   2 -10   8  137.89    4.90
   2  10   8  134.54    3.67
  -2 -10  -8  133.72    5.02
  -2  10  -9  172.65    5.52
  -2 -10  -9  169.92    4.35
  -2 -10  -9  168.87    5.79
  -2  10 -10   19.79    1.99
  -2 -10 -10   25.08    1.64
  -2 -10 -10   20.34    2.16
  -2  10 -11   58.39    3.32
  -2 -10 -11   52.56    3.37
  -2 -10 -11   55.55    2.52
   2 -10  12  117.22    4.28
  -2  10 -12  123.38    5.00
  -2 -10 -12  109.55    4.92
  -2 -10 -12  110.41    3.84
  -2  10 -13   75.21    4.03
   2 -10  13   68.16    3.23
  -2 -10 -13   71.58    4.04
  -2 -10 -13   66.88    3.03
   2 -10  14  171.80    5.32
  -2  10 -14  169.14    6.30
  -2 -10 -14  164.41    6.36
  -2 -10 -14  171.47    5.26
  -2  10 -15   19.26    2.34
   2 -10  15   20.93    1.93
  -2 -10 -15   15.22    2.38
  -2  10 -16   24.67    2.74
   2 -10  16   27.36    2.15
  -2 -10 -16   28.39    3.00
   2 -10  17    6.53    1.26
  -2  10 -17    4.61    1.53
  -2 -10 -17    6.98    1.90
  -2  10 -18   29.93    3.13
  -2 -10 -18   35.58    3.37
  -2  10 -19   -0.99    1.65
  -2 -10 -19    2.36    1.74
  -2  10 -20   44.30    3.86
  -2 -10 -20   45.05    3.81
   2 -11 -23   20.45    2.69
   2 -11 -22    9.17    1.96
   2 -11 -21   27.43    2.83
   2  11 -20  115.16    6.29
   2 -11 -20  107.55    5.22
   2  11 -19    0.03    1.56
   2 -11 -19    0.13    1.28
   2  11 -18    6.17    1.93
   2 -11 -18    3.55    1.44
  -2  11  18    6.97    1.76
   2  11 -17   17.79    2.54
   2 -11 -17   15.75    1.98
  -2  11  17   11.83    1.96
   2  11 -16  326.81   10.00
   2 -11 -16  318.65    8.55
  -2  11  16  316.14    9.18
   2  11 -15   69.45    4.39
   2 -11 -15   64.59    3.47
  -2  11  15   59.17    3.68
   2  11 -14    8.50    1.91
   2 -11 -14    8.12    1.43
  -2  11  14   10.33    1.78
   2  11 -13  193.37    7.01
   2 -11 -13  181.81    5.69
  -2  11  13  182.27    6.34
   2 -11 -12   65.44    3.34
   2  11 -12   66.38    3.98
   2 -11 -12   68.50    3.28
  -2  11  12   72.94    3.82
   2 -11 -11   83.52    3.60
   2  11 -11   82.04    4.33
   2 -11 -11   84.11    3.54
  -2  11  11   83.67    4.02
   2 -11 -10  133.56    4.53
   2  11 -10  130.07    5.39
   2 -11 -10  140.91    4.51
  -2  11  10  127.02    4.90
   2 -11  -9   93.81    3.64
   2  11  -9  102.42    4.61
   2 -11  -9  100.55    3.67
  -2  11   9   97.95    4.21
   2  11  -8   91.83    4.42
   2 -11  -8   89.63    3.47
   2 -11  -8   91.08    3.89
   2 -11  -8   93.27    3.46
  -2  11   8   93.06    4.00
   2  11  -7  179.51    6.09
   2 -11  -7  186.17    5.68
   2 -11  -7  177.17    4.96
   2 -11  -7  176.85    4.93
  -2  11   7  171.53    5.52
   2  11  -6  249.23    7.22
   2 -11  -6  244.85    5.95
  -2  11   6  244.94    6.71
   2 -11  -5    1.38    0.69
   2  11  -5   -0.26    1.14
  -2  11   5   -0.09    0.67
  -2  11   5    0.13    0.96
   2  11  -4   11.86    1.78
   2 -11  -4    9.74    1.12
  -2  11   4    9.39    1.41
  -2  11   4    9.10    1.09
  -2 -11   3   11.02    1.59
   2  11  -3   14.49    1.78
   2 -11  -3   11.08    1.20
  -2  11   3   15.00    1.37
  -2  11   3   12.27    1.49
   2 -11  -2    4.13    0.79
  -2 -11   2    5.04    1.20
   2  11  -2    3.01    1.10
  -2  11   2    4.01    0.85
  -2  11   2    5.16    1.25
  -2 -11   1   62.94    3.25
   2 -11  -1   59.74    2.57
  -2  11   1   62.00    2.64
  -2  11   1   59.38    3.00
   2  11  -1   62.06    3.26
   2  11  -1   60.84    2.29
   2 -11   0   19.14    1.50
  -2 -11   0   23.12    2.04
   2  11   0   24.32    2.18
   2  11   0   23.54    1.38
  -2  11   0   24.11    2.05
  -2  11   0   23.88    1.67
   2 -11   1   97.70    3.41
  -2 -11  -1   97.36    4.05
   2  11   1   98.05    4.15
  -2  11  -1   98.54    3.41
  -2  11  -1   99.27    3.99
   2  11   1   93.68    2.79
  -2  11  -2   70.22    2.88
   2  11   2   62.96    3.35
  -2  11  -2   67.42    3.34
  -2 -11  -2   74.67    3.57
   2 -11   2   64.79    2.80
   2 -11   2   61.00    2.85
   2  11   2   65.93    2.21
  -2 -11  -3  456.66   10.22
   2  11   3  444.70   10.08
  -2  11  -3  448.48    9.07
   2 -11   3  422.41    9.15
   2  11   3  449.73    7.76
   2  11   4   41.14    2.78
  -2  11  -4   44.76    2.43
   2 -11   4   38.47    2.37
   2  11   4   42.27    1.76
   2  11   5    5.18    1.31
  -2  11  -5    3.87    1.05
   2 -11   5    6.05    1.21
   2  11   5    4.49    0.69
   2  11   6    1.63    1.06
  -2  11  -6    0.79    0.81
   2 -11   6    2.26    1.11
   2  11   6    2.08    0.66
   2  11   7   49.79    3.15
  -2  11  -7   51.37    2.88
   2 -11   7   47.33    2.83
   2  11   7   47.93    2.03
  -2  11  -8  176.64    5.59
  -2 -11  -8  171.85    4.30
  -2 -11  -8  164.49    5.83
   2  11   8  166.44    4.27
  -2  11  -9   35.12    2.53
  -2 -11  -9   36.53    1.94
  -2 -11  -9   32.15    2.69
  -2  11 -10    5.51    1.43
  -2 -11 -10    3.66    0.80
  -2 -11 -10    3.65    1.25
  -2 -11 -11  107.91    3.66
  -2  11 -11  111.00    4.79
  -2 -11 -11  109.34    4.85
  -2  11 -12  116.17    4.97
   2 -11  12  119.98    4.47
  -2 -11 -12  122.80    5.31
  -2 -11 -12  120.92    4.04
   2 -11  13   19.32    1.86
  -2  11 -13   17.99    2.22
  -2 -11 -13   16.83    1.64
  -2 -11 -13   16.09    2.10
   2 -11  14   -0.34    0.92
  -2  11 -14   -0.33    1.19
  -2 -11 -14    2.01    1.50
  -2  11 -15   87.45    4.68
   2 -11  15   79.41    3.66
  -2 -11 -15   83.40    4.65
   2 -11  16  214.73    6.27
  -2  11 -16  213.51    7.73
  -2 -11 -16  212.04    7.81
  -2  11 -17   14.21    2.18
  -2 -11 -17   10.16    2.07
  -2  11 -18    8.49    2.16
  -2 -11 -18   11.07    2.18
  -2  11 -19   41.83    3.76
  -2 -11 -19   32.28    3.30
  -2  11 -20  129.09    6.59
  -2 -11 -20  135.61    6.71
   2 -12 -22   15.44    2.37
   2 -12 -21    7.09    1.83
   2 -12 -20   26.77    2.73
   2  12 -19  118.16    6.24
   2 -12 -19  113.24    5.26
  -2  12  19  111.96    5.62
   2  12 -18  174.48    7.52
   2 -12 -18  162.25    6.20
  -2  12  18  149.35    6.54
   2  12 -17  269.34    9.32
   2 -12 -17  259.15    7.85
  -2  12  17  242.52    8.21
   2  12 -16   34.86    3.26
   2 -12 -16   27.95    2.51
  -2  12  16   30.91    2.89
   2  12 -15    4.43    1.57
   2 -12 -15    5.65    1.37
  -2  12  15    6.30    1.55
   2  12 -14   42.67    3.52
   2 -12 -14   42.73    2.80
  -2  12  14   42.10    3.26
   2  12 -13  148.94    6.30
   2 -12 -13  147.23    5.17
  -2  12  13  147.28    5.70
   2  12 -12   51.78    3.66
   2 -12 -12   49.76    2.86
  -2  12  12   52.96    3.36
   2 -12 -11   62.47    3.16
   2  12 -11   56.88    3.77
   2 -12 -11   62.76    3.20
  -2  12  11   62.70    3.55
   2  12 -10   17.39    2.17
   2 -12 -10   16.38    1.66
  -2  12  10   18.01    2.01
   2 -12 -10   13.90    1.53
   2 -12  -9  249.12    6.58
   2  12  -9  252.13    7.82
   2 -12  -9  248.10    6.45
  -2  12   9  256.51    7.31
   2  12  -8  202.48    6.80
   2 -12  -8  201.34    5.68
  -2  12   8  200.38    6.25
   2 -12  -8  202.03    5.60
   2  12  -7   10.29    1.85
   2 -12  -7    8.42    1.21
   2 -12  -7    8.98    1.22
  -2  12   7   10.46    1.60
   2  12  -6    8.07    1.61
   2 -12  -6    6.73    1.21
  -2  12   6    5.16    1.01
  -2  12   6    6.14    1.24
   2 -12  -5  348.81    7.70
  -2  12   5  358.61    7.75
   2  12  -5  340.93    9.05
  -2  12   5  356.13    8.56
   2 -12  -4   54.06    2.58
   2  12  -4   56.94    3.37
  -2  12   4   55.87    2.62
  -2  12   4   53.32    3.00
   2 -12  -3    1.04    0.69
  -2  12   3   -0.10    1.07
   2  12  -3    1.20    1.13
  -2  12   3    1.00    0.69
   2 -12  -2   -0.75    0.81
  -2  12   2   -0.82    0.85
   2  12  -2    0.22    0.59
  -2  12   2   -1.96    0.97
   2  12  -2   -1.16    1.19
   2 -12  -1  256.04    6.31
  -2  12   1  273.70    7.24
   2  12  -1  275.86    7.61
   2  12  -1  272.90    5.93
  -2  12   1  294.37    6.62
   2 -12   0  321.08    7.30
   2  12   0  351.85    8.76
  -2  12   0  332.79    7.39
  -2  12   0  325.10    8.18
   2  12   0  336.65    6.65
   2 -12   1   99.34    3.70
  -2  12  -1  108.46    3.81
   2  12   1  111.53    4.56
  -2  12  -1  106.34    4.31
   2  12   1  105.20    3.14
   2  12   2    7.14    1.49
  -2  12  -2    6.92    1.40
  -2  12  -2    7.17    1.14
   2 -12   2    6.77    1.07
   2 -12   2    7.39    1.25
   2  12   2    7.51    0.90
  -2  12  -3    9.54    1.65
   2  12   3    8.26    1.56
  -2  12  -3    9.80    1.32
   2 -12   3   11.11    1.50
   2  12   3   10.64    1.00
   2  12   4  136.46    5.18
  -2  12  -4  140.21    4.64
   2 -12   4  130.08    4.68
   2  12   4  138.13    3.62
   2  12   5    5.75    1.44
  -2  12  -5    5.00    1.17
   2 -12   5    3.50    1.02
   2  12   5    5.48    0.79
   2  12   6  215.35    6.90
  -2  12  -6  225.26    6.35
   2 -12   6  211.86    6.45
   2  12   6  225.87    5.03
  -2  12  -7   -1.47    1.00
   2  12   7    0.17    1.16
   2  12   7   -0.57    0.61
  -2  12  -8   79.71    3.81
   2  12   8   79.38    4.16
  -2 -12  -8   77.80    4.08
   2  12   8   80.75    2.86
  -2  12  -9  189.51    6.17
  -2 -12  -9  183.86    4.74
  -2 -12  -9  188.69    6.53
   2  12   9  186.43    4.81
  -2  12 -10   43.31    3.02
  -2 -12 -10   43.50    2.25
  -2 -12 -10   45.76    3.24
  -2 -12 -11   44.56    2.35
  -2  12 -11   46.75    3.21
  -2 -12 -11   38.85    3.15
  -2  12 -12   -0.61    1.23
  -2 -12 -12    1.71    1.31
   2 -12  13   43.26    2.80
  -2  12 -13   50.04    3.50
  -2 -12 -13   42.67    3.33
  -2  12 -14   30.06    2.89
   2 -12  14   31.45    2.42
  -2 -12 -14   34.05    3.09
   2 -12  15  111.58    4.51
  -2  12 -15  113.97    5.52
  -2 -12 -15  105.59    5.39
  -2  12 -16   22.28    2.76
   2 -12  16   24.59    2.20
  -2 -12 -16   25.75    2.84
  -2  12 -17   27.15    3.01
  -2 -12 -17   25.34    3.01
  -2  12 -18   51.92    4.07
  -2 -12 -18   53.62    4.13
  -2  12 -19   73.47    4.87
  -2 -12 -19   66.57    4.68
   2 -13 -20    2.96    1.55
   2 -13 -19    8.32    1.95
  -2  13  19   11.91    2.19
   2  13 -18    0.61    1.54
   2 -13 -18   -0.01    1.41
  -2  13  18    4.03    1.56
   2  13 -17   45.74    3.93
   2 -13 -17   42.97    3.19
  -2  13  17   39.48    3.39
   2  13 -16    9.74    2.22
   2 -13 -16    6.70    1.44
  -2  13  16    8.75    1.90
   2  13 -15   14.39    2.42
   2 -13 -15   15.80    1.95
  -2  13  15   16.63    2.41
   2  13 -14    1.58    1.40
   2 -13 -14   -1.56    1.19
  -2  13  14   -0.26    1.17
   2  13 -13   25.36    2.87
   2 -13 -13   24.15    2.15
  -2  13  13   27.89    2.61
   2  13 -12   11.46    1.96
   2 -13 -12   11.37    1.68
  -2  13  12    9.54    1.70
   2  13 -11  157.00    6.37
   2 -13 -11  147.88    5.11
  -2  13  11  145.19    5.59
   2  13 -10   -0.57    1.32
   2 -13 -10    0.44    0.90
  -2  13  10    1.03    1.12
   2 -13 -10   -0.52    0.94
   2  13  -9  186.37    6.74
   2 -13  -9  179.79    5.57
   2 -13  -9  175.13    5.44
  -2  13   9  178.78    6.13
   2  13  -8    5.92    1.69
   2 -13  -8    7.34    1.20
  -2  13   8    8.70    1.54
   2 -13  -8    7.36    1.25
   2 -13  -7  255.40    6.68
   2  13  -7  261.25    8.00
  -2  13   7  258.62    7.39
   2 -13  -7  256.83    6.63
   2 -13  -6   51.48    2.71
  -2  13   6   57.20    2.85
   2  13  -6   55.67    3.51
  -2  13   6   53.55    3.19
   2 -13  -5  400.36    8.78
  -2  13   5  418.87    8.93
   2  13  -5  423.02   10.43
  -2  13   5  405.17    9.64
   2 -13  -4   19.54    1.72
  -2  13   4   19.42    1.74
  -2  13   4   20.94    2.05
   2  13  -4   21.85    2.33
   2 -13  -3    0.51    0.71
  -2  13   3    1.03    1.06
   2  13  -3    2.66    1.25
  -2  13   3   -0.19    0.87
   2 -13  -2   52.27    2.68
  -2  13   2   55.23    2.69
   2  13  -2   52.95    2.43
   2  13  -2   58.45    3.49
  -2  13   2   49.12    2.99
   2 -13  -1  253.04    6.46
   2  13  -1  260.30    7.66
   2  13  -1  266.22    6.00
  -2  13   1  271.90    6.67
  -2  13   1  258.67    7.24
   2 -13   0   13.08    1.46
  -2  13   0   13.04    1.44
   2  13   0   12.67    1.85
  -2  13   0   13.54    1.76
   2  13   0   13.93    1.23
   2 -13   1   -0.24    0.75
   2  13   1    0.08    0.60
  -2  13  -1   -0.26    1.11
   2  13   1    0.68    1.09
  -2  13  -1   -0.11    0.77
  -2  13  -2  150.29    4.78
   2  13   2  135.44    5.32
  -2  13  -2  136.69    5.14
   2 -13   2  138.14    4.58
   2 -13   2  132.00    4.69
   2  13   2  137.02    3.80
   2  13   3  497.79   11.39
  -2  13  -3  478.59   10.99
  -2  13  -3  500.16   10.28
   2 -13   3  470.06   10.36
   2  13   3  485.13    8.78
   2  13   4   95.98    4.47
  -2  13  -4   98.87    3.98
   2 -13   4   92.94    4.01
   2  13   4  100.98    3.13
  -2  13  -5    0.42    0.91
   2  13   5    1.34    1.10
   2  13   5    3.10    0.69
  -2  13  -6    1.79    1.04
   2  13   6    0.48    1.18
   2  13   6    0.59    0.55
  -2  13  -7  216.45    6.50
   2  13   7  203.46    6.94
   2  13   7  201.02    4.95
  -2  13  -8  108.69    4.57
   2  13   8  101.35    4.83
   2  13   8  102.65    3.35
  -2 -13  -8  113.63    5.01
  -2  13  -9    9.99    1.77
  -2 -13  -9   10.61    1.87
   2  13   9    9.07    1.10
  -2  13 -10    4.22    1.36
  -2 -13 -10    3.28    1.30
  -2  13 -11   43.47    3.16
  -2 -13 -11   44.37    3.36
  -2  13 -12    3.49    1.35
  -2 -13 -12    4.31    1.79
   2 -13  13    5.86    1.44
  -2  13 -13    6.12    1.71
  -2 -13 -13    5.02    1.79
  -2  13 -14    2.76    1.47
   2 -13  14    3.36    1.28
  -2 -13 -14    7.08    1.96
   2 -13  15   78.43    3.90
  -2  13 -15   76.87    4.60
  -2 -13 -15   84.09    4.91
  -2  13 -16    7.45    2.04
  -2 -13 -16    6.02    1.90
  -2  13 -17  120.27    6.06
  -2 -13 -17  110.83    5.96
  -2  13 -18    4.63    1.86
  -2 -13 -18    1.63    1.71
  -2  14  19   44.24    3.63
   2 -14 -18    9.91    1.95
  -2  14  18   10.62    2.20
   2  14 -17   38.92    3.85
   2 -14 -17   30.17    2.82
  -2  14  17   31.26    3.10
   2  14 -16   10.47    2.23
   2 -14 -16    7.30    1.58
  -2  14  16   11.11    2.03
   2  14 -15   78.19    4.93
   2 -14 -15   64.19    3.72
  -2  14  15   64.67    4.10
   2  14 -14   21.34    2.85
   2 -14 -14   22.60    2.26
  -2  14  14   18.52    2.42
   2  14 -13  145.57    6.57
   2 -14 -13  141.83    5.32
  -2  14  13  141.26    5.87
   2  14 -12   14.08    2.41
  -2  14  12    9.32    1.88
   2 -14 -12    8.18    1.41
   2  14 -11   28.76    2.92
  -2  14  11   33.44    2.85
   2 -14 -11   29.67    2.37
   2  14 -10    1.65    1.44
  -2  14  10    3.69    1.24
   2 -14 -10    2.57    1.12
   2  14  -9  186.82    7.01
   2 -14  -9  182.97    5.84
   2 -14  -9  179.69    5.69
  -2  14   9  172.35    6.19
   2  14  -8   33.49    3.00
   2 -14  -8   31.84    2.35
   2 -14  -8   29.59    2.21
  -2  14   8   29.57    2.49
   2 -14  -7   69.03    3.32
   2  14  -7   69.08    4.07
  -2  14   7   64.78    3.63
   2 -14  -7   68.38    3.31
   2 -14  -6   38.88    2.50
   2  14  -6   45.85    3.30
  -2  14   6   42.38    2.58
  -2  14   6   37.68    2.85
   2 -14  -5  193.80    5.76
  -2  14   5  205.25    5.90
   2  14  -5  201.20    7.00
  -2  14   5  206.49    6.54
   2 -14  -4  303.86    7.57
   2  14  -4  324.28    9.08
  -2  14   4  323.62    7.71
  -2  14   4  313.92    8.38
   2 -14  -3  160.56    5.11
  -2  14   3  166.32    5.17
   2  14  -3  177.16    5.00
   2  14  -3  159.83    6.05
  -2  14   3  160.35    5.71
   2 -14  -2   66.89    3.14
   2  14  -2   61.22    3.72
  -2  14   2   61.40    3.03
   2  14  -2   66.94    2.88
  -2  14   2   63.52    3.49
   2 -14  -1   36.89    2.37
   2  14  -1   41.83    2.19
  -2  14   1   40.64    2.50
   2  14  -1   38.53    2.93
  -2  14   1   35.12    2.64
   2 -14   0   23.70    1.88
  -2  14   0   32.11    2.50
  -2  14   0   30.83    2.19
   2  14   0   25.77    2.49
   2  14   0   30.25    1.80
   2 -14   1   38.62    2.43
  -2  14  -1   42.39    2.58
   2  14   1   38.39    2.99
  -2  14  -1   39.06    2.83
   2  14   1   42.00    2.09
   2  14   2   19.23    2.24
  -2  14  -2   18.74    1.81
  -2  14  -2   18.69    1.99
   2 -14   2   17.71    1.72
   2 -14   2   14.94    1.73
   2  14   2   21.24    1.52
  -2  14  -3    2.64    1.01
  -2  14  -3   -0.09    1.05
   2  14   3   -0.29    1.24
   2  14   3    1.53    0.72
  -2  14  -4  146.71    5.63
   2  14   4  151.06    5.89
  -2  14  -4  153.00    5.24
   2  14   4  149.74    4.11
  -2  14  -5  157.35    5.42
   2  14   5  155.56    5.99
   2  14   5  153.81    4.18
  -2  14  -6   51.11    3.07
   2  14   6   48.84    3.40
   2  14   6   51.21    2.32
  -2  14  -7   49.79    3.13
   2  14   7   45.64    3.39
   2  14   7   50.67    2.34
  -2  14  -8   43.42    3.01
   2  14   8   38.29    3.14
  -2 -14  -8   40.62    3.22
   2  14   8   43.20    2.18
  -2  14  -9  141.90    5.56
  -2 -14  -9  121.04    5.53
   2  14   9  133.30    4.07
  -2  14 -10    7.12    1.54
  -2 -14 -10    6.11    1.77
  -2  14 -11   45.50    3.36
  -2 -14 -11   45.16    3.53
  -2  14 -12   41.31    3.32
  -2 -14 -12   35.43    3.31
  -2  14 -13  118.16    5.63
  -2 -14 -13  122.14    5.84
   2 -14  14    0.82    1.03
  -2  14 -14    1.93    1.67
  -2  14 -15  158.44    6.80
   2 -14  15  149.40    5.61
  -2 -14 -15  142.05    6.59
  -2  14 -16    3.16    1.46
  -2 -14 -16    6.56    1.83
  -2  14 -17    3.59    1.67
  -2 -14 -17    6.02    2.03
  -2  14 -18   16.73    2.73
  -2  15  19   37.82    3.59
  -2  15  18   12.61    2.31
  -2  15  17   89.25    5.05
   2  15 -16   52.84    4.34
   2 -15 -16   40.97    3.18
  -2  15  16   45.37    3.62
   2  15 -15  195.92    8.05
   2 -15 -15  169.64    6.34
  -2  15  15  177.06    7.02
   2  15 -14   19.81    2.82
   2 -15 -14   20.96    2.31
  -2  15  14   18.86    2.48
   2  15 -13   30.63    3.21
   2 -15 -13   29.80    2.62
  -2  15  13   24.51    2.83
   2  15 -12  128.95    6.26
   2 -15 -12  124.93    5.02
  -2  15  12  120.76    5.41
   2  15 -11  176.90    7.23
   2 -15 -11  168.10    5.82
  -2  15  11  166.81    6.33
   2  15 -10   78.54    4.72
   2 -15 -10   60.46    3.39
  -2  15  10   67.45    3.95
   2  15  -9    2.07    1.65
  -2  15   9   -0.92    1.16
   2 -15  -9    2.37    1.24
   2  15  -8    5.33    1.64
  -2  15   8    5.84    1.57
   2 -15  -8    3.36    1.21
   2  15  -7  106.96    5.25
   2 -15  -7  109.41    4.34
  -2  15   7  102.86    4.68
   2  15  -6   30.44    2.93
  -2  15   6   26.56    2.16
  -2  15   6   26.73    2.46
   2 -15  -5    3.46    1.07
  -2  15   5    2.45    1.08
   2  15  -5    3.40    1.56
  -2  15   5    3.62    1.30
   2 -15  -4   25.34    2.12
   2  15  -4   29.67    2.13
  -2  15   4   25.22    2.11
   2  15  -4   22.64    2.52
  -2  15   4   26.17    2.40
   2 -15  -3   12.72    1.55
  -2  15   3   11.26    1.74
   2  15  -3   15.60    1.57
  -2  15   3   13.80    1.60
   2  15  -3   14.77    2.19
   2 -15  -2    0.95    0.79
   2  15  -2    2.19    1.40
   2  15  -2    3.22    0.94
  -2  15   2    1.78    1.25
  -2  15   2    1.51    1.07
   2 -15  -1    5.99    1.21
  -2  15   1    5.66    1.22
  -2  15   1    6.06    1.43
   2  15  -1    4.54    0.97
   2  15  -1    5.01    1.47
   2 -15   0    0.14    0.84
  -2  15   0   -0.65    1.09
   2  15   0    0.27    0.73
  -2  15   0   -0.21    1.08
   2  15   0   -1.42    1.33
   2 -15   1   12.24    1.59
  -2  15  -1   13.32    1.62
  -2  15  -1   10.42    1.75
   2  15   1   14.78    2.07
   2  15   1   11.40    1.25
   2 -15   2    3.71    1.08
  -2  15  -2    5.79    1.29
  -2  15  -2    6.51    1.50
   2  15   2    6.67    1.64
   2  15   2    6.03    0.99
  -2  15  -3   59.13    3.68
   2  15   3   55.74    3.70
  -2  15  -3   62.22    3.36
   2  15   3   63.75    2.63
  -2  15  -4   11.58    1.64
   2  15   4   12.72    1.99
  -2  15  -4   14.05    2.05
   2  15   4   12.54    1.23
   2  15   5  109.47    5.18
  -2  15  -5  119.18    5.24
  -2  15  -5  111.18    4.68
   2  15   5  107.66    3.52
  -2  15  -6   15.10    1.83
   2  15   6   15.63    2.32
   2  15   6   15.68    1.37
  -2  15  -7    2.00    1.19
   2  15   7    2.66    1.43
   2  15   7    2.93    0.73
  -2  15  -8   -1.48    1.11
   2  15   8    0.30    1.38
  -2 -15  -8    1.94    1.37
  -2  15  -9    9.48    1.82
  -2 -15  -9   11.02    1.98
  -2  15 -10    2.36    1.26
  -2 -15 -10   -0.02    1.43
  -2  15 -11   76.70    4.42
  -2 -15 -11   76.37    4.62
  -2  15 -12   85.00    4.74
  -2 -15 -12   90.50    4.99
  -2  15 -13  137.88    6.20
  -2 -15 -13  143.71    6.49
   2 -15  14   -1.10    1.20
  -2  15 -14   -0.37    1.37
  -2 -15 -14   -1.17    1.82
  -2  15 -15  140.27    6.60
  -2 -15 -15  164.33    7.15
  -2  15 -16   47.25    3.98
  -2 -15 -16   48.63    4.07
  -2  15 -17   54.38    4.36
  -2  16  17   11.55    2.24
  -2  16  16   -0.32    1.33
  -2  16  15   14.51    2.24
   2  16 -14   77.32    5.16
   2 -16 -14   61.84    3.83
  -2  16  14   63.28    4.14
   2  16 -13    3.84    2.04
   2 -16 -13    1.83    1.22
  -2  16  13   -0.32    1.56
   2  16 -12   27.25    3.20
  -2  16  12   24.23    2.67
   2 -16 -12   21.21    2.25
   2  16 -11   51.78    4.10
   2 -16 -11   45.74    3.16
  -2  16  11   49.16    3.57
   2  16 -10   53.93    4.15
   2 -16 -10   42.23    2.95
  -2  16  10   43.47    3.28
   2  16  -9   32.80    3.19
   2 -16  -9   40.38    2.79
  -2  16   9   37.55    3.06
   2  16  -8   35.68    3.29
   2 -16  -8   26.94    2.38
  -2  16   8   33.65    2.85
   2  16  -7   25.12    2.88
   2 -16  -7   21.53    2.10
  -2  16   7   24.07    2.44
  -2  16   6    0.54    1.04
   2  16  -6    3.03    1.49
  -2  16   6    1.48    1.27
   2  16  -5  112.08    5.50
   2  16  -5  124.29    4.61
  -2  16   5  117.67    4.65
  -2  16   5  120.39    5.23
  -2  16   4   57.90    3.23
   2  16  -4   58.60    3.06
   2  16  -4   52.88    3.79
  -2  16   4   53.00    3.46
  -2  16   3  128.46    4.89
   2  16  -3  141.41    6.05
   2  16  -3  142.87    4.74
  -2  16   3  135.66    5.55
   2  16  -2   42.40    3.36
   2  16  -2   46.31    2.54
  -2  16   2   43.11    2.81
  -2  16   2   45.36    3.18
   2  16  -1   61.99    4.01
  -2  16   1   65.07    3.39
   2  16  -1   62.88    2.92
  -2  16   1   63.91    3.78
  -2  16   0   68.89    3.50
  -2  16   0   71.47    4.03
   2  16   0   70.74    4.31
   2  16   0   72.63    3.07
   2  16   1   71.53    4.30
  -2  16  -1   74.58    3.71
  -2  16  -1   74.98    4.13
   2  16   1   72.93    3.01
  -2  16  -2   32.02    2.49
   2  16   2   26.12    2.73
  -2  16  -2   34.70    3.02
   2  16   2   32.10    1.97
  -2  16  -3   28.48    2.40
   2  16   3   34.25    3.08
  -2  16  -3   33.17    2.91
   2  16   3   31.30    1.93
   2  16   4   43.10    3.38
  -2  16  -4   38.48    2.87
  -2  16  -4   42.78    3.26
   2  16   5  364.39   10.40
  -2  16  -5  372.88    9.58
  -2  16  -5  368.30   10.26
  -2  16  -6    7.40    1.61
   2  16   6    8.04    1.94
  -2  16  -6    8.84    1.97
  -2  16  -7   11.49    1.83
   2  16   7   11.76    2.03
  -2  16  -8   21.11    2.40
   2  16   8   23.33    2.78
  -2 -16  -8   17.91    2.45
  -2  16  -9   15.20    2.03
  -2 -16  -9   15.15    2.26
  -2  16 -10    6.08    1.67
  -2 -16 -10    8.80    2.00
  -2  16 -11    5.99    1.73
  -2 -16 -11    6.65    1.98
  -2  16 -12   24.60    2.88
  -2 -16 -12   20.91    2.74
  -2  16 -13   26.18    2.94
  -2 -16 -13   33.44    3.36
  -2  16 -14   51.10    4.08
  -2 -16 -14   55.50    4.21
  -2  16 -15   10.57    2.13
  -2  16 -16    6.18    2.03
  -2  17  15    3.54    1.64
  -2  17  14    4.45    1.49
  -2  17  13    3.19    1.37
   2  17 -12   70.29    4.92
  -2  17  12   70.75    4.36
   2  17 -11    5.82    1.76
   2 -17 -11    3.37    1.28
  -2  17  11    4.52    1.95
   2  17 -10   16.01    2.60
  -2  17  10   16.79    2.17
   2 -17 -10   12.29    1.84
   2  17  -9    8.87    2.13
   2 -17  -9   10.97    1.62
  -2  17   9    8.63    1.64
   2  17  -8    0.26    1.56
  -2  17   8    2.01    1.23
   2 -17  -8    1.62    1.08
   2  17  -7   61.07    4.39
  -2  17   7   61.16    3.82
   2 -17  -7   59.35    3.45
   2  17  -6  145.60    5.29
   2  17  -6  145.22    6.48
  -2  17   6  150.76    5.54
  -2  17   6  136.99    5.75
   2  17  -5    2.13    1.53
  -2  17   5    0.56    1.06
   2  17  -5    0.67    1.00
  -2  17   5    0.48    1.20
  -2  17   4    0.63    1.01
   2  17  -4   -0.02    1.40
   2  17  -4    0.27    0.90
  -2  17   4    0.76    1.35
  -2  17   3   37.47    2.70
   2  17  -3   31.71    2.24
  -2  17   3   33.85    2.92
   2  17  -3   37.98    3.35
   2  17  -2   60.63    3.00
  -2  17   2   61.82    3.44
   2  17  -2   60.13    4.13
  -2  17   2   63.61    3.89
  -2  17   1   -0.03    1.03
   2  17  -1   -0.21    0.77
   2  17  -1    1.09    1.53
  -2  17   1   -0.71    1.24
   2  17   0    0.88    1.45
  -2  17   0   -1.62    1.16
  -2  17   0    0.60    1.20
  -2  17  -1   15.50    1.95
   2  17   1   19.43    2.56
  -2  17  -1   17.53    2.31
   2  17   2   74.74    4.50
  -2  17  -2   76.48    3.92
  -2  17  -2   67.67    4.09
   2  17   3   -0.21    1.41
  -2  17  -3    3.03    1.56
  -2  17  -3    0.85    1.13
   2  17   4   51.08    3.80
  -2  17  -4   52.98    3.74
  -2  17  -4   51.43    3.37
   2  17   5    9.62    2.31
  -2  17  -5   11.38    1.93
  -2  17  -5    9.72    1.97
  -2  17  -6   42.83    3.39
   2  17   6   47.74    4.10
  -2  17  -6   41.43    3.45
  -2  17  -7   20.94    2.42
   2  17   7   22.89    2.82
  -2  17  -7   25.72    2.85
  -2  17  -8   93.45    4.93
   2  17   8   93.75    5.27
  -2 -17  -8   85.62    5.07
  -2  17  -9   13.99    2.13
  -2 -17  -9    7.92    1.92
  -2  17 -10   13.90    2.31
  -2 -17 -10   14.39    2.39
  -2  17 -11   26.77    2.83
  -2 -17 -11   32.21    3.26
  -2  17 -12   41.25    3.54
  -2 -17 -12   40.05    3.65
  -2  17 -13   48.17    3.90
  -2 -17 -13   56.74    4.37
  -2  17 -14    2.39    1.80
  -2  18  12    4.50    1.64
  -2  18  11    4.08    1.62
   2  18 -10   67.41    4.82
  -2  18  10   74.36    4.43
   2  18  -9    0.02    1.58
  -2  18   9    0.88    1.31
   2  18  -8   24.23    3.01
   2 -18  -8   23.89    2.42
  -2  18   8   23.31    2.69
   2  18  -7    0.27    1.49
  -2  18   7    2.22    1.37
   2 -18  -7   -1.35    1.30
   2  18  -6   18.31    2.68
  -2  18   6   20.51    2.45
  -2  18   5    6.51    1.48
   2  18  -5    7.05    2.01
  -2  18   5    5.69    1.58
   2  18  -4   21.44    2.81
  -2  18   4   19.60    2.18
  -2  18   4   19.07    2.25
  -2  18   3   -0.92    1.24
   2  18  -3    1.59    1.61
  -2  18   3    1.15    1.35
  -2  18   2   15.29    1.91
  -2  18   2   11.60    2.04
   2  18  -2   19.66    2.75
  -2  18   1    6.81    1.58
   2  18  -1    4.48    1.77
  -2  18   1    2.50    1.43
   2  18   0   38.61    3.36
  -2  18   0   44.97    3.16
  -2  18   0   42.81    3.35
   2  18   1    4.98    1.72
  -2  18  -1    1.44    1.28
  -2  18  -1    2.37    1.10
  -2  18  -2   -0.09    1.29
  -2  18  -2    1.30    1.34
   2  18   2   -0.59    1.61
  -2  18  -3    7.09    1.68
  -2  18  -3    5.87    1.79
   2  18   3    4.04    1.52
  -2  18  -4   24.40    2.47
   2  18   4   22.34    2.84
  -2  18  -4   28.14    2.82
  -2  18  -5   21.11    2.34
   2  18   5   17.26    2.45
  -2  18  -5   19.11    2.60
   2  18   6   63.47    4.38
  -2  18  -6   65.12    4.03
  -2  18  -6   63.80    4.32
  -2  18  -7    8.63    1.96
   2  18   7   10.76    2.27
  -2  18  -7   10.92    2.11
  -2  18  -8   30.79    3.01
  -2  18  -8   30.27    3.09
  -2 -18  -8   29.06    3.24
  -2  18  -9    7.30    1.90
  -2 -18  -9    4.69    1.75
  -2  18 -10  160.35    6.79
  -2 -18 -10  150.85    6.92
  -2  18 -11    0.60    1.44
  -2  18 -12    2.90    1.68
  -2  18 -13    0.32    1.52
  -2  19   9   16.93    2.25
   2  19  -8   30.10    3.38
  -2  19   8   30.05    2.96
   2  19  -7    0.52    1.40
  -2  19   7    3.04    1.51
   2  19  -6   51.72    4.20
  -2  19   6   46.60    3.52
   2  19  -5   17.98    2.61
  -2  19   5   21.31    2.62
   2  19  -4   29.61    3.21
  -2  19   4   23.46    2.73
   2  19  -3   -1.70    1.43
  -2  19   3    0.46    1.30
  -2  19   2   37.95    3.36
   2  19  -2   41.76    3.75
  -2  19   1    5.22    1.71
   2  19  -1    3.67    1.49
  -2  19   1    7.75    1.63
  -2  19   0   22.15    2.37
   2  19   0   20.14    2.73
  -2  19   0   21.56    2.69
  -2  19  -1   -1.99    1.30
   2  19   1    1.81    1.59
  -2  19  -1    1.63    1.56
  -2  19  -2  109.88    5.10
   2  19   2   93.25    5.33
  -2  19  -2   98.40    5.17
   2  19   3   -2.04    1.55
  -2  19  -3    0.51    1.33
  -2  19  -3   -0.69    1.34
  -2  19  -4   47.27    3.48
  -2  19  -4   43.32    3.65
   2  19   4   48.04    3.93
   2  19   5   27.92    3.10
  -2  19  -5   25.39    2.96
  -2  19  -5   27.85    2.79
  -2  19  -6    9.26    1.79
   2  19   6   10.25    2.16
  -2  19  -6    8.28    1.99
  -2  19  -7    0.46    1.28
  -2  19  -7    0.42    1.39
   2  19   7   -1.96    1.76
  -2  19  -8    1.60    1.60
  -2  19  -8    3.57    1.60
  -2 -19  -8    1.58    1.77
  -2  19  -9   -1.29    1.59
  -2  19 -10   -0.22    1.41
  -2  19 -11   -0.08    1.65
  -2  20   4   73.13    4.45
   2  20  -3    7.39    2.12
  -2  20   3    7.75    1.85
   2  20  -2   -1.64    1.70
  -2  20   2    2.52    1.64
   2  20  -1   18.58    2.81
  -2  20   1   20.17    2.68
  -2  20   0   38.19    3.36
   2  20   0   36.40    3.64
   2  20   1   61.10    4.52
  -2  20  -1   54.53    3.98
  -2  20  -2    6.43    1.96
   2  20   2    1.97    1.52
   2  20   3   34.36    3.52
  -2  20  -3   34.28    3.29
   2  20   4   40.78    3.82
  -2  20  -4   41.00    3.56
  -2  20  -5    3.00    1.45
  -2  20  -6   34.70    3.36
   3   0 -26   82.17    5.15
   3   0 -25   -2.43    1.56
   3   0 -24  138.27    6.39
   3   0 -23   -3.04    1.64
   3   0 -22  187.86    7.11
   3   0 -21   -0.96    1.40
   3   0 -20   87.46    4.50
   3   0 -19   -0.94    1.17
   3   0 -18   77.52    3.94
   3   0 -17    1.25    1.17
   3   0 -16   40.29    2.68
  -3   0  16   41.17    2.64
  -3   0  15    1.36    0.89
   3   0 -15    0.24    0.97
  -3   0  14   42.73    2.48
   3   0 -14   40.88    2.49
   3   0 -14   42.74    2.74
   3   0 -13    0.01    0.25
   3   0 -13    0.83    0.95
  -3   0  13   -0.60    0.85
   3   0 -13   -0.98    0.91
   3   0 -12   70.63    1.57
   3   0 -12   66.35    2.87
  -3   0  12   67.96    2.90
   3   0 -12   65.86    3.16
   3   0 -11    0.34    0.32
  -3   0  11    0.60    0.68
   3   0 -11    0.10    0.76
   3   0 -11    0.51    0.76
  -3   0  11    1.06    1.03
   3   0 -10    3.69    0.45
  -3   0  10    5.01    0.83
   3   0 -10    3.55    0.93
  -3   0  10    4.43    1.06
   3   0 -10    2.97    0.94
   3   0  -9   -0.23    0.37
  -3   0   9   -0.32    0.59
   3   0  -9   -0.46    0.67
  -3   0   9   -0.28    0.94
   3   0  -9   -0.22    0.80
   3   0  -8   87.47    2.87
   3   0  -8   90.75    2.11
  -3   0   8   95.87    2.80
   3   0  -8   89.21    3.16
  -3   0   8   95.33    3.24
   3   0  -7   -0.07    0.42
   3   0  -7    0.85    0.68
  -3   0   7    0.77    0.56
  -3   0   7    0.78    0.86
   3   0  -7    1.32    0.69
   3   0  -6 1066.39   15.85
   3   0  -6 1077.61   15.24
  -3   0   6 1083.60   15.62
  -3   0   6 1085.49   16.51
   3   0  -6 1064.16   16.48
   3   0  -5    0.33    0.55
   3   0  -5   -0.16    0.51
  -3   0   5    1.32    0.56
  -3   0   5    0.56    0.81
   3   0  -5    0.25    0.59
   3   0  -4  118.21    2.75
   3   0  -4  115.88    2.80
  -3   0   4  121.28    2.74
   3   0  -4  118.15    3.10
  -3   0   4  115.13    3.13
  -3   0   3    0.30    0.56
   3   0  -3    0.81    0.54
  -3   0   3   -0.90    0.53
   3   0  -3   -0.64    0.68
   3   0  -3    0.46    0.53
  -3   0   3    0.95    0.72
   3   0  -2 1096.63   15.77
  -3   0   2 1090.28   15.73
  -3   0   2 1074.12   15.22
   3   0  -2 1063.80   15.24
   3   0  -2 1099.79   15.72
  -3   0   2 1089.49   15.73
   3   0  -1    0.31    0.75
  -3   0   1    0.24    0.57
  -3   0   1    1.67    0.49
   3   0  -1    0.22    0.51
  -3   0   1   -0.14    0.68
   3   0  -1   -0.62    0.53
  -3   0   0  188.36    4.14
   3   0   0  188.59    3.68
  -3   0   0  194.15    3.70
  -3   0   0  195.51    3.85
  -3   0  -1   -0.33    0.63
  -3   0  -1    0.33    0.45
   3   0   1    0.01    0.52
  -3   0  -1   -0.63    0.58
  -3   0  -1    0.70    0.48
  -3   0  -2 3137.33   42.89
  -3   0  -2 3221.40   43.42
  -3   0  -2 3209.12   42.89
  -3   0  -3    0.96    0.55
  -3   0  -3   -0.11    0.63
  -3   0  -3    0.79    0.74
   3   0   3   -0.88    0.65
  -3   0  -4  414.68    7.48
  -3   0  -4  406.87    7.63
  -3   0  -4  413.07    7.47
   3   0   4  409.16    7.44
  -3   0  -5    0.97    0.74
  -3   0  -5    0.07    0.77
   3   0   5    0.38    0.66
  -3   0  -6  465.11    8.63
  -3   0  -6  471.12    8.77
   3   0   6  472.92    8.80
  -3   0  -7    0.53    0.70
  -3   0  -7    0.34    0.82
   3   0   7    0.00    0.73
  -3   0  -8 1970.55   28.78
   3   0   8 1994.84   29.32
  -3   0  -8 1981.63   29.25
  -3   0  -9   -0.31    0.70
  -3   0  -9    0.35    0.86
   3   0   9   -0.37    0.85
  -3   0 -10   56.58    2.57
   3   0  10   63.95    3.06
  -3   0 -10   63.34    3.05
  -3   0 -11   -0.90    0.76
  -3   0 -11   -0.43    1.03
   3   0  11   -0.07    0.81
  -3   0 -12  295.53    6.82
  -3   0 -12  276.47    7.41
   3   0  12  276.18    7.41
  -3   0 -13   -0.75    0.76
  -3   0 -13   -1.14    1.20
  -3   0 -14  290.48    7.06
  -3   0 -14  295.67    8.06
  -3   0 -15   -0.38    0.75
  -3   0 -15    0.69    1.25
  -3   0 -16    7.35    1.23
  -3   0 -16    7.26    1.65
  -3   0 -17    0.44    0.92
  -3   0 -17   -2.17    1.47
  -3   0 -18    9.16    1.45
  -3   0 -18    8.79    1.98
  -3   0 -19    0.11    1.43
  -3   0 -20   81.82    4.81
  -3   0 -21    0.45    1.53
  -3   0 -22   56.95    4.29
   3   1 -26    2.23    2.02
   3  -1 -26    8.51    2.12
   3   1 -25    0.63    1.57
   3  -1 -25    1.05    1.49
   3   1 -24   20.96    2.72
   3  -1 -24   17.56    2.47
   3   1 -23   10.78    2.15
   3  -1 -23   16.04    2.40
   3   1 -22   56.34    3.97
   3  -1 -22   57.62    3.90
   3   1 -21    8.63    1.75
   3  -1 -21    6.84    1.63
   3  -1 -20   37.14    2.96
   3   1 -20   34.69    2.97
   3   1 -19    9.27    1.71
   3  -1 -19    8.26    1.60
   3  -1 -18  430.34   10.16
   3   1 -18  421.78   10.31
   3   1 -17    7.50    1.54
   3  -1 -17    7.73    1.52
  -3   1  16   30.21    2.26
   3  -1 -16   31.39    2.36
   3   1 -16   32.56    2.46
   3   1 -15   20.66    2.20
   3  -1 -15   24.23    2.04
  -3   1  15   19.38    1.77
  -3  -1  15   23.17    2.02
  -3  -1  14  442.49    9.51
  -3   1  14  463.82    9.39
   3   1 -14  430.39    9.45
   3  -1 -14  437.09    9.28
   3   1 -14  443.35   10.09
   3   1 -13   11.23    1.44
  -3   1  13    9.20    1.22
  -3  -1  13    7.56    1.22
   3  -1 -13   10.27    1.38
   3   1 -13    8.97    1.41
   3  -1 -13   10.27    1.40
  -3  -1  12  848.11   14.64
   3   1 -12  843.40   14.64
  -3   1  12  865.29   14.33
   3  -1 -12  835.56   14.27
   3   1 -12  872.63   15.35
   3  -1 -12  873.68   15.38
  -3   1  12  839.81   15.23
   3   1 -11   12.99    1.44
  -3   1  11   11.10    1.18
   3   1 -11   11.06    1.36
  -3  -1  11   10.31    1.21
   3  -1 -11   10.00    1.23
  -3   1  11   11.93    1.49
   3  -1 -11   13.45    1.43
   3   1 -11   11.09    1.39
   3   1 -10  251.29    5.89
   3   1 -10  242.21    5.66
  -3   1  10  244.75    5.36
   3  -1 -10  240.33    5.37
  -3  -1  10  232.09    5.56
  -3   1  10  243.12    6.10
   3   1 -10  235.54    5.98
   3  -1 -10  246.83    6.13
   3   1  -9   44.51    2.18
  -3   1   9   48.00    1.96
   3  -1  -9   44.92    1.95
  -3  -1   9   42.58    2.03
  -3  -1   9   45.10    2.36
   3   1  -9   42.98    2.26
  -3   1   9   48.99    2.50
   3  -1  -9   48.94    2.43
   3   1  -8    9.27    1.14
  -3   1   8    9.66    0.93
   3  -1  -8    7.73    0.95
  -3  -1   8    7.97    0.97
  -3   1   8    7.30    1.15
   3   1  -8    6.75    1.06
   3  -1  -8    8.01    1.10
  -3  -1   8    8.91    1.17
   3   1  -7  403.44    7.46
   3  -1  -7  394.70    6.82
  -3   1   7  393.05    6.79
  -3  -1   7  399.76    7.27
  -3   1   7  406.58    7.84
  -3  -1   7  404.52    7.66
   3  -1  -7  407.53    7.84
   3   1  -7  387.82    7.61
   3  -1  -6    6.37    0.73
   3   1  -6    5.73    0.91
  -3   1   6    7.41    0.69
  -3  -1   6    6.20    0.87
   3   1  -6    5.84    0.92
   3  -1  -6    6.63    0.94
  -3  -1   6    9.09    1.08
  -3   1   6    7.02    1.08
   3  -1  -5  263.10    4.76
  -3  -1   5  263.04    4.66
  -3  -1   5  264.13    5.20
   3   1  -5  271.46    5.26
  -3   1   5  263.99    4.54
  -3  -1   5  276.76    5.41
   3   1  -5  262.68    5.39
   3  -1  -5  271.48    5.61
  -3   1   5  276.12    5.65
  -3  -1   4  152.56    3.44
   3  -1  -4  146.57    2.97
  -3  -1   4  148.51    3.17
   3   1  -4  147.92    3.43
   3  -1  -4  153.37    3.38
  -3   1   4  147.91    2.78
   3   1  -4  149.03    3.51
  -3  -1   4  154.35    3.56
   3  -1  -4  151.74    3.70
  -3   1   4  151.20    3.77
   3  -1  -3  160.33    3.02
   3   1  -3  168.40    3.62
  -3  -1   3  171.00    3.53
  -3   1   3  160.51    3.01
   3  -1  -3  174.57    3.69
  -3  -1   3  166.97    3.57
  -3  -1   3  168.02    3.59
  -3   1   3  168.28    3.91
   3   1  -3  165.42    3.58
   3  -1  -3  169.42    3.84
  -3   1   2  641.93    9.26
  -3  -1   2  637.35   10.11
   3  -1  -2  673.45   10.29
  -3  -1   2  655.66   10.01
   3   1  -2  637.92   10.01
   3  -1  -2  650.62   10.31
   3  -1  -2  645.84    9.26
   3   1  -2  645.48    9.86
  -3   1   2  663.99   10.39
  -3  -1   2  670.33    9.88
  -3  -1   1  106.09    2.83
   3  -1  -1  112.99    2.98
  -3   1   1  108.15    2.21
   3   1  -1  106.70    2.71
   3  -1  -1  114.02    2.22
  -3   1   1  110.62    2.92
  -3  -1   1  108.48    2.67
   3   1  -1  111.76    2.53
   3  -1  -1  112.62    2.86
  -3  -1   1  108.38    2.50
  -3   1   1  110.26    2.19
  -3   1   0 1083.64   15.09
   3   1   0 1065.63   15.73
  -3  -1   0 1081.52   15.73
  -3   1   0 1077.23   15.91
  -3   1   0 1085.46   16.09
   3  -1   0 1137.78   16.21
  -3  -1   0 1088.91   16.04
  -3   1   0 1088.95   15.10
  -3  -1   0 1085.54   15.27
  -3  -1  -1  256.79    4.92
   3   1   1  250.06    4.88
  -3   1  -1  249.89    4.45
  -3  -1  -1  254.38    4.43
  -3   1  -1  245.23    4.91
   3  -1   1  250.87    5.18
  -3   1  -1  251.39    5.10
  -3   1  -1  248.66    4.44
   3   1   2   10.36    1.04
  -3   1  -2   10.75    0.80
  -3  -1  -2   11.69    0.98
   3  -1   2   11.76    1.17
  -3   1  -2   13.19    1.13
  -3   1  -2    9.72    0.74
   3  -1   2   12.45    0.89
  -3  -1  -2   11.30    1.03
  -3  -1  -3   48.24    1.95
  -3  -1  -3   48.66    2.00
  -3   1  -3   46.84    1.81
   3  -1   3   46.81    1.78
   3  -1   3   46.34    2.07
  -3   1  -3   44.98    1.97
  -3  -1  -4  562.35    9.54
  -3   1  -4  543.83    9.48
  -3  -1  -4  543.32    9.50
   3  -1   4  554.25    9.25
  -3   1  -4  553.66    9.25
  -3  -1  -5   70.89    2.55
  -3   1  -5   65.99    2.47
  -3  -1  -5   64.73    2.54
   3  -1   5   68.63    2.46
  -3   1  -5   64.00    2.44
   3   1   5   60.22    2.42
  -3   1  -6    3.19    0.79
  -3  -1  -6    0.90    0.81
  -3   1  -6    2.73    0.87
   3  -1   6    2.63    0.87
   3   1   6    2.58    0.82
  -3   1  -7  279.58    6.10
  -3  -1  -7  280.08    6.38
  -3   1  -7  281.72    6.28
   3  -1   7  279.81    6.29
   3   1   7  281.15    6.42
  -3   1  -8  321.80    6.74
  -3  -1  -8  305.79    7.06
   3  -1   8  316.40    7.07
  -3   1  -8  313.82    7.02
   3   1   8  319.52    7.16
  -3   1  -9  457.19    8.83
   3  -1   9  458.48    9.38
   3   1   9  461.07    9.47
  -3   1  -9  464.10    9.38
  -3  -1  -9  451.38    9.40
  -3   1 -10  814.69   13.90
   3  -1  10  833.49   14.77
   3   1  10  848.20   14.93
  -3   1 -10  808.15   14.56
  -3  -1 -10  815.93   14.72
  -3   1 -11   57.71    2.64
  -3  -1 -11   61.22    2.76
   3  -1  11   58.81    3.05
  -3   1 -11   56.88    2.99
   3   1  11   60.51    3.08
  -3  -1 -11   62.16    3.15
  -3  -1 -12    0.64    0.76
  -3   1 -12    1.59    0.74
  -3  -1 -12    1.02    1.09
  -3   1 -12   -0.04    1.00
   3  -1  12    0.65    0.93
   3   1  12    0.64    0.98
  -3  -1 -13  199.94    5.54
  -3   1 -13  199.23    5.41
  -3   1 -13  193.10    6.15
  -3  -1 -13  197.94    6.24
  -3  -1 -14  468.11    9.60
  -3   1 -14  441.73    9.25
  -3   1 -14  448.02   10.53
  -3  -1 -14  443.62   10.52
  -3  -1 -15   47.33    2.67
  -3   1 -15   39.23    2.37
  -3   1 -15   42.12    3.03
  -3  -1 -15   37.90    2.83
  -3  -1 -16   69.02    3.29
  -3   1 -16   68.25    3.15
  -3   1 -16   68.72    3.93
  -3  -1 -16   74.72    4.12
  -3   1 -17   13.85    1.53
  -3  -1 -17   12.30    1.58
  -3   1 -17   13.72    2.06
  -3  -1 -17   12.10    2.00
  -3   1 -18  294.15    7.42
  -3  -1 -18  296.97    9.37
  -3   1 -18  302.69    9.11
  -3   1 -19    8.63    1.84
  -3  -1 -19    9.87    1.94
  -3  -1 -20   44.16    3.68
  -3   1 -20   51.48    3.87
  -3   1 -21    5.38    1.80
  -3  -1 -21   12.36    2.33
  -3   1 -22  118.68    6.16
  -3  -1 -22  112.30    6.07
   3  -2 -26   50.43    4.07
   3   2 -25   51.63    4.29
   3   2 -25   49.82    4.06
   3  -2 -25   48.05    3.97
   3   2 -24  155.83    7.11
   3   2 -24  163.08    7.04
   3  -2 -24  157.90    6.76
   3   2 -23   11.99    2.25
   3   2 -23   15.43    2.44
   3  -2 -23   11.56    2.04
   3   2 -22   66.10    4.33
   3  -2 -22   62.79    3.97
   3  -2 -21    6.98    1.73
   3   2 -21    7.12    1.71
   3   2 -20  228.10    7.54
   3  -2 -20  211.78    7.06
   3   2 -19  157.57    6.04
   3  -2 -19  162.22    5.83
   3   2 -18    7.69    1.64
   3  -2 -18   12.39    1.71
   3  -2 -17   75.71    3.67
   3   2 -17   81.94    4.03
  -3   2  16  137.23    4.73
   3  -2 -16  129.92    4.69
   3   2 -16  124.62    4.91
   3   2 -15  284.69    7.80
  -3  -2  15  300.19    7.74
  -3   2  15  293.83    7.20
   3  -2 -15  295.27    7.25
   3   2 -15  286.67    7.56
   3   2 -14  119.67    4.58
   3  -2 -14  128.98    4.30
  -3  -2  14  131.61    4.62
  -3   2  14  130.15    4.27
   3   2 -14  124.28    4.55
   3   2 -14  130.12    4.84
   3   2 -13   90.87    3.81
  -3  -2  13   95.52    3.76
  -3   2  13   94.83    3.39
   3   2 -13   92.38    3.68
   3  -2 -13   89.10    3.39
   3   2 -13   94.57    3.89
  -3   2  13   88.40    3.89
   3  -2 -13   93.35    3.96
   3   2 -12  902.62   15.76
  -3   2  12  903.38   14.84
   3  -2 -12  882.56   14.81
  -3  -2  12  905.20   15.50
   3   2 -12  934.25   16.07
   3  -2 -12  919.70   16.13
  -3   2  12  890.80   15.98
   3   2 -11  261.68    6.50
  -3  -2  11  268.76    6.39
   3  -2 -11  258.78    5.85
  -3   2  11  267.27    5.86
   3   2 -11  277.42    6.74
   3  -2 -11  280.57    6.87
  -3   2  11  258.67    6.70
   3   2 -10   21.91    1.72
  -3   2  10   24.50    1.49
   3  -2 -10   25.16    1.53
  -3  -2  10   24.18    1.71
   3   2 -10   28.32    1.90
  -3   2  10   20.47    1.77
   3  -2 -10   26.50    1.94
   3   2  -9    0.91    0.77
   3  -2  -9    0.66    0.57
  -3   2   9    0.12    0.53
  -3  -2   9    0.82    0.77
  -3   2   9    0.75    0.92
   3  -2  -9    0.10    0.80
   3   2  -9    1.17    0.71
   3   2  -8    5.70    1.06
  -3  -2   8    5.48    0.93
  -3   2   8    5.39    0.75
   3  -2  -8    5.91    0.76
  -3   2   8    7.14    1.15
   3  -2  -8    6.39    1.01
   3   2  -8    4.75    0.85
   3   2  -7  516.79    9.32
  -3  -2   7  516.97    7.70
   3  -2  -7  515.85    8.23
  -3  -2   7  534.35    9.17
  -3   2   7  522.65    8.22
   3   2  -7  518.12    9.27
   3  -2  -7  515.22    9.61
  -3   2   7  523.98    9.66
   3   2  -6  279.54    5.78
  -3  -2   6  268.24    4.65
  -3  -2   6  284.04    5.78
  -3  -2   6  267.30    5.60
   3  -2  -6  271.01    4.72
  -3   2   6  274.97    4.70
   3   2  -6  285.82    5.70
  -3   2   6  285.06    6.07
   3  -2  -6  275.34    6.02
  -3  -2   6  284.40    5.70
  -3  -2   5  154.04    3.16
  -3  -2   5  162.51    3.85
   3  -2  -5  154.06    3.05
   3   2  -5  153.28    3.87
  -3   2   5  153.59    2.82
   3  -2  -5  159.33    4.07
  -3   2   5  155.80    4.07
  -3  -2   5  161.36    3.72
   3   2  -5  150.21    3.63
   3  -2  -4    2.82    0.80
  -3  -2   4    2.85    0.73
  -3  -2   4    2.76    0.58
   3   2  -4    3.24    0.84
   3  -2  -4    3.05    0.42
  -3   2   4    2.64    0.32
  -3  -2   4    2.44    0.69
   3   2  -4    2.47    0.58
  -3   2   4    4.20    1.06
  -3  -2   3    1.28    0.61
   3   2  -3    2.45    0.79
   3  -2  -3    1.37    0.28
   3  -2  -3    0.47    0.61
  -3   2   3    0.64    0.84
   3   2  -3    0.70    0.49
  -3  -2   3    2.54    0.63
  -3  -2   2  214.13    4.51
   3  -2  -2  219.52    4.72
   3   2  -2  218.44    4.56
  -3   2   2  214.72    4.76
  -3  -2   2  219.66    3.98
   3   2  -2  214.04    3.95
   3  -2  -1  168.64    3.97
  -3  -2   1  171.14    3.86
   3   2  -1  170.04    3.88
  -3   2   1  172.99    4.01
  -3   2   1  172.80    2.74
   3   2  -1  167.15    3.17
   3  -2  -1  183.21    4.08
  -3   2   1  172.04    2.76
  -3  -2   1  173.09    3.17
  -3  -2   0   11.14    0.97
  -3   2   0   11.46    0.59
  -3   2   0   14.03    1.20
   3   2   0   11.83    1.07
   3  -2   0   10.37    1.12
  -3   2   0   11.09    0.63
  -3  -2   0   12.19    0.68
   3  -2   0   11.76    0.63
  -3  -2  -1   59.63    1.53
  -3  -2  -1   57.45    2.12
   3   2   1   58.23    2.18
  -3   2  -1   64.70    1.63
  -3   2  -1   61.04    1.64
   3  -2   1   61.56    1.69
   3  -2   1   61.63    2.31
   3   2   2  608.89   10.21
  -3  -2  -2  620.45   10.25
   3  -2   2  626.97   10.35
  -3   2  -2  638.34    9.56
   3  -2   2  610.43    9.50
  -3  -2  -3   80.22    2.68
   3   2   3   80.14    2.68
   3  -2   3   82.20    2.76
   3  -2   3   80.37    2.34
  -3   2  -3   79.69    2.35
  -3  -2  -3   82.63    2.71
  -3  -2  -4  318.49    6.47
  -3   2  -4  312.96    6.33
   3  -2   4  314.48    6.41
  -3   2  -4  322.96    6.07
   3  -2   4  315.20    6.02
  -3  -2  -4  310.69    6.40
  -3  -2  -5   76.65    2.81
   3  -2   5   74.14    2.73
  -3   2  -5   78.44    2.71
  -3  -2  -5   75.06    2.85
  -3   2  -5   75.37    2.63
   3  -2   5   80.66    2.64
  -3  -2  -6  185.79    4.82
  -3   2  -6  176.82    4.48
   3  -2   6  176.10    4.47
  -3   2  -6  181.76    4.52
  -3  -2  -6  173.89    4.69
   3  -2   6  174.31    4.45
   3   2   6  177.08    4.76
  -3  -2  -7  503.78    9.64
  -3   2  -7  492.69    9.09
  -3   2  -7  493.32    9.26
   3  -2   7  500.87    9.33
  -3  -2  -7  482.41    9.47
   3   2   7  488.77    9.57
  -3  -2  -8  735.73   13.05
  -3   2  -8  713.65   12.27
  -3   2  -8  709.18   12.62
  -3  -2  -8  729.48   12.93
   3  -2   8  719.53   12.71
   3   2   8  743.14   13.05
  -3   2  -9  103.10    3.41
   3  -2   9  107.11    3.83
  -3   2  -9   98.28    3.67
  -3  -2  -9  101.65    3.82
   3   2   9   99.76    3.80
  -3   2 -10   87.89    3.17
  -3  -2 -10   83.60    3.58
  -3   2 -10   83.13    3.50
   3  -2  10   88.93    3.61
   3   2  10   88.29    3.65
  -3   2 -11  186.06    5.03
  -3   2 -11  190.14    5.73
   3  -2  11  195.92    5.78
  -3  -2 -11  180.83    5.65
   3   2  11  189.75    5.76
  -3   2 -12  534.50   10.32
  -3   2 -12  545.90   11.39
   3  -2  12  571.80   11.61
  -3  -2 -12  543.32   11.49
  -3   2 -13  367.36    7.93
  -3   2 -13  357.54    8.91
  -3  -2 -13  362.11    9.00
  -3   2 -14   16.59    1.57
  -3  -2 -14   18.80    2.12
  -3   2 -14   18.82    2.09
  -3   2 -15    0.30    0.79
  -3   2 -15    1.86    1.38
  -3  -2 -15    2.66    1.38
  -3  -2 -16  126.71    4.60
  -3  -2 -16  122.94    5.33
  -3   2 -16  131.29    5.43
  -3  -2 -17  323.23    9.34
  -3   2 -17  319.91    9.24
  -3  -2 -18   50.15    3.71
  -3   2 -18   58.15    3.92
  -3  -2 -19   45.83    3.62
  -3   2 -19   50.73    3.83
  -3  -2 -20   98.12    5.30
  -3   2 -20  100.98    5.41
  -3  -2 -21   94.27    5.43
  -3   2 -21   98.98    5.51
  -3   2 -22   36.92    3.57
  -3  -2 -22   38.08    3.64
   3  -3 -26    1.38    1.53
   3  -3 -25    1.34    1.53
   3   3 -24   57.64    4.37
   3  -3 -24   48.22    3.87
   3   3 -23  118.66    6.07
   3   3 -23  125.05    6.06
   3  -3 -23  113.90    5.56
   3   3 -22   21.42    2.77
   3   3 -22   20.25    2.73
   3  -3 -22   16.52    2.28
   3   3 -21    7.94    2.03
   3   3 -21    7.08    1.71
   3  -3 -21    9.14    1.96
   3   3 -20   47.78    3.59
   3  -3 -20   44.85    3.19
   3   3 -20   44.11    3.45
   3   3 -19   51.15    3.60
   3   3 -19   50.10    3.51
   3  -3 -19   47.92    3.15
   3   3 -18   25.89    2.59
   3   3 -18   23.23    2.47
   3  -3 -18   20.85    2.10
   3   3 -17   25.64    2.47
   3  -3 -17   26.23    2.19
   3   3 -17   21.58    2.21
   3   3 -16    0.59    1.13
  -3   3  16    0.83    0.84
   3  -3 -16   -0.65    1.06
   3   3 -15   14.59    1.83
   3  -3 -15   13.51    1.61
  -3   3  15   11.93    1.37
  -3   3  15   10.93    1.73
   3   3 -14    6.62    1.37
   3  -3 -14    7.06    1.18
  -3  -3  14    7.79    1.39
  -3   3  14    5.58    0.96
  -3   3  14    5.92    1.32
   3   3 -13   52.26    2.95
   3  -3 -13   51.13    2.52
  -3   3  13   48.40    2.44
  -3  -3  13   55.45    2.93
   3  -3 -13   54.64    3.04
   3   3 -13   53.98    2.97
  -3   3  13   49.69    2.94
   3   3 -12  262.86    6.84
   3  -3 -12  263.50    6.03
  -3   3  12  263.81    6.02
  -3  -3  12  270.53    6.78
   3  -3 -12  272.60    7.01
   3   3 -12  275.65    6.96
  -3   3  12  251.07    6.86
   3   3 -11  170.93    5.10
  -3   3  11  171.65    4.36
   3  -3 -11  162.52    4.29
  -3  -3  11  174.76    5.03
  -3   3  11  166.48    5.18
   3   3 -11  175.19    5.14
   3  -3 -11  172.73    5.23
   3   3 -10    0.59    0.82
   3  -3 -10    0.23    0.63
  -3  -3  10    0.44    0.85
  -3   3  10    0.21    0.53
   3   3 -10    0.81    0.74
  -3   3  10    1.68    1.07
   3  -3 -10    1.41    0.89
   3   3  -9  163.55    4.72
  -3  -3   9  164.68    4.60
  -3   3   9  165.75    3.82
   3  -3  -9  166.78    3.85
  -3   3   9  159.25    4.79
   3  -3  -9  161.38    4.78
   3   3  -9  164.42    4.59
   3   3  -8  854.71   14.23
  -3  -3   8  846.14   11.90
  -3   3   8  858.59   12.79
   3  -3  -8  843.77   12.79
  -3  -3   8  871.55   14.13
  -3   3   8  857.92   14.47
   3  -3  -8  876.93   14.53
   3   3  -8  844.83   14.00
   3   3  -7    0.56    0.82
  -3  -3   7    1.90    0.86
  -3  -3   7    0.84    0.38
   3  -3  -7    0.46    0.43
  -3  -3   7    1.93    0.85
  -3   3   7    0.59    0.42
  -3   3   7    0.87    0.90
   3  -3  -7    1.54    0.89
   3   3  -7    2.67    0.82
  -3  -3   6   89.79    2.95
   3   3  -6   87.36    2.99
   3  -3  -6   85.34    2.01
  -3   3   6   86.33    2.00
   3   3  -6   87.48    2.75
  -3   3   6   84.93    3.09
   3  -3  -6   89.29    3.10
   3  -3  -5    1.97    0.79
   3   3  -5    2.49    0.93
  -3  -3   5   -0.05    0.70
   3  -3  -5    1.16    0.30
   3   3  -5    1.63    0.62
  -3   3   5    1.85    0.34
  -3   3   5    1.30    0.84
  -3  -3   4  133.56    3.60
   3  -3  -4  130.10    2.31
   3   3  -4  128.30    3.61
   3   3  -4  136.72    3.13
   3  -3  -4  135.78    3.72
  -3   3   4  133.83    3.79
  -3  -3   3  831.91   12.97
   3  -3  -3  812.50   13.08
   3   3  -3  797.79   12.94
   3   3  -3  815.04   11.98
  -3  -3   3  827.04   11.98
  -3   3   3  810.86   13.13
  -3  -3   2  104.95    3.06
   3   3  -2  107.31    3.10
   3  -3  -2  104.55    3.12
  -3   3   2  108.95    3.20
  -3  -3   2  108.03    2.32
   3   3  -2  106.12    2.33
   3   3  -1  321.16    6.29
  -3   3   1  324.21    6.39
  -3  -3   1  325.45    6.31
   3   3  -1  314.80    4.96
  -3  -3   1  327.48    4.98
  -3  -3   0  946.09   14.60
  -3   3   0  950.02   14.70
   3   3   0  934.70   14.64
   3  -3   0  925.01   13.00
  -3   3   0  965.69   13.03
  -3  -3   0  948.01   12.82
  -3  -3  -1  934.20   14.48
   3   3   1  921.72   14.51
   3  -3   1  958.47   14.57
   3  -3   1  898.64   13.15
  -3   3  -1  942.53   13.19
  -3  -3  -1  936.43   12.55
   3   3   2  183.19    4.52
  -3  -3  -2  185.76    4.52
  -3  -3  -2  189.21    3.08
   3  -3   2  187.24    3.74
  -3   3  -2  188.99    3.76
   3  -3   2  193.99    4.56
  -3  -3  -3    1.89    0.77
   3   3   3    0.96    0.83
   3  -3   3    0.54    0.83
   3  -3   3    1.17    0.55
  -3   3  -3    0.49    0.57
  -3  -3  -4  223.55    5.33
   3   3   4  225.39    5.30
   3  -3   4  229.43    5.19
  -3   3  -4  227.83    4.81
   3  -3   4  224.10    4.78
  -3  -3  -4  230.29    5.36
  -3  -3  -5  394.02    7.84
   3  -3   5  386.51    7.51
  -3   3  -5  380.36    7.24
   3  -3   5  374.79    7.21
  -3  -3  -5  390.29    7.76
  -3  -3  -6   13.58    1.33
   3  -3   6   12.90    1.31
   3  -3   6   13.18    1.21
  -3   3  -6   13.47    1.28
  -3  -3  -6   12.32    1.47
  -3  -3  -7   70.38    2.99
  -3   3  -7   66.12    2.73
   3  -3   7   69.06    2.77
  -3  -3  -7   74.14    3.04
   3  -3   7   65.13    2.64
  -3  -3  -8  136.55    4.39
   3  -3   8  120.56    3.75
  -3  -3  -8  124.83    4.22
  -3   3  -8  129.88    4.10
   3  -3   8  132.68    4.12
  -3  -3  -9  503.05   10.36
   3  -3   9  519.47   10.11
  -3  -3  -9  486.29   10.17
  -3   3  -9  494.05    9.94
   3   3   9  519.79   10.39
  -3  -3 -10  104.18    4.10
   3  -3  10  109.20    4.03
  -3  -3 -10  104.97    4.10
  -3   3 -10  104.53    3.99
   3   3  10  110.55    4.18
  -3  -3 -11    4.46    1.25
  -3  -3 -11    5.35    1.45
  -3   3 -11    2.27    1.03
   3  -3  11    2.07    0.98
   3   3  11    4.17    1.19
   3  -3  12   86.03    3.84
  -3  -3 -12   81.02    3.81
  -3   3 -12   81.07    3.75
  -3  -3 -12   82.58    3.33
  -3  -3 -13  516.82   11.47
  -3   3 -13  517.67   11.35
  -3  -3 -13  526.33   10.56
  -3   3 -14    1.93    1.30
  -3  -3 -14    2.44    1.15
  -3  -3 -14    1.12    0.86
  -3  -3 -15  192.04    6.64
  -3   3 -15  199.48    6.67
  -3  -3 -15  204.50    6.13
  -3  -3 -16    4.98    1.57
  -3   3 -16    5.18    1.67
  -3  -3 -17   68.49    4.17
  -3   3 -17   74.74    4.29
  -3   3 -18   34.60    3.12
  -3  -3 -18   34.84    3.16
  -3  -3 -19  152.81    6.52
  -3   3 -19  144.41    6.38
  -3   3 -20   15.96    2.49
  -3  -3 -20   12.65    2.33
  -3  -3 -21   -0.62    1.52
  -3   3 -21   -1.10    1.58
  -3  -3 -22    0.16    1.59
  -3   3 -22    6.93    2.18
   3  -4 -26   14.90    2.53
   3  -4 -25  274.01    9.30
   3   4 -24   12.06    2.49
   3  -4 -24   11.84    2.29
   3   4 -23   23.85    2.95
   3  -4 -23   20.41    2.57
   3   4 -22    8.35    2.16
   3  -4 -22    7.07    1.78
   3   4 -21  248.97    8.55
   3  -4 -21  239.82    7.71
   3   4 -20   30.50    2.98
   3  -4 -20   35.10    2.86
   3   4 -19   99.08    5.02
   3  -4 -19   93.14    4.29
   3   4 -18    1.38    1.19
   3  -4 -18    5.76    1.40
   3   4 -17  175.14    6.41
  -3   4  17  187.03    5.84
   3  -4 -17  183.63    5.78
   3   4 -16  494.08   11.36
  -3   4  16  485.52   10.30
   3  -4 -16  477.83   10.20
  -3   4  16  476.83   11.31
   3   4 -15  371.47    9.34
  -3   4  15  371.80    8.31
   3  -4 -15  370.80    8.32
  -3   4  15  365.01    9.38
   3   4 -14  209.56    6.46
   3  -4 -14  209.44    5.59
  -3   4  14  206.27    5.56
  -3   4  14  204.35    6.39
   3   4 -13   46.55    2.83
  -3  -4  13   44.20    2.69
  -3   4  13   45.74    2.32
   3  -4 -13   43.96    2.31
   3  -4 -13   45.26    2.80
  -3   4  13   41.73    2.72
   3   4 -13   43.87    2.68
   3   4 -12  104.84    4.11
  -3   4  12  103.83    3.38
  -3  -4  12  101.90    3.95
   3  -4 -12  101.03    3.37
   3  -4 -12  103.98    4.11
   3   4 -12  102.80    4.02
  -3   4  12  102.07    4.14
   3   4 -11  916.63   16.02
  -3  -4  11  918.56   15.84
  -3   4  11  895.84   14.44
   3  -4 -11  889.24   14.43
   3  -4 -11  938.47   16.19
   3   4 -11  928.29   15.79
  -3   4  11  900.01   16.03
   3   4 -10  372.30    8.31
  -3   4  10  378.30    7.05
   3  -4 -10  371.69    7.05
  -3  -4  10  384.22    8.26
   3  -4 -10  381.15    8.47
  -3   4  10  369.31    8.35
   3   4 -10  372.99    8.06
   3   4  -9   44.60    2.46
  -3  -4   9   42.96    1.19
   3  -4  -9   42.73    1.79
  -3  -4   9   40.56    2.25
  -3   4   9   41.51    1.72
   3   4  -9   41.57    2.20
  -3   4   9   44.04    2.53
   3  -4  -9   43.00    2.41
   3   4  -8  233.02    5.86
   3  -4  -8  232.92    4.55
  -3   4   8  232.98    4.54
  -3  -4   8  234.39    5.74
  -3   4   8  231.26    5.88
   3   4  -8  223.36    5.42
   3  -4  -8  236.93    5.94
  -3  -4   7  305.20    6.78
   3   4  -7  319.42    6.97
   3  -4  -7  307.78    5.33
   3  -4  -7  310.79    6.94
  -3   4   7  313.52    5.34
   3   4  -7  313.50    6.40
  -3   4   7  310.09    6.98
   3   4  -6  159.28    4.50
  -3  -4   6  163.66    4.46
   3  -4  -6  166.35    3.11
   3  -4  -6  172.85    4.64
   3   4  -6  168.13    4.04
  -3   4   6  165.34    4.57
  -3  -4   5  616.68   10.80
   3   4  -5  623.31   10.83
   3  -4  -5  610.82    8.67
   3  -4  -5  629.51   10.94
  -3   4   5  606.42   10.88
   3   4  -5  626.80    9.98
   3   4  -4  501.73    9.09
  -3  -4   4  495.99    9.03
   3  -4  -4  500.85    9.09
   3  -4  -4  485.47    6.90
   3   4  -4  487.25    7.97
  -3   4   4  496.25    9.09
  -3  -4   3  348.29    7.00
   3   4  -3  356.44    7.07
   3  -4  -3  343.59    7.05
   3   4  -3  354.51    5.87
  -3   4   3  360.63    7.13
  -3  -4   2  152.59    4.01
   3   4  -2  150.08    4.01
  -3   4   2  149.76    4.03
   3  -4  -2  143.50    3.97
   3   4  -2  147.72    2.83
  -3   4   1  859.52   13.58
   3   4  -1  846.13   13.51
  -3  -4   1  842.69   13.50
   3  -4  -1  831.61   11.31
   3   4  -1  827.10   11.42
   3   4   0  138.88    3.81
  -3  -4   0  139.12    3.83
  -3   4   0  136.07    3.84
   3  -4   0  132.44    2.57
  -3   4   0  139.03    2.35
  -3  -4  -1  146.14    4.00
   3   4   1  146.13    4.02
   3  -4   1  147.05    2.99
  -3   4  -1  147.45    2.98
   3   4   2   21.46    1.57
  -3  -4  -2   25.75    1.68
   3  -4   2   25.17    1.20
  -3   4  -2   25.37    1.21
   3   4   3  417.84    8.31
  -3  -4  -3  449.07    8.49
   3  -4   3  432.25    8.20
   3  -4   3  434.93    7.43
  -3   4  -3  421.61    7.41
  -3  -4  -3  438.23    6.20
  -3  -4  -4    1.38    0.74
   3   4   4    1.07    0.86
   3  -4   4   -0.61    0.93
  -3   4  -4    0.52    0.59
   3  -4   4    0.94    0.66
  -3  -4  -4    1.65    0.90
  -3  -4  -4    1.35    0.35
  -3  -4  -5 1266.51   19.72
   3  -4   5 1239.96   19.15
   3  -4   5 1238.70   18.77
  -3   4  -5 1261.33   18.76
  -3  -4  -5 1256.05   17.46
  -3  -4  -5 1234.80   19.51
  -3  -4  -6  567.98   10.63
   3  -4   6  549.55   10.04
   3  -4   6  553.69    9.96
  -3   4  -6  562.76    9.94
  -3  -4  -6  562.37   10.57
  -3  -4  -6  554.86    8.79
  -3  -4  -7  969.96   16.32
   3  -4   7  973.31   15.62
   3  -4   7  960.43   15.72
  -3  -4  -7  953.28   16.20
  -3   4  -7  951.70   15.61
  -3  -4  -7  968.55   14.42
  -3  -4  -8  316.25    7.46
   3  -4   8  296.89    6.65
  -3  -4  -8  300.26    7.22
  -3   4  -8  307.27    6.92
   3  -4   8  305.17    6.98
  -3  -4  -8  294.53    5.91
  -3  -4  -9    2.33    0.92
   3  -4   9    2.41    0.90
  -3  -4  -9    0.97    0.89
  -3   4  -9    1.33    0.92
   3  -4   9    0.78    0.75
  -3  -4  -9    2.17    0.66
  -3  -4 -10   76.18    3.54
  -3  -4 -10   68.66    3.37
  -3   4 -10   65.41    3.14
   3  -4  10   76.73    3.38
  -3  -4 -10   72.16    2.74
   3  -4  11  498.43   10.51
  -3  -4 -11  479.26   10.56
  -3   4 -11  486.51   10.33
  -3  -4 -11  483.08    9.33
  -3   4 -12    2.80    1.11
  -3  -4 -12    3.16    1.38
  -3  -4 -12    5.38    1.01
  -3   4 -13   17.03    2.01
  -3  -4 -13   18.24    2.11
  -3  -4 -13   18.95    1.66
  -3   4 -14  156.29    5.65
  -3  -4 -14  148.44    5.72
  -3  -4 -14  150.01    4.92
  -3   4 -15  228.36    7.29
  -3  -4 -15  228.44    7.34
  -3  -4 -15  234.59    6.59
  -3   4 -16   38.34    3.04
  -3  -4 -16   38.58    3.03
  -3  -4 -17   80.03    4.48
  -3   4 -17   82.07    4.44
  -3  -4 -18   45.75    3.60
  -3   4 -18   48.27    3.72
  -3  -4 -19    0.40    1.42
  -3   4 -19    0.36    1.61
  -3  -4 -20  104.87    5.63
  -3   4 -20  118.78    5.87
  -3   4 -21   73.29    4.76
  -3  -4 -21   81.92    4.99
  -3  -4 -22   -1.86    1.88
  -3   4 -22    6.93    2.28
   3  -5 -26   14.92    2.42
   3  -5 -25    7.04    2.14
   3   5 -24    1.62    1.72
   3  -5 -24    1.67    1.40
   3   5 -23   71.48    4.87
   3  -5 -23   74.13    4.46
   3   5 -22    1.50    1.50
   3  -5 -22    1.26    1.30
   3   5 -21  173.56    7.17
   3  -5 -21  160.48    6.17
   3   5 -20   -3.03    1.71
   3  -5 -20   -3.15    1.57
   3   5 -19  247.09    8.26
   3  -5 -19  233.22    7.14
   3   5 -18   79.51    4.43
   3  -5 -18   80.53    3.87
   3   5 -17  248.32    7.77
  -3   5  17  241.45    6.76
   3  -5 -17  236.67    6.73
  -3   5  17  232.59    7.66
   3   5 -16   54.35    3.46
  -3   5  16   50.52    2.81
   3  -5 -16   54.55    2.94
  -3   5  16   48.98    3.29
   3   5 -15  602.17   12.97
  -3   5  15  617.21   11.66
   3  -5 -15  586.90   11.52
  -3   5  15  590.88   12.86
   3   5 -14   65.06    3.52
   3  -5 -14   67.31    2.98
  -3   5  14   64.73    2.91
  -3   5  14   61.26    3.48
   3   5 -13  904.94   16.68
   3  -5 -13  898.10   15.08
  -3   5  13  925.02   15.13
   3   5 -13  896.66   16.38
  -3   5  13  893.37   16.56
   3   5 -12   -0.25    1.04
   3  -5 -12    0.02    0.68
  -3  -5  12    1.93    0.91
   3   5 -12    0.14    0.77
  -3   5  12   -0.02    1.06
   3  -5 -12    1.03    0.90
  -3   5  12    0.51    0.68
   3   5 -11   84.10    3.65
   3  -5 -11   82.58    2.86
  -3  -5  11   85.83    3.60
  -3   5  11   80.19    3.58
  -3   5  11   79.12    2.78
   3   5 -11   84.51    3.48
   3  -5 -11   81.60    3.59
   3   5 -10    0.67    1.04
   3  -5 -10    0.50    0.59
  -3  -5  10    1.06    0.92
  -3   5  10   -0.60    1.12
   3   5 -10    0.35    0.85
  -3   5  10   -0.22    0.60
   3  -5 -10    0.95    0.97
   3   5  -9 2473.13   35.76
   3  -5  -9 2428.09   33.52
  -3  -5   9 2370.21   35.67
  -3   5   9 2446.85   33.52
   3  -5  -9 2499.54   35.72
  -3   5   9 2387.18   35.60
   3   5  -9 2404.22   34.99
  -3  -5   8   99.18    3.64
   3   5  -8   86.68    3.48
   3  -5  -8   88.42    2.46
  -3  -5   8   91.36    3.43
   3  -5  -8   92.18    3.50
  -3   5   8   85.77    3.46
   3   5  -8   94.99    3.26
   3  -5  -7  224.33    4.42
  -3  -5   7  234.81    5.86
   3   5  -7  231.39    5.92
   3  -5  -7  222.93    4.24
   3  -5  -7  230.29    5.83
   3   5  -7  228.04    5.20
  -3   5   7  218.97    5.75
   3  -5  -6  165.67    3.34
   3   5  -6  169.48    4.76
  -3  -5   6  175.00    4.77
   3  -5  -6  164.56    3.18
  -3   5   6  167.47    4.72
   3  -5  -6  173.38    4.79
   3   5  -6  164.40    4.06
   3  -5  -5 1862.74   26.71
   3  -5  -5 1775.58   24.20
  -3  -5   5 1858.51   26.73
   3   5  -5 1813.94   26.71
   3  -5  -5 1791.11   24.02
  -3   5   5 1815.99   26.70
   3   5  -5 1750.71   25.26
   3  -5  -4  147.18    2.61
   3  -5  -4  161.11    4.38
   3   5  -4  154.16    4.35
  -3  -5   4  146.59    4.25
   3  -5  -4  150.05    2.54
  -3   5   4  148.16    4.25
   3   5  -4  149.73    3.35
  -3  -5   3  628.20   10.97
   3  -5  -3  634.67   10.99
   3   5  -3  614.70   10.94
   3  -5  -3  611.14    8.46
  -3   5   3  611.96   10.91
   3   5  -3  613.66    9.31
   3   5  -2  265.53    6.05
  -3   5   2  260.96    5.98
   3  -5  -2  263.35    5.96
  -3  -5   2  260.69    5.94
   3  -5  -2  262.20    4.03
   3   5  -2  266.03    4.38
  -3   5   1  447.36    6.33
  -3   5   1  448.51    8.63
   3   5  -1  464.06    8.71
  -3  -5   1  459.82    8.70
   3  -5  -1  453.14    6.68
   3   5  -1  448.45    6.42
   3   5   0    1.15    0.87
  -3   5   0    0.86    0.89
   3  -5   0    0.87    0.34
  -3  -5   0    1.52    0.79
  -3   5   0    1.23    0.32
   3   5   1    1.41    0.77
  -3   5  -1    1.25    0.85
   3  -5   1    1.55    0.45
  -3   5  -1    1.96    0.43
  -3  -5  -1    0.98    0.78
  -3  -5  -2    7.31    1.05
   3   5   2    7.86    1.28
  -3   5  -2    7.05    0.81
   3  -5   2    6.10    0.72
  -3   5  -2    7.92    0.74
  -3  -5  -3   46.06    2.33
   3   5   3   42.66    2.27
   3  -5   3   44.88    1.80
  -3   5  -3   47.23    1.87
   3   5   4   34.74    2.11
  -3  -5  -4   39.72    2.17
   3  -5   4   36.21    1.74
  -3   5  -4   35.77    1.74
  -3  -5  -4   37.90    1.03
   3   5   5    1.67    1.04
  -3  -5  -5    2.57    0.93
   3  -5   5    1.78    0.94
  -3   5  -5    2.60    0.83
   3  -5   5    3.26    0.78
  -3  -5  -5    2.64    0.45
  -3  -5  -5    2.48    0.96
  -3  -5  -6   80.12    3.31
   3  -5   6   76.88    2.98
   3  -5   6   78.63    2.89
  -3   5  -6   82.34    2.96
  -3  -5  -6   77.39    2.11
  -3  -5  -6   81.61    3.30
  -3  -5  -7   19.32    1.75
   3  -5   7   19.71    1.59
   3  -5   7   17.81    1.54
  -3   5  -7   18.39    1.52
  -3  -5  -7   20.00    1.12
  -3  -5  -7   18.58    1.77
  -3  -5  -8   31.79    2.19
   3  -5   8   30.23    1.95
  -3  -5  -8   31.18    2.20
   3  -5   8   28.18    1.92
  -3   5  -8   30.36    2.06
  -3  -5  -8   29.63    1.50
  -3  -5  -9  225.12    6.31
   3  -5   9  223.08    5.61
  -3   5  -9  204.82    5.76
   3  -5   9  213.03    5.84
  -3  -5  -9  212.55    6.14
  -3  -5  -9  222.03    4.93
  -3  -5 -10   66.38    3.36
   3  -5  10   59.81    2.75
  -3  -5 -10   68.69    3.45
  -3   5 -10   63.84    3.13
   3  -5  10   61.99    3.10
  -3  -5 -10   64.19    2.53
   3  -5  11  292.61    6.78
  -3  -5 -11  277.18    7.60
  -3   5 -11  283.69    7.38
   3  -5  11  293.81    7.53
  -3  -5 -11  288.77    6.46
  -3  -5 -12    0.85    1.22
  -3   5 -12    1.80    1.22
  -3  -5 -12    0.19    0.69
  -3  -5 -13  221.17    6.93
  -3   5 -13  221.05    6.73
  -3  -5 -13  225.88    5.94
  -3   5 -14   16.73    2.05
  -3  -5 -14   20.19    2.24
  -3  -5 -14   19.51    1.76
  -3   5 -15  231.70    7.39
  -3  -5 -15  229.93    7.44
  -3  -5 -15  234.92    6.53
  -3   5 -16   25.29    2.48
  -3  -5 -16   24.96    2.69
  -3  -5 -17    1.26    1.48
  -3   5 -17    0.85    1.29
  -3  -5 -18   30.39    3.00
  -3   5 -18   32.18    3.05
  -3   5 -19  412.56   11.47
  -3  -5 -19  404.34   11.43
  -3   5 -20    8.01    2.15
  -3  -5 -20    2.62    1.50
  -3   5 -21   24.12    2.87
  -3  -5 -21   32.28    3.39
  -3  -5 -22   18.55    2.85
  -3   5 -22   14.79    2.71
   3  -6 -26   69.69    4.66
   3  -6 -25  122.94    6.02
   3  -6 -24    5.56    1.84
   3   6 -23   15.48    2.58
   3  -6 -23   16.06    2.29
   3   6 -22   -0.13    1.58
   3  -6 -22    2.27    1.52
   3   6 -21   62.42    4.35
   3  -6 -21   55.32    3.59
   3   6 -20   99.31    5.32
   3  -6 -20   94.30    4.50
   3   6 -19    3.67    1.58
   3  -6 -19    3.44    1.26
   3   6 -18    5.85    1.63
   3  -6 -18    6.86    1.37
   3   6 -17    4.40    1.62
   3  -6 -17    3.60    1.28
  -3   6  17    2.37    1.37
   3   6 -16  538.94   12.42
   3  -6 -16  525.73   10.86
  -3   6  16  537.35   10.91
  -3   6  16  498.51   11.95
   3   6 -15  144.67    5.66
   3  -6 -15  144.32    4.75
  -3   6  15  142.02    4.67
  -3   6  15  139.76    5.47
   3   6 -14    2.04    1.14
   3  -6 -14    4.54    0.98
  -3   6  14    3.42    1.28
  -3   6  14    4.41    0.99
   3   6 -13    6.84    1.57
   3  -6 -13    5.73    1.08
   3   6 -13    5.18    1.24
  -3   6  13    5.06    1.39
  -3   6  13    3.28    0.86
   3   6 -12  130.80    4.95
   3  -6 -12  132.51    3.98
  -3   6  12  128.56    4.83
   3   6 -12  138.88    4.77
   3  -6 -12  142.93    5.04
  -3   6  12  136.55    3.99
   3   6 -11  510.35   10.94
   3  -6 -11  499.91    9.13
  -3  -6  11  519.84   10.86
  -3   6  11  495.81   10.69
   3   6 -11  498.35   10.30
   3  -6 -11  511.93   10.81
   3   6 -10  605.20   12.42
  -3  -6  10  663.48   12.52
   3  -6 -10  629.05   10.59
   3   6 -10  616.18   11.78
  -3   6  10  630.07   12.33
   3  -6 -10  662.04   12.44
   3  -6  -9   18.93    1.79
   3  -6  -9   19.78    1.30
   3   6  -9   19.22    1.83
   3  -6  -9   21.14    1.28
  -3  -6   9   20.20    1.76
  -3   6   9   19.41    1.82
   3   6  -9   20.08    1.63
   3  -6  -8    0.59    0.47
   3  -6  -8    1.32    0.81
   3   6  -8    1.03    0.97
  -3  -6   8    0.70    0.76
  -3  -6   8    0.70    0.88
   3  -6  -8    1.06    0.55
  -3   6   8    0.06    0.94
   3   6  -8    1.52    0.74
   3  -6  -7  107.18    2.77
  -3  -6   7  114.49    3.99
   3   6  -7  107.79    3.98
   3  -6  -7  106.58    2.65
   3  -6  -7  112.99    3.95
  -3   6   7  109.29    3.91
   3   6  -7  109.81    3.38
   3  -6  -6 1537.98   21.59
   3  -6  -6 1550.12   23.92
  -3  -6   6 1596.10   24.08
   3   6  -6 1580.50   24.08
   3  -6  -6 1555.02   21.43
  -3   6   6 1536.14   23.87
   3   6  -6 1551.83   22.66
   3  -6  -5  534.18    8.27
   3  -6  -5  562.06   10.47
  -3  -6   5  559.00   10.54
   3   6  -5  556.18   10.62
   3  -6  -5  555.57    8.20
   3   6  -5  540.31    9.16
  -3   6   5  539.00   10.37
  -3  -6   4    9.45    1.25
   3   6  -4    7.61    1.14
   3  -6  -4    9.39    0.59
   3  -6  -4   10.94    1.23
  -3   6   4   10.28    1.33
   3  -6  -4    9.18    0.58
   3   6  -4    9.44    0.80
  -3  -6   3  248.49    5.95
   3  -6  -3  229.79    3.82
   3  -6  -3  252.41    5.91
   3   6  -3  241.47    5.93
  -3   6   3  242.65    5.86
   3   6  -3  238.66    4.39
  -3   6   2   73.76    1.58
   3   6  -2   73.56    3.04
  -3   6   2   71.73    2.91
   3  -6  -2   68.91    1.54
  -3  -6   2   70.76    2.90
   3  -6  -2   67.56    1.71
   3   6  -2   70.98    1.76
  -3   6   1 1201.39   16.11
   3   6  -1 1188.99   18.73
  -3   6   1 1203.23   18.71
  -3  -6   1 1216.33   18.86
   3  -6  -1 1163.86   16.44
   3   6  -1 1158.46   15.87
  -3  -6   0   43.64    2.31
  -3   6   0   44.72    2.33
   3   6   0   46.38    2.41
   3  -6   0   47.66    1.56
  -3   6   0   45.66    1.38
   3   6   1   13.34    1.41
  -3   6  -1   13.89    1.47
   3  -6   1   12.13    0.88
  -3  -6  -1   14.96    1.44
  -3   6  -1   13.16    0.84
   3   6   2   76.60    3.07
  -3  -6  -2   72.42    3.04
   3  -6   2   78.77    2.37
  -3   6  -2   79.02    2.22
   3   6   3  302.40    7.02
  -3  -6  -3  321.05    7.18
   3  -6   3  296.30    5.98
  -3   6  -3  312.98    5.80
  -3  -6  -4 1457.35   22.47
   3   6   4 1386.90   22.30
  -3   6  -4 1452.03   20.82
   3  -6   4 1421.00   21.09
  -3   6  -4 1424.54   21.07
   3   6   5   -0.20    1.02
  -3  -6  -5   -0.59    0.87
  -3   6  -5   -0.12    0.72
   3  -6   5    0.34    0.60
  -3  -6  -5    0.84    0.32
   3   6   6   -0.19    0.97
  -3  -6  -6    0.65    0.78
   3  -6   6    0.81    0.83
  -3   6  -6   -0.70    0.75
   3  -6   6    0.59    0.66
  -3  -6  -6    0.54    0.38
  -3  -6  -6    1.28    1.04
  -3  -6  -7  384.84    8.67
   3  -6   7  364.93    7.85
   3  -6   7  379.34    7.99
  -3   6  -7  386.83    7.98
  -3  -6  -7  374.75    8.45
  -3  -6  -7  369.07    6.46
  -3  -6  -8   34.73    2.34
   3  -6   8   29.01    1.98
   3  -6   8   28.97    2.01
  -3   6  -8   29.07    2.00
  -3  -6  -8   28.31    2.27
  -3  -6  -8   28.94    1.45
  -3  -6  -9   24.38    2.05
   3  -6   9   21.33    1.71
   3  -6   9   23.26    1.91
  -3   6  -9   21.07    1.89
  -3  -6  -9   21.12    1.35
  -3  -6  -9   21.26    1.97
   3  -6  10    7.51    1.21
   3  -6  10    9.54    1.43
  -3   6 -10    8.05    1.48
  -3  -6 -10    6.97    1.43
  -3  -6 -10    8.56    1.02
   3  -6  11  415.96    8.83
  -3  -6 -11  418.32    9.87
  -3   6 -11  434.66    9.69
   3  -6  11  428.02    9.71
  -3  -6 -11  414.98    8.24
   3  -6  12   25.46    1.94
  -3  -6 -12   27.73    2.48
  -3   6 -12   23.22    2.14
  -3  -6 -12   26.04    1.78
  -3  -6 -13    1.37    1.16
  -3   6 -13   -0.65    1.21
  -3  -6 -13   -0.29    0.71
  -3  -6 -14    6.86    1.73
  -3   6 -14    6.10    1.76
  -3  -6 -14    4.30    1.01
  -3  -6 -15  208.17    7.25
  -3   6 -15  222.47    7.27
  -3  -6 -15  211.67    6.10
  -3   6 -16   72.28    4.23
  -3  -6 -16   74.92    4.36
  -3   6 -17  196.02    7.21
  -3  -6 -17  195.47    7.27
  -3  -6 -18    9.03    1.96
  -3   6 -18   11.14    2.23
  -3   6 -19   58.82    4.21
  -3  -6 -19   61.30    4.29
  -3  -6 -20   54.54    4.19
  -3   6 -20   56.56    4.16
  -3   6 -21   37.23    3.66
  -3  -6 -21   41.81    3.82
   3  -7 -26    3.28    1.75
   3  -7 -25    8.23    2.06
   3  -7 -24   90.53    5.04
   3   7 -23   18.40    2.85
   3  -7 -23   14.29    2.22
   3   7 -22   64.96    4.60
   3  -7 -22   58.04    3.83
   3   7 -21   93.74    5.41
   3  -7 -21   95.20    4.74
   3   7 -20   71.68    4.65
   3  -7 -20   74.64    3.99
   3   7 -19   -2.03    1.68
   3  -7 -19   -0.13    1.01
   3   7 -18   53.12    3.83
   3  -7 -18   54.86    3.20
  -3   7  18   56.55    3.76
   3   7 -17   71.38    4.23
   3  -7 -17   62.22    3.30
  -3   7  17   60.88    3.84
   3   7 -16   33.58    2.92
   3  -7 -16   35.66    2.44
  -3   7  16   30.55    2.77
   3   7 -15    0.62    1.26
   3  -7 -15    2.52    0.99
  -3   7  15    1.90    1.24
   3  -7 -14   27.46    1.98
   3   7 -14   28.87    2.59
   3  -7 -14   29.98    2.02
  -3   7  14   25.67    2.42
   3  -7 -13  204.20    5.57
   3   7 -13  203.85    6.68
   3  -7 -13  202.19    5.33
  -3   7  13  196.41    6.38
   3  -7 -12  123.84    4.05
   3   7 -12  128.11    5.09
   3  -7 -12  129.99    3.92
   3   7 -12  125.57    4.66
  -3   7  12  126.84    4.87
   3  -7 -11    3.07    0.97
   3  -7 -11    6.36    1.00
   3   7 -11    4.46    1.36
   3  -7 -11    4.74    0.90
  -3   7  11    3.92    1.21
   3  -7 -10   13.80    1.17
   3  -7 -10   14.61    1.68
   3   7 -10   17.57    1.94
  -3  -7  10   18.06    1.93
   3  -7 -10   13.12    1.17
  -3   7  10   12.97    1.67
   3  -7  -9  278.02    5.83
   3   7  -9  280.65    7.34
  -3  -7   9  284.43    7.34
  -3  -7   9  285.81    7.29
   3  -7  -9  272.55    5.60
   3  -7  -9  282.01    7.16
  -3   7   9  271.66    7.12
   3  -7  -8   16.42    1.67
   3  -7  -8   16.15    1.15
  -3  -7   8   17.02    1.71
   3   7  -8   17.33    1.77
   3  -7  -8   15.29    1.08
  -3   7   8   14.90    1.68
   3  -7  -7  599.44   11.33
   3  -7  -7  566.16    9.36
  -3  -7   7  602.51   11.57
   3   7  -7  585.22   11.45
   3  -7  -7  567.96    9.20
  -3   7   7  567.53   11.21
   3  -7  -6   50.04    2.60
   3  -7  -6   46.53    1.67
  -3  -7   6   46.82    2.58
   3   7  -6   46.87    2.62
   3  -7  -6   47.84    1.64
  -3   7   6   45.05    2.55
   3   7  -5   42.26    2.49
  -3  -7   5   51.24    2.62
   3  -7  -5   43.58    1.52
   3  -7  -5   42.78    2.43
   3  -7  -5   45.40    1.52
  -3   7   5   45.28    2.45
  -3  -7   4   71.71    3.16
   3  -7  -4   69.56    1.87
   3   7  -4   72.49    3.13
   3  -7  -4   70.36    3.04
  -3   7   4   66.95    2.97
  -3  -7   3   78.17    3.21
   3  -7  -3   71.96    1.85
  -3   7   3   77.04    1.90
   3   7  -3   77.94    3.26
  -3   7   3   76.29    3.15
   3   7  -2    1.50    0.94
  -3   7   2   -0.73    1.08
  -3   7   2    1.39    0.39
   3  -7  -2    1.61    0.35
  -3  -7   2    0.85    0.80
  -3   7   1  307.98    6.96
   3   7  -1  295.55    7.00
  -3   7   1  293.12    5.02
   3  -7  -1  295.72    5.31
  -3  -7   1  322.83    7.19
   3   7   0  704.18   12.62
  -3   7   0  690.91   10.35
  -3   7   0  677.77   12.46
  -3  -7   0  721.61   12.72
   3  -7   0  680.17   10.67
  -3  -7  -1   29.01    2.02
   3   7   1   28.01    2.00
  -3   7  -1   29.02    2.05
   3  -7   1   31.18    1.49
  -3   7  -1   33.12    1.38
   3   7   2   21.94    1.77
   3  -7   2   21.09    1.29
  -3  -7  -2   20.94    1.73
  -3   7  -2   23.84    1.28
  -3  -7  -3   69.46    3.13
   3   7   3   72.18    3.18
   3  -7   3   69.20    2.50
  -3   7  -3   70.37    2.34
  -3  -7  -4 1129.13   18.42
   3   7   4 1095.53   18.30
   3  -7   4 1075.09   16.94
  -3   7  -4 1090.30   16.65
   3   7   5  222.16    6.09
  -3  -7  -5  221.31    6.13
  -3  -7  -5  219.26    3.67
  -3   7  -5  214.00    5.08
   3  -7   5  223.10    5.37
   3   7   6   55.62    2.95
  -3  -7  -6   51.80    2.85
  -3   7  -6   55.71    2.45
   3  -7   6   54.62    2.57
  -3   7  -6   53.08    2.53
  -3  -7  -6   53.80    1.59
  -3  -7  -6   55.05    2.93
  -3  -7  -7   58.94    3.08
   3  -7   7   55.72    2.72
  -3   7  -7   57.08    2.64
   3  -7   7   61.29    2.81
  -3   7  -7   62.01    2.82
  -3  -7  -7   59.47    1.87
  -3  -7  -7   58.38    3.05
  -3  -7  -8  583.28   11.78
   3  -7   8  559.95   10.78
   3  -7   8  544.91   10.91
  -3   7  -8  553.41   10.88
  -3  -7  -8  559.61    9.15
  -3  -7  -8  554.93   11.53
   3  -7   9    9.10    1.39
  -3   7  -9    6.30    1.26
   3  -7   9    6.52    1.21
  -3  -7  -9    7.88    1.49
  -3  -7  -9    9.16    0.92
   3  -7  10  264.65    6.62
  -3  -7 -10  268.58    7.44
   3  -7  10  278.32    7.24
  -3   7 -10  247.69    6.97
  -3  -7 -10  263.69    5.73
   3  -7  11  502.81   10.19
  -3  -7 -11  494.41   11.24
  -3   7 -11  506.07   10.93
  -3  -7 -11  494.52    9.28
   3  -7  12   32.73    2.20
  -3  -7 -12   35.32    2.80
  -3   7 -12   30.57    2.49
  -3  -7 -12   32.56    1.94
   3  -7  13   17.23    1.70
  -3  -7 -13   16.60    2.12
  -3   7 -13   11.76    1.70
  -3  -7 -13   18.32    1.59
  -3  -7 -14   87.67    4.46
  -3   7 -14   85.49    4.36
  -3  -7 -14   85.83    3.52
  -3  -7 -15  295.72    8.91
  -3   7 -15  313.14    8.90
  -3  -7 -15  300.80    7.52
  -3   7 -16    0.50    1.38
  -3  -7 -16   -0.32    1.45
  -3  -7 -16    1.04    0.94
  -3  -7 -17   30.88    3.01
  -3   7 -17   26.93    2.90
  -3  -7 -18   28.75    3.08
  -3   7 -18   30.55    3.02
  -3   7 -19  114.37    5.83
  -3  -7 -19  121.26    6.03
  -3  -7 -20   17.10    2.50
  -3   7 -20   22.03    2.85
  -3  -7 -21    1.75    1.65
  -3   7 -21   -0.35    1.59
   3  -8 -25   18.30    2.63
   3  -8 -24   49.76    3.69
   3  -8 -23    1.38    1.45
   3   8 -22    2.66    1.87
   3  -8 -22   -0.14    1.38
   3   8 -21   -0.13    1.75
   3  -8 -21    1.05    1.29
   3   8 -20   87.69    5.24
   3  -8 -20   72.87    3.99
   3   8 -19   24.24    2.90
   3  -8 -19   29.27    2.53
  -3   8  19   27.67    2.91
   3   8 -18   17.08    2.40
   3  -8 -18   17.77    1.99
  -3   8  18   17.74    2.32
   3   8 -17  120.91    5.58
   3  -8 -17  112.49    4.52
  -3   8  17  108.45    5.19
   3   8 -16  562.50   13.15
   3  -8 -16  529.74   11.12
  -3   8  16  532.29   12.54
   3  -8 -15   10.32    1.36
   3   8 -15    9.15    1.73
   3  -8 -15   10.56    1.47
  -3   8  15    9.68    1.74
   3  -8 -14   33.01    2.28
   3   8 -14   39.28    3.07
   3  -8 -14   37.19    2.30
  -3   8  14   35.26    2.80
   3  -8 -13    9.41    1.25
   3   8 -13    8.06    1.67
   3  -8 -13    8.25    1.18
  -3   8  13   11.57    1.73
   3  -8 -12  276.40    6.63
   3   8 -12  289.11    8.12
   3  -8 -12  291.12    6.54
  -3   8  12  287.27    7.87
   3  -8 -11   44.47    2.26
   3   8 -11   47.58    3.06
   3  -8 -11   48.58    2.25
  -3   8  11   54.54    3.18
   3  -8 -10  226.56    5.43
   3   8 -10  236.23    7.00
   3  -8 -10  241.95    5.38
  -3   8  10  235.76    6.72
   3  -8 -10  239.40    6.76
   3  -8  -9   86.30    3.77
   3  -8  -9   88.00    2.95
   3   8  -9   93.35    4.07
  -3  -8   9   94.83    4.02
   3  -8  -9   87.96    2.85
  -3  -8   9   95.73    4.02
  -3   8   9   91.12    3.91
   3  -8  -8  280.90    7.16
   3  -8  -8  270.54    5.66
  -3  -8   8  286.30    7.38
   3   8  -8  279.69    7.41
   3  -8  -8  273.91    5.55
  -3   8   8  262.13    7.03
   3  -8  -7  115.59    3.19
   3  -8  -7  121.69    4.34
   3   8  -7  121.33    4.53
  -3  -8   7  125.20    4.53
   3  -8  -7  127.73    3.20
  -3   8   7  124.68    4.44
   3  -8  -6  208.00    5.80
   3  -8  -6  195.02    4.24
  -3  -8   6  210.83    5.97
   3   8  -6  196.51    5.89
   3  -8  -6  200.96    4.20
  -3   8   6  198.11    5.69
  -3  -8   5   10.51    1.41
   3   8  -5   10.60    1.49
   3  -8  -5    9.95    0.81
   3  -8  -5   11.28    1.34
  -3   8   5   10.80    1.36
   3  -8  -5   10.43    0.82
  -3  -8   4  614.93   11.77
   3  -8  -4  578.58    9.22
   3   8  -4  578.31   11.55
   3  -8  -4  619.20   11.51
  -3   8   4  590.98   11.41
  -3  -8   3  221.64    6.09
   3  -8  -3  214.06    4.19
  -3   8   3  221.54    4.22
   3   8  -3  231.96    6.15
  -3   8   3  225.89    5.95
  -3   8   2   63.48    1.91
  -3   8   2   69.07    3.08
   3   8  -2   66.78    3.11
   3  -8  -2   60.78    1.87
  -3  -8   2   68.93    3.13
   3   8  -1   25.94    1.99
  -3   8   1   23.40    1.16
  -3   8   1   24.86    1.94
   3  -8  -1   24.89    1.29
  -3  -8   1   22.73    1.86
   3  -8  -1   24.65    1.17
   3   8   0    1.05    0.27
   3   8   0    1.53    0.99
  -3   8   0    0.62    0.86
   3  -8   0    1.23    0.54
  -3  -8   0    1.89    0.94
  -3   8   0    0.63    0.46
  -3  -8  -1   29.51    2.11
   3   8   1   28.24    2.15
  -3   8  -1   27.92    2.06
   3  -8   1   27.18    1.49
  -3   8  -1   29.76    1.42
   3   8   2  162.87    5.09
  -3  -8  -2  172.57    5.22
   3  -8   2  160.61    4.10
  -3   8  -2  167.23    3.90
  -3  -8  -3   27.42    2.10
   3   8   3   25.34    2.10
   3  -8   3   26.46    1.62
  -3   8  -3   26.05    1.53
   3   8   4   41.16    2.57
  -3  -8  -4   47.14    2.68
   3  -8   4   40.92    2.08
  -3   8  -4   40.52    1.98
   3   8   5    7.79    1.45
  -3  -8  -5    8.19    1.31
   3  -8   5    6.81    1.04
  -3   8  -5    9.82    1.14
  -3  -8  -6   72.22    3.49
  -3  -8  -6   74.85    1.90
   3   8   6   72.33    3.48
  -3   8  -6   76.98    3.01
   3  -8   6   75.06    3.08
  -3  -8  -7   50.40    2.98
  -3   8  -7   54.27    2.58
   3  -8   7   52.00    2.67
  -3  -8  -7   52.64    1.72
  -3  -8  -7   54.28    3.07
  -3   8  -8   27.81    1.96
   3  -8   8   24.00    1.93
   3  -8   8   27.38    2.05
  -3  -8  -8   25.46    2.28
  -3  -8  -8   27.96    1.37
  -3   8  -9   23.58    2.00
   3  -8   9   26.58    2.02
  -3   8  -9   25.20    2.12
   3  -8   9   25.99    2.08
  -3  -8  -9   25.85    1.43
  -3  -8  -9   29.14    2.43
   3  -8  10    0.82    0.89
  -3   8 -10    0.97    0.94
  -3   8 -10    2.13    1.26
   3  -8  10    1.54    1.02
  -3  -8 -10    0.86    0.60
  -3  -8 -10    1.46    1.15
  -3   8 -11  178.34    5.76
   3  -8  11  182.67    5.43
  -3   8 -11  173.73    5.80
  -3  -8 -11  170.14    6.01
  -3  -8 -11  177.72    4.60
  -3   8 -12  237.47    7.11
   3  -8  12  254.37    6.67
  -3  -8 -12  245.84    7.61
  -3   8 -12  264.25    7.49
  -3  -8 -12  246.75    5.91
   3  -8  13   -0.43    0.92
  -3  -8 -13    1.51    1.34
  -3   8 -13   -1.38    1.31
  -3  -8 -13   -0.42    0.73
   3  -8  14  113.91    4.30
  -3  -8 -14  110.99    5.26
  -3   8 -14  117.39    5.14
  -3  -8 -14  118.95    4.15
  -3   8 -15   11.91    1.98
  -3  -8 -15    9.97    1.79
  -3  -8 -15   11.74    1.53
  -3  -8 -16  302.80    9.33
  -3   8 -16  309.82    9.25
  -3  -8 -17   44.80    3.62
  -3   8 -17   50.63    3.81
  -3   8 -18   17.89    2.63
  -3  -8 -18   22.77    2.84
  -3  -8 -19   15.84    2.62
  -3   8 -19   15.19    2.57
  -3   8 -20   79.07    5.17
  -3  -8 -20   80.46    5.12
   3  -9 -24   35.45    3.33
   3  -9 -23    1.86    1.60
   3  -9 -22  110.98    5.22
   3   9 -21    5.92    2.06
   3  -9 -21    3.08    1.52
   3   9 -20   12.74    2.29
   3  -9 -20   12.29    1.83
   3   9 -19   17.02    2.65
   3  -9 -19   17.95    2.05
  -3   9  19   19.75    2.80
   3   9 -18   90.34    5.15
   3  -9 -18   88.91    4.18
  -3   9  18   86.59    4.84
   3   9 -17   38.23    3.35
   3  -9 -17   38.69    2.71
  -3   9  17   35.72    3.14
   3   9 -16   15.72    2.25
   3  -9 -16   16.57    1.81
  -3   9  16   13.65    2.02
   3  -9 -15    0.34    0.84
   3   9 -15    0.24    1.36
   3  -9 -15    0.50    0.88
  -3   9  15   -0.58    1.44
   3  -9 -14  138.30    4.73
   3   9 -14  141.29    5.87
   3  -9 -14  136.76    4.54
  -3   9  14  134.18    5.46
   3  -9 -13   67.27    3.09
   3   9 -13   77.13    4.19
   3  -9 -13   70.32    3.07
  -3   9  13   61.25    3.62
   3  -9 -12   -1.63    0.79
   3   9 -12   -0.47    1.34
   3  -9 -12    0.66    0.77
  -3   9  12    0.57    1.10
   3  -9 -11   17.24    1.52
   3   9 -11   19.20    2.13
   3  -9 -11   17.78    1.44
  -3   9  11   21.95    2.18
   3  -9 -10   66.41    2.73
   3   9 -10   73.30    3.80
   3  -9 -10   70.01    2.69
  -3   9  10   72.45    3.61
   3  -9  -9   14.23    1.66
   3  -9  -9   10.46    1.14
   3   9  -9    9.52    1.62
   3  -9  -9    9.08    0.99
  -3   9   9    9.57    1.45
   3  -9  -8  207.02    6.04
   3  -9  -8  189.03    4.64
   3   9  -8  199.45    6.28
   3  -9  -8  192.53    4.56
  -3   9   8  198.30    6.00
  -3  -9   7    3.51    1.17
   3   9  -7    3.52    1.18
   3  -9  -7    5.11    0.77
   3  -9  -7    5.86    1.13
   3  -9  -7    5.17    0.72
  -3   9   7    4.87    1.21
  -3  -9   6  189.52    5.88
   3   9  -6  194.84    5.99
   3  -9  -6  185.87    4.28
   3  -9  -6  204.63    5.85
  -3   9   6  181.28    5.62
   3  -9  -6  188.49    4.26
  -3  -9   5   86.74    3.79
   3  -9  -5   80.97    2.49
   3   9  -5   82.37    3.68
   3  -9  -5   91.93    3.71
  -3   9   5   80.70    3.57
   3  -9  -4  237.21    4.82
  -3  -9   4  249.26    6.77
   3   9  -4  248.26    6.75
  -3   9   4  242.34    4.86
  -3   9   4  242.77    6.49
  -3  -9   3   85.50    3.68
   3  -9  -3   80.24    2.38
  -3   9   3   81.38    2.40
   3   9  -3   82.30    3.70
  -3   9   3   80.01    3.47
   3  -9  -2   33.04    1.47
  -3  -9   2   35.39    2.35
  -3   9   2   33.17    1.49
  -3   9   2   34.08    2.35
   3   9  -2   33.13    2.35
   3  -9  -1   56.50    2.01
  -3  -9   1   63.85    3.15
  -3   9   1   63.92    2.12
   3   9  -1   63.43    3.22
   3   9  -1   64.08    1.77
  -3   9   1   64.78    3.09
   3   9   0  202.76    5.94
  -3   9   0  199.37    5.76
  -3   9   0  199.74    4.38
  -3  -9   0  206.37    6.00
   3  -9   0  198.81    4.60
   3   9   0  201.00    3.54
  -3  -9  -1   43.19    2.63
  -3   9  -1   39.11    2.48
   3   9   1   40.88    2.58
  -3   9  -1   39.45    1.77
   3  -9   1   37.96    1.87
   3   9   1   39.06    1.05
   3   9   2    8.79    1.50
  -3   9  -2    8.92    1.42
   3  -9   2    6.29    0.91
  -3  -9  -2   10.27    1.44
  -3   9  -2    9.10    0.98
   3   9   3   29.55    2.29
  -3  -9  -3   32.48    2.30
   3  -9   3   26.96    1.73
  -3   9  -3   29.87    1.74
  -3  -9  -4  296.62    7.69
   3   9   4  285.03    7.54
   3  -9   4  291.40    6.58
  -3   9  -4  295.50    6.35
   3   9   5   12.54    1.66
  -3  -9  -5   16.30    1.77
   3  -9   5   18.01    1.54
  -3   9  -5   14.97    1.36
   3   9   6  124.85    4.77
  -3   9  -6  125.17    4.06
   3  -9   6  119.58    4.12
  -3  -9  -7   16.60    0.95
   3   9   7   13.25    1.78
  -3   9  -7   14.57    1.51
   3  -9   7   13.32    1.47
  -3  -9  -7   12.79    1.75
  -3   9  -8   67.63    3.12
   3  -9   8   63.05    3.13
  -3  -9  -8   60.20    2.11
  -3  -9  -8   72.22    3.61
  -3  -9  -9    4.21    0.72
   3  -9   9    4.49    1.24
  -3   9  -9    4.98    1.15
   3  -9   9    5.38    1.22
  -3  -9  -9    5.37    1.38
  -3   9 -10  689.72   13.29
   3  -9  10  675.55   12.99
  -3  -9 -10  658.43   14.00
  -3  -9 -10  676.47   11.25
  -3   9 -11    1.71    1.08
   3  -9  11    0.97    0.96
  -3  -9 -11    1.80    0.72
  -3  -9 -11    0.48    1.24
   3  -9  12   10.72    1.57
  -3   9 -12    6.79    1.49
  -3  -9 -12   14.43    2.12
  -3  -9 -12    6.88    1.03
   3  -9  13    2.26    1.08
  -3   9 -13    0.85    1.25
  -3  -9 -13    1.29    1.46
  -3  -9 -13    1.03    0.80
   3  -9  14   42.67    2.68
  -3   9 -14   36.27    2.98
  -3  -9 -14   38.85    3.23
  -3  -9 -14   39.81    2.37
   3  -9  15    7.23    1.44
  -3   9 -15    4.69    1.51
  -3   9 -15    8.28    1.95
  -3  -9 -15    2.09    1.60
  -3   9 -16   26.78    2.77
  -3   9 -16   22.78    2.55
  -3  -9 -16   22.38    2.73
  -3   9 -17   60.68    4.03
  -3  -9 -17   62.23    4.27
  -3   9 -17   59.37    4.14
  -3   9 -18   56.31    3.95
  -3  -9 -18   51.21    3.92
  -3   9 -18   59.35    4.23
  -3   9 -19    2.13    1.78
  -3   9 -19    2.75    1.67
  -3  -9 -19    3.81    1.74
  -3   9 -20  123.58    6.27
  -3   9 -20  128.68    6.50
  -3  -9 -20  127.14    6.52
   3 -10 -22   42.79    3.41
   3 -10 -21    3.07    1.54
   3  10 -20   32.68    3.35
   3 -10 -20   31.70    2.69
   3  10 -19   12.09    2.24
   3 -10 -19    9.75    1.68
  -3  10  19   11.41    2.15
   3  10 -18    7.83    2.10
   3 -10 -18    4.18    1.41
  -3  10  18    5.94    1.80
   3  10 -17   15.71    2.40
   3 -10 -17   11.37    1.65
  -3  10  17   14.85    2.24
   3  10 -16  136.57    6.16
   3 -10 -16  132.55    4.83
  -3  10  16  125.23    5.65
   3  10 -15   87.39    5.29
   3 -10 -15   80.82    3.59
  -3  10  15   76.47    4.31
   3 -10 -14   16.54    1.76
   3  10 -14   12.87    2.02
   3 -10 -14   13.88    1.55
  -3  10  14   11.98    1.92
   3 -10 -13   -0.95    0.86
   3  10 -13    0.63    1.32
   3 -10 -13    3.71    1.02
  -3  10  13    0.39    1.26
   3 -10 -12   70.71    3.15
   3  10 -12   74.52    4.17
   3 -10 -12   72.94    3.06
  -3  10  12   72.65    3.87
   3 -10 -11    2.69    0.79
   3  10 -11    0.84    1.27
   3 -10 -11    2.08    0.88
  -3  10  11    3.93    1.30
   3 -10 -10   93.31    3.38
   3  10 -10   97.48    4.51
   3 -10 -10   96.89    3.36
  -3  10  10   98.50    4.37
   3 -10  -9  119.22    3.72
   3  10  -9  126.94    5.07
   3 -10  -9  122.16    3.70
  -3  10   9  115.76    4.72
   3  10  -8    4.13    1.35
   3 -10  -8    4.95    0.80
  -3  10   8    5.56    1.36
   3 -10  -8    6.21    0.94
   3  10  -7   23.16    2.22
   3 -10  -7   20.77    1.96
   3 -10  -7   17.78    1.31
   3 -10  -7   18.56    1.33
  -3  10   7   19.94    2.00
   3  10  -6   20.87    2.10
   3 -10  -6   19.07    1.32
   3 -10  -6   21.92    1.92
  -3  10   6   23.16    2.08
   3 -10  -6   21.20    1.37
   3 -10  -5   69.43    2.42
   3  10  -5   60.29    3.38
  -3  10   5   66.43    3.28
   3 -10  -4  107.36    3.06
  -3  10   4  114.18    3.15
   3  10  -4  103.62    4.37
  -3  10   4  103.29    4.17
  -3 -10   3   69.74    3.47
   3 -10  -3   62.27    2.24
   3  10  -3   69.77    3.53
  -3  10   3   65.64    2.30
  -3  10   3   68.75    3.30
   3 -10  -2  233.83    5.07
  -3 -10   2  259.78    7.07
   3  10  -2  247.25    6.98
  -3  10   2  252.73    5.21
  -3  10   2  251.16    6.77
   3 -10  -1   20.11    1.27
  -3 -10   1   23.62    2.04
  -3  10   1   21.75    1.97
   3  10  -1   20.13    1.97
   3  10  -1   22.24    1.09
  -3  10   1   23.49    1.39
  -3  10   0    8.62    1.41
  -3  10   0    9.79    1.00
   3  10   0    8.93    1.37
  -3 -10   0   10.18    1.47
   3 -10   0    9.91    0.95
   3 -10   0    8.53    0.96
   3  10   0    9.85    0.69
  -3  10  -1  148.34    5.12
  -3  10  -1  159.04    4.04
   3  10   1  158.21    5.38
  -3 -10  -1  158.06    5.40
   3 -10   1  148.21    4.18
   3  10   1  159.85    2.99
  -3  10  -2  785.60   12.78
   3  10   2  758.84   14.67
  -3 -10  -2  813.84   14.95
  -3  10  -2  766.30   14.55
   3 -10   2  741.70   13.06
   3  10   2  772.69   10.86
   3  10   3  132.39    4.96
  -3  10  -3  142.82    4.02
   3 -10   3  131.82    4.10
   3  10   3  130.17    2.44
   3  10   4   66.02    3.51
   3 -10   4   65.71    2.86
  -3  10  -4   73.14    2.90
   3  10   5  129.26    4.96
   3 -10   5  125.49    4.21
  -3  10  -5  130.61    4.11
   3  10   6  343.63    8.83
  -3  10  -6  345.20    7.65
   3 -10   6  328.76    7.83
   3  10   7   95.53    4.37
  -3  10  -7   88.52    3.62
   3 -10   7   90.24    3.79
  -3 -10  -7   88.86    4.22
  -3 -10  -8   20.26    1.16
  -3  10  -8   18.70    1.78
   3 -10   8   19.09    1.89
  -3 -10  -8   17.21    1.99
  -3  10  -9    5.61    1.38
  -3 -10  -9    6.88    0.81
  -3 -10  -9    5.24    1.41
   3 -10  10   69.50    3.42
  -3  10 -10   68.67    3.51
  -3 -10 -10   70.26    3.96
  -3 -10 -10   67.91    2.48
   3 -10  11   -0.49    0.99
  -3  10 -11    1.22    1.06
  -3 -10 -11    1.11    0.65
  -3 -10 -11   -1.12    1.40
  -3  10 -12  134.73    5.23
   3 -10  12  129.45    4.85
  -3 -10 -12  138.39    5.76
  -3 -10 -12  136.36    4.05
   3 -10  13   40.43    2.72
  -3  10 -13   40.74    2.97
  -3 -10 -13   46.66    3.49
  -3 -10 -13   47.06    2.42
  -3  10 -14    8.91    1.66
   3 -10  14    9.58    1.51
  -3 -10 -14    7.18    1.88
   3 -10  15    0.85    1.10
  -3  10 -15    0.26    1.30
  -3 -10 -15   -2.42    1.72
   3 -10  16  111.65    4.52
  -3  10 -16  112.64    5.50
  -3 -10 -16  113.45    5.67
  -3  10 -17    6.60    1.90
  -3 -10 -17    3.76    1.51
  -3  10 -18   25.63    2.94
  -3 -10 -18   29.23    3.20
  -3  10 -19    2.90    1.65
  -3 -10 -19    0.80    1.45
  -3  10 -20    2.59    1.61
   3 -11 -21   -1.73    1.54
   3  11 -20   24.21    3.14
   3 -11 -20   23.74    2.53
  -3  11  20   18.34    2.52
   3  11 -19   20.95    2.92
   3 -11 -19   17.13    2.10
  -3  11  19   16.53    2.59
   3  11 -18  222.45    8.55
   3 -11 -18  217.89    6.87
  -3  11  18  199.47    7.65
   3  11 -17   15.58    2.38
   3 -11 -17   14.73    1.84
  -3  11  17   16.62    2.27
   3  11 -16   20.57    2.71
   3 -11 -16   20.28    2.06
  -3  11  16   19.46    2.47
   3 -11 -15    0.20    0.88
  -3  11  15   -0.61    1.30
   3 -11 -14  178.82    5.75
   3  11 -14  197.72    7.29
   3 -11 -14  197.48    5.76
  -3  11  14  182.10    6.73
   3 -11 -13   61.14    3.13
   3  11 -13   60.78    3.95
   3 -11 -13   60.04    2.96
  -3  11  13   59.05    3.69
   3 -11 -12   76.21    3.34
   3  11 -12   79.67    4.48
   3 -11 -12   76.96    3.25
  -3  11  12   74.19    4.05
   3 -11 -11   13.40    1.46
   3  11 -11   14.57    2.14
   3 -11 -11   16.00    1.69
  -3  11  11   14.50    2.10
   3 -11 -10  207.62    5.51
   3  11 -10  218.48    7.24
   3 -11 -10  205.27    5.39
  -3  11  10  206.86    6.73
   3 -11  -9   36.83    2.11
   3  11  -9   38.11    2.96
   3 -11  -9   35.27    2.02
  -3  11   9   42.04    2.92
   3 -11  -8  103.01    3.48
   3  11  -8  103.34    4.76
   3 -11  -8  112.51    3.54
  -3  11   8  103.07    4.45
   3 -11  -7   50.08    2.29
   3  11  -7   58.88    3.55
  -3  11   7   52.43    3.15
   3 -11  -7   54.36    2.36
   3 -11  -6   90.34    3.07
   3  11  -6  101.15    4.55
  -3  11   6   99.96    4.24
   3 -11  -6  101.28    3.24
   3 -11  -5  128.01    3.66
   3  11  -5  133.71    5.15
  -3  11   5  131.40    4.85
   3 -11  -4  102.73    3.18
  -3  11   4  105.30    3.22
   3  11  -4  107.28    4.62
  -3  11   4  111.92    4.46
   3 -11  -3  195.02    4.67
  -3  11   3  196.70    4.67
   3  11  -3  200.02    6.38
  -3  11   3  192.76    6.03
   3 -11  -2   64.88    2.46
  -3  11   2   72.25    3.56
  -3  11   2   69.88    2.57
   3  11  -2   66.89    3.60
   3  11  -2   76.17    2.37
   3 -11  -1    1.43    0.55
   3  11  -1   -0.36    1.06
  -3  11   1    1.86    0.72
  -3  11   1    0.45    1.02
   3  11  -1    1.11    0.43
  -3  11   0   80.00    3.76
  -3  11   0   81.45    2.85
   3  11   0   78.77    3.87
   3 -11   0   73.78    2.70
   3 -11   0   76.04    2.93
   3  11   0   82.01    2.21
  -3  11  -1   77.76    3.76
   3  11   1   77.22    3.85
  -3  11  -1   79.59    2.90
   3 -11   1   76.41    3.03
   3  11   1   81.84    2.08
  -3  11  -2   11.88    1.64
   3  11   2   12.59    1.72
  -3  11  -2   13.12    1.26
   3 -11   2   12.94    1.38
   3  11   2   12.66    0.73
  -3  11  -3    5.99    1.39
   3  11   3    4.07    1.27
  -3  11  -3    5.41    1.00
   3 -11   3    5.16    1.04
   3  11   3    5.23    0.52
   3  11   4   46.07    3.08
  -3  11  -4   49.79    2.49
   3 -11   4   47.88    2.58
   3  11   4   47.22    1.39
   3  11   5   10.70    1.62
   3 -11   5   10.15    1.33
  -3  11  -5   11.62    1.40
   3  11   6  296.99    8.38
   3 -11   6  293.04    7.44
  -3  11  -6  308.53    7.31
   3  11   7    4.37    1.44
  -3  11  -7    5.96    1.21
   3 -11   7    5.43    1.31
  -3  11  -8    8.58    1.45
  -3 -11  -8   11.84    1.93
  -3  11  -9  137.75    5.01
  -3 -11  -9  137.12    3.50
  -3 -11  -9  135.95    5.51
  -3  11 -10  493.58   10.99
  -3 -11 -10  493.11    8.79
  -3 -11 -10  489.48   11.80
   3 -11  11    8.48    1.43
  -3  11 -11    5.75    1.40
  -3 -11 -11   10.11    1.13
  -3 -11 -11    9.95    1.95
  -3  11 -12   43.57    3.04
   3 -11  12   45.43    2.91
  -3 -11 -12   47.51    3.53
   3 -11  13    0.54    1.04
  -3  11 -13    2.87    1.27
  -3 -11 -13    2.13    1.57
   3 -11  14   65.22    3.53
  -3  11 -14   66.06    3.97
  -3 -11 -14   65.26    4.24
  -3  11 -15    0.62    1.26
   3 -11  15    1.20    1.16
  -3 -11 -15    1.20    1.44
   3 -11  16   61.22    3.44
  -3  11 -16   59.56    4.11
  -3 -11 -16   57.77    4.16
   3 -11  17   17.77    2.02
  -3  11 -17   17.37    2.44
  -3 -11 -17   14.98    2.40
  -3  11 -18   59.48    4.20
  -3 -11 -18   57.83    4.34
  -3  11 -19   21.15    2.86
  -3  12  20   22.14    2.92
   3  12 -19   53.03    4.31
   3 -12 -19   52.72    3.44
  -3  12  19   45.48    3.83
   3  12 -18   -2.76    1.80
   3 -12 -18    1.40    1.08
  -3  12  18    1.11    1.65
   3  12 -17   83.94    5.16
   3 -12 -17   79.26    3.98
  -3  12  17   78.51    4.63
   3  12 -16   25.13    3.08
   3 -12 -16   20.77    2.03
  -3  12  16   23.83    2.74
   3  12 -15   89.91    5.11
   3 -12 -15   81.66    3.78
  -3  12  15   79.47    4.53
   3  12 -14    0.70    1.37
   3 -12 -14    0.31    0.91
  -3  12  14    1.93    1.42
   3  12 -13  108.51    5.49
   3 -12 -13  104.69    4.06
  -3  12  13  108.32    5.06
   3 -12 -12    6.74    1.19
   3  12 -12    7.19    1.89
   3 -12 -12    5.71    1.15
  -3  12  12    4.44    1.40
   3 -12 -11   96.26    3.80
   3  12 -11  101.63    5.10
   3 -12 -11  102.62    3.79
  -3  12  11  100.92    4.69
   3 -12 -10    3.74    0.99
   3  12 -10    1.72    1.46
   3 -12 -10    3.01    0.90
  -3  12  10    3.94    1.38
   3 -12  -9   18.96    1.62
   3  12  -9   20.03    2.35
   3 -12  -9   18.08    1.57
  -3  12   9   21.44    2.26
   3  12  -8   20.64    2.33
   3 -12  -8   20.50    1.61
   3 -12  -8   15.79    1.42
  -3  12   8   18.43    2.03
   3 -12  -7  232.82    5.69
   3  12  -7  228.16    7.34
  -3  12   7  228.95    7.05
   3 -12  -7  228.95    5.62
   3 -12  -6    6.49    1.00
   3  12  -6    6.92    1.57
  -3  12   6    4.75    1.22
   3 -12  -6    5.79    0.93
   3 -12  -5   57.59    2.49
   3  12  -5   61.35    3.57
  -3  12   5   60.32    2.51
  -3  12   5   60.34    3.37
   3 -12  -4    0.34    0.59
   3  12  -4   -0.70    1.27
  -3  12   4   -0.30    1.09
  -3  12   4    0.80    0.61
   3 -12  -3  248.44    5.77
  -3  12   3  263.31    5.89
   3  12  -3  261.02    7.69
  -3  12   3  252.97    7.25
  -3  12   2   26.15    2.28
   3  12  -2   23.61    2.32
  -3  12   2   26.18    1.67
   3  12  -2   26.29    1.47
   3 -12  -2   25.49    1.62
   3  12  -1   39.17    2.90
  -3  12   1   42.64    2.87
   3  12  -1   43.57    1.77
  -3  12   1   41.63    2.12
   3 -12  -1   36.03    1.95
  -3  12   0    8.89    1.07
   3  12   0    8.31    0.76
   3  12   0    8.19    1.62
  -3  12   0    6.09    1.42
   3 -12   0    6.29    0.95
   3 -12   0    7.79    1.08
   3  12   1    0.54    1.13
  -3  12  -1    2.30    1.39
  -3  12  -1    1.60    0.75
   3 -12   1    1.33    0.73
   3  12   1    1.74    0.51
  -3  12  -2  312.25    7.02
  -3  12  -2  302.98    8.29
   3  12   2  303.47    8.49
   3 -12   2  303.17    7.25
   3  12   2  319.66    5.45
  -3  12  -3  120.31    4.00
   3  12   3  122.63    5.08
  -3  12  -3  125.45    5.02
   3 -12   3  117.59    4.22
   3  12   3  119.71    2.67
   3  12   4  143.70    5.60
  -3  12  -4  151.41    4.68
   3 -12   4  139.65    4.73
   3  12   4  146.77    3.04
   3  12   5  166.27    6.08
  -3  12  -5  168.64    5.14
   3 -12   5  165.48    5.31
   3  12   5  168.95    3.39
   3  12   6  164.65    6.10
   3 -12   6  166.43    5.44
  -3  12  -6  161.56    5.14
  -3  12  -7   54.42    2.97
   3  12   7   51.71    3.46
  -3  12  -8   19.31    1.93
   3  12   8   13.17    1.96
  -3 -12  -8   18.67    2.32
  -3  12  -9   10.52    1.59
  -3 -12  -9    8.49    1.84
  -3  12 -10    3.25    1.26
  -3 -12 -10    2.74    1.58
  -3  12 -11   19.17    2.15
   3 -12  11   19.49    2.09
  -3 -12 -11   21.09    2.55
   3 -12  12  112.54    4.76
  -3  12 -12  111.24    4.99
  -3 -12 -12  106.68    5.31
  -3  12 -13  440.49   11.09
   3 -12  13  431.15   10.35
  -3 -12 -13  427.80   11.63
  -3  12 -14   -0.97    1.26
   3 -12  14   -0.12    1.08
  -3 -12 -14   -0.48    1.42
  -3  12 -15   30.01    2.96
   3 -12  15   31.29    2.58
  -3 -12 -15   29.16    3.13
  -3  12 -16   38.22    3.33
   3 -12  16   39.17    2.84
  -3 -12 -16   48.56    3.99
  -3  12 -17  315.32    9.99
  -3 -12 -17  303.99   10.24
  -3  12 -18   11.18    2.12
  -3  12 -19    0.49    1.68
  -3  13  20   11.53    2.10
  -3  13  19  107.27    5.74
  -3  13  18    2.97    1.71
   3  13 -17   70.31    4.88
   3 -13 -17   67.35    3.71
  -3  13  17   58.35    4.18
   3  13 -16   10.01    2.16
   3 -13 -16    7.66    1.42
  -3  13  16   10.74    2.10
   3  13 -15    6.81    1.87
   3 -13 -15   10.43    1.59
  -3  13  15    8.17    1.81
   3  13 -14    4.04    1.52
   3 -13 -14    4.39    1.04
  -3  13  14    5.40    1.54
   3  13 -13  120.00    5.86
   3 -13 -13  106.50    4.21
  -3  13  13  107.50    5.17
   3  13 -12    0.88    1.33
   3 -13 -12   -1.13    0.96
  -3  13  12    2.23    1.35
   3 -13 -11   -1.71    0.98
   3 -13 -11    0.00    0.82
  -3  13  11    0.59    1.21
   3 -13 -10    2.34    1.28
   3  13 -10   -0.03    1.50
  -3  13  10   -1.02    1.28
   3 -13 -10    0.64    0.81
   3  13  -9   71.38    4.24
   3 -13  -9   65.33    3.02
   3 -13  -9   69.49    3.05
  -3  13   9   68.93    3.89
   3 -13  -8   18.00    1.66
   3  13  -8   17.84    2.26
   3 -13  -8   14.90    1.43
  -3  13   8   19.25    2.26
   3  13  -7   31.67    2.76
   3 -13  -7   33.51    2.07
  -3  13   7   30.45    2.67
   3 -13  -7   32.17    2.01
   3  13  -6    8.99    1.79
   3 -13  -6    7.25    1.13
  -3  13   6    6.94    1.56
   3 -13  -5  133.11    4.14
   3  13  -5  140.15    5.66
  -3  13   5  138.35    4.20
  -3  13   5  139.18    5.35
   3 -13  -4   73.28    2.95
  -3  13   4   78.98    3.06
   3  13  -4   88.46    4.49
  -3  13   4   81.24    4.09
   3 -13  -3  307.89    6.92
  -3  13   3  313.62    6.98
   3  13  -3  316.67    8.92
   3  13  -3  332.95    6.73
  -3  13   3  329.48    8.67
   3 -13  -2   -0.15    0.68
   3  13  -2    0.64    1.12
  -3  13   2   -0.27    0.79
   3  13  -2   -0.18    0.55
  -3  13   2   -0.83    1.16
   3 -13  -1    1.48    0.65
  -3  13   1   -0.67    0.80
   3  13  -1    0.91    0.55
  -3  13   1   -1.05    1.13
   3  13  -1    0.22    1.20
  -3  13   0   54.06    2.58
   3  13   0   54.47    3.50
  -3  13   0   56.72    3.39
   3 -13   0   48.24    2.44
   3 -13   0   55.95    2.79
   3  13   0   58.92    2.07
  -3  13  -1  275.70    7.96
   3  13   1  270.11    8.11
  -3  13  -1  279.43    6.63
   3 -13   1  264.47    6.79
   3  13   1  280.09    5.32
  -3  13  -2  117.08    4.01
   3  13   2  114.82    5.04
  -3  13  -2  117.47    4.98
   3 -13   2  105.52    4.04
   3  13   2  112.48    2.80
   3  13   3  391.79   10.20
  -3  13  -3  397.70   10.10
  -3  13  -3  403.79    8.72
   3 -13   3  378.41    8.89
   3  13   3  408.06    6.74
   3  13   4   13.90    2.00
  -3  13  -4   14.34    2.05
  -3  13  -4   13.51    1.60
   3 -13   4   12.23    1.54
   3  13   4   14.20    0.90
   3  13   5  147.10    5.89
  -3  13  -5  152.30    4.98
   3 -13   5  143.66    5.09
   3  13   5  144.28    3.17
  -3  13  -6    9.86    1.44
   3  13   6   10.30    1.88
  -3  13  -7  115.00    4.48
   3  13   7  111.10    5.21
  -3  13  -8    3.66    1.19
   3  13   8    5.11    1.61
  -3 -13  -8   11.18    2.10
  -3  13  -9  395.45    9.71
  -3 -13  -9  388.72   10.58
  -3  13 -10   20.98    2.20
  -3 -13 -10   13.82    2.31
  -3  13 -11   21.52    2.30
  -3 -13 -11   19.05    2.41
  -3  13 -12    3.76    1.65
   3 -13  12    2.22    1.41
  -3 -13 -12   -1.56    1.55
  -3  13 -13   20.31    2.49
   3 -13  13   16.77    2.04
  -3 -13 -13   20.65    2.72
  -3  13 -14    1.13    1.25
   3 -13  14    0.64    1.12
   3 -13  15   -0.29    1.18
  -3  13 -15    3.53    1.62
  -3 -13 -15    0.17    1.51
  -3  13 -16    9.20    2.03
   3 -13  16    6.48    1.52
  -3 -13 -16    3.37    1.62
  -3  13 -17   14.60    2.31
  -3  13 -18    0.42    1.39
  -3  14  19   21.45    2.78
  -3  14  18    5.83    1.93
  -3  14  17   47.29    3.83
   3  14 -16    3.20    1.91
  -3  14  16    1.10    1.64
   3  14 -15   71.61    4.78
   3 -14 -15   68.26    3.57
  -3  14  15   68.61    4.41
   3  14 -14   23.74    2.87
   3 -14 -14   24.93    2.18
  -3  14  14   24.92    2.77
   3  14 -13   57.74    4.29
   3 -14 -13   59.56    3.21
  -3  14  13   52.52    3.75
   3  14 -12    3.50    1.70
   3 -14 -12    4.47    1.21
  -3  14  12    5.00    1.73
   3  14 -11   78.78    4.77
   3 -14 -11   80.05    3.57
  -3  14  11   86.33    4.55
   3  14 -10    3.73    1.69
  -3  14  10    3.60    1.37
   3 -14 -10    2.29    0.94
   3  14  -9   18.90    2.44
  -3  14   9   18.40    2.16
   3 -14  -9   22.09    1.87
   3 -14  -8    0.11    0.76
   3  14  -8    0.18    1.28
   3 -14  -8   -0.24    0.80
  -3  14   8    0.51    1.20
   3 -14  -7  248.00    6.36
   3  14  -7  241.50    8.19
  -3  14   7  255.49    7.80
   3 -14  -7  248.33    6.37
   3  14  -6    3.22    1.50
   3 -14  -6    0.77    0.72
  -3  14   6    1.20    1.21
   3 -14  -5   34.81    2.16
   3  14  -5   37.71    3.09
  -3  14   5   36.08    2.17
  -3  14   5   30.11    2.59
   3 -14  -4    1.70    0.71
  -3  14   4    2.05    1.25
   3  14  -4    1.26    1.22
  -3  14   4    2.44    0.91
   3 -14  -3  200.02    5.49
  -3  14   3  215.70    5.65
   3  14  -3  215.67    7.35
   3  14  -3  218.48    5.29
  -3  14   3  211.99    6.90
   3 -14  -2  129.40    4.25
   3  14  -2  133.73    5.66
   3  14  -2  137.01    3.85
  -3  14   2  140.62    4.41
  -3  14   2  130.40    5.32
   3 -14  -1    7.91    1.14
  -3  14   1   10.20    1.30
   3  14  -1   10.86    1.03
   3  14  -1   10.79    1.88
  -3  14   1    7.89    1.64
  -3  14   0   96.31    4.55
   3  14   0   92.78    4.69
  -3  14   0  101.05    3.77
   3 -14   0   95.17    3.62
   3 -14   0   91.19    3.76
   3  14   0  101.40    2.95
  -3  14  -1   64.17    3.78
  -3  14  -1   69.15    3.12
   3  14   1   65.68    3.96
   3 -14   1   66.32    3.28
   3  14   1   70.42    2.33
   3  14   2    8.07    1.75
  -3  14  -2    7.75    1.24
  -3  14  -2    8.72    1.71
   3 -14   2    8.42    1.34
   3  14   2    9.13    0.83
  -3  14  -3  173.91    6.39
  -3  14  -3  181.74    5.43
   3  14   3  167.22    6.42
   3 -14   3  157.52    5.38
   3  14   3  167.23    3.69
   3  14   4  142.05    5.82
  -3  14  -4  132.91    5.58
  -3  14  -4  140.30    4.81
   3  14   4  131.24    3.12
  -3  14  -5    2.99    1.11
   3  14   5    3.86    1.48
  -3  14  -5    5.22    1.65
   3  14   5    3.35    0.52
  -3  14  -6  121.37    4.65
   3  14   6  108.87    5.26
  -3  14  -7  100.36    4.34
   3  14   7  103.16    5.20
  -3  14  -8   25.23    2.34
   3  14   8   22.67    2.61
  -3 -14  -8   22.40    2.62
  -3  14  -9    2.60    1.23
  -3 -14  -9   -0.42    1.49
  -3  14 -10    1.27    1.24
  -3 -14 -10    1.41    1.47
  -3  14 -11   55.74    3.62
  -3 -14 -11   51.94    3.89
   3 -14  12   23.92    2.48
  -3  14 -12   24.31    2.64
  -3 -14 -12   20.50    2.58
  -3  14 -13  153.98    6.38
   3 -14  13  147.47    5.89
  -3 -14 -13  154.20    6.89
  -3  14 -14   35.39    3.28
   3 -14  14   31.64    2.82
  -3 -14 -14   39.29    3.66
  -3  14 -15   56.18    4.10
   3 -14  15   56.47    3.62
  -3 -14 -15   62.46    4.45
  -3  14 -16    1.40    1.44
  -3  14 -17  113.18    5.93
  -3  15  19   40.40    3.81
  -3  15  18   35.31    3.53
  -3  15  17   10.29    2.23
  -3  15  16    1.46    1.53
   3  15 -15   38.06    3.85
  -3  15  15   42.91    3.53
   3  15 -14   57.73    4.39
  -3  15  14   51.77    3.82
   3  15 -13   27.01    3.12
  -3  15  13   23.29    2.65
   3  15 -12   16.99    2.74
   3 -15 -12   14.24    1.68
  -3  15  12   14.10    2.11
   3  15 -11   19.01    2.58
  -3  15  11   21.18    2.46
   3 -15 -11   21.85    2.03
   3  15 -10   65.75    4.50
   3 -15 -10   67.56    3.30
  -3  15  10   63.76    4.05
   3  15  -9   31.49    3.20
   3 -15  -9   33.54    2.28
  -3  15   9   31.39    2.79
   3  15  -8   19.32    2.62
   3 -15  -8   19.45    1.80
  -3  15   8   15.91    2.22
   3  15  -7   18.51    2.53
  -3  15   7   13.75    1.93
   3 -15  -7   19.52    1.83
   3  15  -6   32.92    3.10
  -3  15   6   34.13    2.97
   3  15  -5   56.94    3.85
  -3  15   5   53.69    2.78
  -3  15   5   52.68    3.49
  -3  15   4    7.61    1.56
  -3  15   4    9.16    1.33
   3  15  -4    3.79    1.42
   3  15  -4    6.59    1.05
  -3  15   3  116.11    4.15
   3  15  -3  118.11    3.81
   3  15  -3  116.66    5.48
  -3  15   3  108.08    5.00
   3 -15  -2    2.30    0.83
  -3  15   2    3.35    1.44
   3  15  -2    4.42    0.79
  -3  15   2    3.96    1.03
   3  15  -2    4.02    1.55
   3 -15  -1   -0.44    0.74
  -3  15   1    0.09    0.83
  -3  15   1   -1.37    1.24
   3  15  -1   -0.02    0.57
   3  15  -1   -1.19    1.39
   3  15   0    1.48    1.27
  -3  15   0    2.48    1.41
  -3  15   0    2.59    0.87
   3 -15   0    2.20    0.92
   3 -15   0    1.16    0.90
   3  15   0    2.07    0.62
  -3  15  -1  101.32    3.98
  -3  15  -1   96.82    4.76
   3  15   1   95.87    4.96
   3  15   1   98.64    2.95
  -3  15  -2    3.10    1.44
  -3  15  -2    3.26    1.11
   3  15   2    1.98    1.31
  -3  15  -3   26.24    2.63
   3  15   3   24.02    2.61
  -3  15  -3   22.22    2.01
  -3  15  -4   25.17    2.17
   3  15   4   27.67    2.74
  -3  15  -4   24.22    2.68
   3  15   5  111.79    5.47
  -3  15  -5  129.41    5.73
  -3  15  -5  120.23    4.71
   3  15   6   47.26    3.61
  -3  15  -6   44.12    2.95
  -3  15  -6   51.81    3.66
  -3  15  -7  122.93    4.97
   3  15   7  116.71    5.70
  -3  15  -8    1.61    1.09
   3  15   8   -0.72    1.44
  -3 -15  -8    3.59    1.62
  -3  15  -9  138.76    5.57
  -3 -15  -9  153.49    6.56
  -3  15 -10   68.31    4.08
  -3 -15 -10   70.29    4.50
  -3  15 -11   49.93    3.48
  -3 -15 -11   42.99    3.71
  -3  15 -12    6.93    1.61
  -3 -15 -12    7.80    2.00
  -3  15 -13   22.13    2.67
   3 -15  13   27.26    2.83
  -3 -15 -13   21.75    2.83
   3 -15  14   57.08    3.81
  -3  15 -14   54.17    4.03
  -3 -15 -14   53.79    4.24
  -3  15 -15  118.06    5.90
  -3  15 -16    6.33    1.87
  -3  15 -17    2.53    1.64
  -3  16  18    6.04    1.76
  -3  16  17    1.45    1.44
  -3  16  16   39.33    3.64
  -3  16  15   29.88    3.08
  -3  16  14    1.63    1.45
   3  16 -13   18.58    2.84
  -3  16  13   18.91    2.54
   3  16 -12   16.32    2.66
  -3  16  12   20.48    2.56
   3  16 -11    4.58    1.49
  -3  16  11    4.10    1.59
   3  16 -10   30.60    3.27
  -3  16  10   35.66    3.13
   3  16  -9   34.16    3.35
   3 -16  -9   30.87    2.32
  -3  16   9   25.96    2.72
   3  16  -8    5.11    1.75
   3 -16  -8    5.33    1.30
  -3  16   8    2.77    1.29
   3  16  -7   39.75    3.49
  -3  16   7   35.48    3.07
   3 -16  -7   33.50    2.33
   3  16  -6   27.98    2.94
  -3  16   6   23.70    2.62
   3  16  -5    2.70    1.55
  -3  16   5   -0.28    0.93
   3  16  -5    2.57    0.86
  -3  16   5    1.47    1.28
  -3  16   4    2.14    0.98
   3  16  -4    4.00    1.69
   3  16  -4    1.56    0.80
  -3  16   4    0.66    1.17
  -3  16   3   53.86    2.89
   3  16  -3   53.37    3.86
   3  16  -3   54.43    2.60
  -3  16   3   49.56    3.54
  -3  16   2   98.15    3.95
   3  16  -2  102.98    5.34
  -3  16   2   99.19    4.91
   3  16  -1  192.77    7.35
  -3  16   1  196.44    5.83
  -3  16   1  184.00    6.86
   3  16   0    5.36    1.76
  -3  16   0    3.50    1.06
  -3  16   0    3.88    1.44
  -3  16  -1    6.04    1.15
  -3  16  -1    7.00    1.66
   3  16   1    7.00    1.99
  -3  16  -2   12.46    1.59
  -3  16  -2   16.98    2.35
   3  16   2   15.55    2.24
   3  16   3  106.71    5.44
  -3  16  -3  102.34    5.20
  -3  16  -3  107.39    4.41
   3  16   4   44.84    3.59
  -3  16  -4   53.97    3.87
  -3  16  -4   53.63    3.18
   3  16   5   61.04    4.19
  -3  16  -5   62.91    4.11
  -3  16  -5   58.51    3.36
   3  16   6   54.56    4.00
  -3  16  -6   58.36    4.05
  -3  16  -6   57.55    3.45
   3  16   7  103.21    5.43
  -3  16  -7  108.55    4.82
  -3  16  -7  100.47    5.38
  -3  16  -8   28.32    2.65
   3  16   8   26.67    2.99
  -3 -16  -8   29.66    3.15
  -3  16  -9    9.00    1.68
  -3 -16  -9    8.28    2.00
  -3  16 -10   17.47    2.19
  -3 -16 -10   20.34    2.72
  -3  16 -11   23.61    2.65
  -3 -16 -11   19.94    2.73
  -3  16 -12   26.75    2.84
  -3 -16 -12   23.13    2.85
  -3  16 -13   20.71    2.61
   3 -16  13   15.99    2.26
   3 -16  14   22.95    2.62
  -3  16 -14   18.86    2.55
  -3  16 -15   34.37    3.46
  -3  16 -16   76.63    5.01
  -3  17  16    3.57    1.74
  -3  17  15    6.13    1.87
  -3  17  14    1.04    1.50
  -3  17  13   24.55    2.97
  -3  17  12    7.10    1.91
   3  17 -11    5.50    1.85
  -3  17  11    3.63    1.63
   3  17 -10    0.71    1.56
  -3  17  10    2.00    1.54
   3  17  -9   22.86    2.89
  -3  17   9   26.40    2.83
   3  17  -8    0.35    1.49
  -3  17   8    2.22    1.40
   3  17  -7    9.44    2.16
  -3  17   7    4.26    1.56
   3  17  -6   30.49    3.17
  -3  17   6   24.11    2.61
   3  17  -5   39.01    3.45
  -3  17   5   41.62    2.67
  -3  17   5   40.75    3.37
  -3  17   4  112.83    4.41
   3  17  -4  104.54    5.62
  -3  17   4  107.40    5.27
  -3  17   3   -0.18    1.23
  -3  17   3   -1.56    0.95
   3  17  -3    0.67    1.60
  -3  17   2   14.95    1.66
   3  17  -2   15.30    2.66
  -3  17   2   14.32    2.15
  -3  17   1    2.16    1.04
   3  17  -1    2.56    1.64
  -3  17   1    0.55    1.33
  -3  17   0   66.23    4.20
   3  17   0   70.03    4.52
  -3  17   0   74.05    3.62
   3  17   1    3.07    1.73
  -3  17  -1   -0.41    0.96
  -3  17  -1    0.58    1.30
   3  17   2    1.17    1.49
  -3  17  -2    2.24    1.09
  -3  17  -2    0.86    1.31
  -3  17  -3   10.68    1.66
   3  17   3    8.18    2.13
  -3  17  -3    6.58    1.74
   3  17   4  116.06    5.90
  -3  17  -4  115.03    5.74
  -3  17  -4  121.83    4.97
  -3  17  -5    6.46    1.59
   3  17   5    3.92    1.67
  -3  17  -5    6.46    1.65
  -3  17  -6   45.40    3.79
   3  17   6   41.49    3.74
  -3  17  -6   45.56    3.19
  -3  17  -7    2.55    1.58
   3  17   7   -1.17    1.56
  -3  17  -7   -3.21    1.81
  -3  17  -8   61.55    3.86
  -3  17  -8   65.80    4.50
   3  17   8   65.71    4.61
  -3 -17  -8   57.22    4.27
  -3  17  -9   30.19    2.87
  -3 -17  -9   32.07    3.36
  -3  17 -10   92.87    4.90
  -3 -17 -10   92.73    5.43
  -3  17 -11   16.57    2.32
  -3  17 -12    3.21    1.71
  -3  17 -13   81.44    4.94
   3 -17  13   68.53    4.45
  -3  17 -14   11.56    2.30
  -3  18  14    0.88    1.54
  -3  18  13   26.92    3.05
  -3  18  12   29.58    3.17
  -3  18  11   17.99    2.53
  -3  18  10   25.82    2.87
   3  18  -9    0.69    1.64
  -3  18   9   -0.67    1.33
   3  18  -8   10.42    2.24
  -3  18   8    8.96    1.91
   3  18  -7   12.76    2.50
  -3  18   7    6.19    1.64
   3  18  -6   11.50    2.28
  -3  18   6    7.80    1.84
   3  18  -5   19.97    2.90
  -3  18   5   15.02    2.37
   3  18  -4   50.93    4.03
  -3  18   4   49.35    3.78
   3  18  -3   -1.11    1.49
  -3  18   3    1.34    1.33
  -3  18   2    4.97    1.70
   3  18  -2    7.27    2.03
   3  18  -1    6.34    1.79
  -3  18   1    4.08    1.57
   3  18   0    4.76    1.79
  -3  18   0    3.68    1.50
  -3  18  -1    3.32    1.69
   3  18   1    0.42    1.52
  -3  18  -2   73.63    4.58
   3  18   2   71.28    4.71
   3  18   3   53.43    4.09
  -3  18  -3   56.76    4.08
   3  18   4   58.48    4.35
  -3  18  -4   52.25    4.06
   3  18   5   41.56    3.73
  -3  18  -5   43.48    3.72
   3  18   6   27.54    3.20
  -3  18  -6   28.54    3.17
   3  18   7   -1.43    1.54
  -3  18  -7   -2.84    1.69
  -3  18  -8   60.02    4.43
  -3 -18  -8   49.77    4.17
  -3  19  11   -0.41    1.53
  -3  19  10   17.66    2.58
  -3  19   9   -0.45    1.56
  -3  19   8    2.61    1.77
  -3  19   7    4.13    1.76
  -3  19   6    7.69    2.06
   3  19  -5    6.32    1.91
  -3  19   5    3.19    1.66
   3  19  -4   79.26    5.19
  -3  19   4   75.65    4.70
   3  19  -3   17.38    2.70
  -3  19   3   18.62    2.47
   3  19  -2   11.24    2.31
  -3  19   2   16.47    2.43
   3  19  -1   -0.69    1.69
  -3  19   1    1.59    1.57
   3  19   0  137.01    6.72
  -3  19   0  125.16    6.09
   3  19   1    8.37    1.89
  -3  19  -1   13.27    2.22
  -3  19  -2   15.07    2.48
   3  19   2   12.27    2.28
   3  19   3    3.54    1.80
  -3  19  -3    5.69    1.91
   3  19   4   33.93    3.48
  -3  19  -4   39.74    3.65
  -3  19  -5    6.01    1.85
  -3  19  -6   56.22    4.34
  -3  20   7    4.14    1.86
  -3  20   6   74.54    4.80
  -3  20   5   11.27    2.20
  -3  20   4    9.48    2.08
  -3  20   3    3.01    1.64
  -3  20   2   42.15    3.64
  -3  20   1   25.24    3.09
  -3  20   0   -0.49    1.52
  -3  20  -1    6.15    1.97
  -3  20  -2   37.18    3.52
  -3  20  -3    7.65    1.99
   4   0 -26   49.93    4.12
   4   0 -25   -0.57    1.51
   4   0 -25    2.10    1.55
   4   0 -24   52.26    4.07
   4   0 -24   50.82    3.85
   4   0 -23    1.03    1.44
   4   0 -22  106.60    5.22
   4   0 -21    0.08    1.21
   4   0 -20  161.13    6.19
   4   0 -19   -1.84    1.29
   4   0 -18   47.15    3.08
   4   0 -17   -0.36    1.06
  -4   0  16   11.10    1.49
   4   0 -16    9.52    1.49
   4   0 -15   -0.90    1.09
   4   0 -15    0.76    0.91
  -4   0  15    0.66    0.93
   4   0 -14    1.26    0.91
   4   0 -14    1.04    0.93
  -4   0  14    1.81    1.00
   4   0 -13    0.23    0.34
   4   0 -13   -1.49    0.97
  -4   0  13    0.20    0.75
   4   0 -13    1.00    0.80
   4   0 -12   12.22    0.78
   4   0 -12   11.02    1.34
  -4   0  12   12.81    1.32
   4   0 -12   12.61    1.47
  -4   0  12   12.07    1.53
   4   0 -11    0.04    0.43
   4   0 -11   -0.14    0.74
  -4   0  11   -0.46    0.73
   4   0 -11   -1.62    1.04
  -4   0  11   -0.04    0.95
   4   0 -10  227.44    4.31
   4   0 -10  217.55    5.41
  -4   0  10  225.97    5.22
  -4   0  10  227.72    5.98
   4   0 -10  225.57    6.02
   4   0  -9    1.16    0.55
   4   0  -9   -0.49    0.85
  -4   0   9   -0.22    0.57
  -4   0   9   -0.13    0.87
   4   0  -9    0.19    0.71
   4   0  -8  553.93    9.63
   4   0  -8  551.41    8.84
  -4   0   8  537.19    9.25
  -4   0   8  562.33   10.32
   4   0  -8  552.25   10.28
   4   0  -7    0.41    0.66
   4   0  -7   -0.69    0.53
  -4   0   7    0.21    0.52
   4   0  -7    0.53    0.66
  -4   0   7   -0.61    0.80
   4   0  -6   57.30    2.01
   4   0  -6   55.99    2.08
  -4   0   6   57.12    1.99
  -4   0   6   55.38    2.39
   4   0  -6   54.61    2.37
   4   0  -5    0.41    0.62
  -4   0   5    0.35    0.54
   4   0  -5    1.60    0.64
  -4   0   5   -0.43    0.78
   4   0  -5    0.97    0.70
   4   0  -4  703.65   10.92
  -4   0   4  680.24   10.47
   4   0  -4  660.55   10.45
  -4   0   4  674.15   11.16
   4   0  -4  658.78   11.11
  -4   0   3   -1.03    0.55
   4   0  -3    1.71    0.80
  -4   0   3   -0.21    0.65
   4   0  -3   -0.26    0.52
   4   0  -3    0.72    0.64
  -4   0   3    0.40    0.68
  -4   0   2  519.72    8.87
  -4   0   2  504.76    8.17
   4   0  -2  513.67    8.90
   4   0  -2  505.04    8.17
   4   0  -2  500.12    8.65
  -4   0   2  510.62    8.64
  -4   0   1    0.13    0.62
  -4   0   1    0.82    0.46
   4   0  -1    0.29    0.59
   4   0  -1   -0.16    0.54
  -4   0   1    0.73    0.62
  -4   0   0 3723.16   49.84
   4   0   0 3648.76   48.85
  -4   0   0 3601.32   48.86
  -4   0   0 3663.61   49.16
  -4   0   0 3637.84   48.83
  -4   0  -1   -0.11    0.62
   4   0   1    1.04    0.63
  -4   0  -1   -0.21    0.60
  -4   0  -1    0.26    0.43
  -4   0  -1   -0.37    0.48
  -4   0  -2  800.12   12.55
  -4   0  -2  799.80   13.25
  -4   0  -2  812.11   12.58
  -4   0  -3   -0.98    0.79
  -4   0  -3   -0.30    0.63
  -4   0  -3   -0.22    0.72
  -4   0  -4 1875.44   27.01
  -4   0  -4 1866.41   27.56
  -4   0  -4 1897.20   27.07
  -4   0  -5   -0.19    0.64
  -4   0  -5    0.13    0.71
  -4   0  -5   -0.51    0.78
   4   0   5   -0.17    0.68
  -4   0  -6  699.02   12.05
  -4   0  -6  708.59   12.30
  -4   0  -6  681.60   12.01
   4   0   6  663.31   12.00
  -4   0  -7    0.32    0.80
  -4   0  -7   -0.49    0.91
   4   0   7    0.35    0.71
  -4   0  -8  616.50   11.37
  -4   0  -8  582.72   11.32
   4   0   8  603.92   11.46
  -4   0  -9   -1.03    0.80
  -4   0  -9    0.33    0.87
   4   0   9   -0.25    0.80
  -4   0 -10 1175.24   19.29
  -4   0 -10 1154.38   19.57
   4   0  10 1174.93   19.74
  -4   0 -11    0.31    0.91
  -4   0 -11   -2.57    1.22
   4   0  11    1.07    0.93
  -4   0 -12   14.84    1.63
  -4   0 -12   13.95    1.81
  -4   0 -13   -0.16    0.81
  -4   0 -13    1.72    1.20
  -4   0 -14    7.47    1.44
  -4   0 -14    4.98    1.64
  -4   0 -15   -0.57    1.32
  -4   0 -16  476.27   11.77
  -4   0 -17    3.24    1.72
  -4   0 -18   64.86    4.20
  -4   0 -19    5.26    1.98
  -4   0 -20   87.26    5.16
  -4   0 -21   -2.46    1.74
   4  -1 -26   -1.51    1.55
   4   1 -25    2.95    1.55
   4  -1 -25    6.18    2.03
   4   1 -24   44.86    3.77
   4  -1 -24   43.34    3.56
   4   1 -23    0.86    1.43
   4   1 -23    2.70    1.73
   4  -1 -23    1.64    1.46
   4   1 -22    0.72    1.41
   4   1 -22    0.99    1.32
   4  -1 -22    0.69    1.39
   4   1 -21    1.13    1.35
   4   1 -21    4.29    1.59
   4  -1 -21    2.63    1.28
   4   1 -20   73.77    4.39
   4   1 -20   71.52    4.06
   4  -1 -20   77.04    4.13
   4   1 -19   37.28    3.05
   4   1 -19   34.02    2.85
   4  -1 -19   32.11    2.68
   4   1 -18   85.06    4.27
   4   1 -18   79.14    3.99
   4  -1 -18   81.16    3.94
   4   1 -17    0.34    1.14
   4  -1 -17    0.38    0.33
   4   1 -17    1.69    1.23
   4  -1 -17    0.68    1.02
   4   1 -16  290.58    7.93
   4  -1 -16  302.33    5.05
   4  -1 -16  293.19    7.52
  -4   1  16  301.78    7.55
   4   1 -15   41.96    2.74
   4  -1 -15   46.49    1.53
  -4  -1  15   49.03    2.80
   4  -1 -15   45.30    2.60
  -4   1  15   44.25    2.54
   4   1 -14  557.44   11.45
   4  -1 -14  569.65    8.83
  -4  -1  14  569.25   11.25
   4  -1 -14  556.98   10.88
  -4   1  14  575.49   10.91
  -4   1  14  540.72   11.94
   4   1 -13  146.98    4.84
   4  -1 -13  155.20    3.36
  -4  -1  13  158.57    4.77
  -4   1  13  154.82    4.51
   4  -1 -13  147.65    4.46
  -4   1  13  142.16    5.23
   4  -1 -13  163.59    5.40
   4   1 -13  158.90    5.30
   4   1 -12  122.61    4.21
   4  -1 -12  115.84    2.86
  -4  -1  12  118.96    3.94
   4  -1 -12  116.77    3.72
  -4   1  12  118.75    3.72
   4  -1 -12  118.66    4.43
   4   1 -12  120.83    4.40
  -4   1  12  116.83    4.43
   4  -1 -11    6.48    0.71
   4   1 -11    6.06    1.06
   4  -1 -11    5.41    1.02
  -4  -1  11    5.49    0.93
   4  -1 -11    5.90    0.96
  -4   1  11    6.31    0.91
  -4   1  11    5.25    1.26
   4  -1 -11    5.46    1.45
   4   1 -11    5.02    1.05
  -4  -1  11    4.52    1.13
   4   1 -10   57.38    2.63
   4  -1 -10   60.20    2.50
   4  -1 -10   58.82    1.97
  -4   1  10   58.44    2.27
  -4  -1  10   57.56    2.49
   4  -1 -10   59.31    2.87
   4   1 -10   62.15    2.88
  -4   1  10   59.12    2.93
  -4  -1  10   52.77    2.74
   4  -1  -9    2.57    0.70
   4  -1  -9    3.81    0.66
   4   1  -9    4.22    0.92
  -4   1   9    3.69    0.71
  -4  -1   9    3.56    0.79
  -4  -1   9    5.22    1.15
   4   1  -9    2.65    0.80
  -4   1   9    4.56    1.17
   4  -1  -9    1.54    0.85
   4  -1  -8   76.57    2.57
   4  -1  -8   79.26    2.41
   4   1  -8   78.56    2.86
  -4  -1   8   76.75    2.68
  -4   1   8   78.62    2.39
  -4   1   8   80.37    3.19
   4  -1  -8   76.46    3.08
   4   1  -8   83.15    3.11
  -4  -1   8   80.46    3.07
   4  -1  -7   23.11    1.32
   4  -1  -7   25.03    1.36
   4   1  -7   23.78    1.55
  -4  -1   7   25.77    1.48
  -4   1   7   24.23    1.22
  -4  -1   7   22.39    1.61
   4  -1  -7   23.43    1.70
  -4   1   7   21.30    1.67
   4   1  -7   24.66    1.64
  -4  -1   6  113.54    3.22
   4  -1  -6  115.17    3.14
   4   1  -6  114.74    3.31
   4  -1  -6  116.99    2.94
  -4   1   6  119.47    2.71
  -4  -1   6  121.13    3.53
   4   1  -6  114.88    3.46
  -4   1   6  116.52    3.64
   4  -1  -6  119.00    3.67
  -4  -1   5   42.33    1.83
   4  -1  -5   41.69    1.81
   4  -1  -5   40.49    1.52
  -4  -1   5   42.63    1.69
   4   1  -5   44.15    1.90
  -4   1   5   36.09    1.36
  -4  -1   5   44.02    1.99
   4   1  -5   44.35    1.96
   4  -1  -5   41.51    2.04
  -4   1   5   44.74    2.12
   4  -1  -4   -0.45    0.69
  -4  -1   4    1.30    0.55
   4   1  -4    0.83    0.63
  -4  -1   4   -0.29    0.55
   4  -1  -4    1.32    0.49
  -4   1   4    1.33    0.47
   4  -1  -4    0.18    0.66
  -4   1   4    1.78    0.89
   4   1  -4    1.08    0.66
  -4  -1   4    0.43    0.63
   4  -1  -3  108.44    3.20
  -4  -1   3  110.45    3.07
  -4  -1   3  110.08    2.94
  -4   1   3  109.33    2.45
   4  -1  -3  108.00    2.46
   4   1  -3  110.40    2.97
   4  -1  -3  108.60    3.19
  -4   1   3  108.65    3.27
   4   1  -3  108.23    2.92
  -4  -1   3  115.47    3.04
   4  -1  -2  497.21    8.71
  -4  -1   2  476.48    8.51
  -4   1   2  481.10    7.47
  -4  -1   2  480.10    8.16
   4   1  -2  482.61    8.19
   4   1  -2  474.35    8.06
   4  -1  -2  475.52    8.54
   4  -1  -2  483.98    7.47
  -4  -1   2  492.62    8.13
  -4   1   2  495.11    8.63
   4  -1  -1  289.57    5.96
  -4  -1   1  282.04    5.85
   4  -1  -1  283.76    4.87
  -4  -1   1  277.32    5.43
   4   1  -1  284.19    5.46
   4   1  -1  276.04    5.25
  -4   1   1  273.86    4.86
   4  -1  -1  275.63    5.68
  -4   1   1  284.69    5.73
  -4  -1   1  280.27    5.24
  -4   1   1  283.09    4.84
  -4   1   0   65.52    1.93
   4   1   0   67.86    2.27
  -4   1   0   69.79    2.43
  -4  -1   0   68.10    2.27
   4  -1   0   67.76    2.59
  -4  -1   0   73.07    2.58
  -4   1   0   68.84    2.52
  -4   1   0   69.39    1.97
  -4  -1   0   64.74    2.05
   4   1   1  246.94    5.06
  -4  -1  -1  237.00    5.02
  -4  -1  -1  238.30    4.64
  -4   1  -1  235.75    5.11
  -4   1  -1  236.56    4.59
   4  -1   1  227.49    5.36
  -4  -1  -1  246.67    5.42
  -4   1  -1  240.59    5.39
  -4   1  -1  234.35    4.59
  -4  -1  -1  238.77    5.01
  -4   1  -2 2101.24   28.74
  -4  -1  -2 2014.27   28.53
  -4  -1  -2 2112.16   29.30
   4   1   2 2052.31   29.22
  -4  -1  -2 2120.23   29.79
  -4   1  -2 2049.01   29.72
   4  -1   2 2069.05   29.76
  -4   1  -2 2080.55   28.77
  -4  -1  -2 2053.65   29.19
  -4   1  -3  637.04   10.41
  -4  -1  -3  644.46   10.86
  -4  -1  -3  654.75   11.25
  -4   1  -3  649.70   11.22
  -4   1  -3  638.25   10.50
  -4  -1  -3  643.19   10.86
   4  -1   3  626.80   10.45
  -4   1  -4    9.55    0.95
  -4  -1  -4    8.06    1.03
  -4  -1  -4    8.53    1.17
  -4   1  -4    7.60    1.08
  -4   1  -4    7.09    0.99
  -4  -1  -4    7.61    1.11
   4  -1   4    8.00    0.98
  -4  -1  -5    0.27    0.67
  -4  -1  -5    1.65    0.83
  -4   1  -5    0.86    0.81
  -4   1  -5    0.37    0.73
  -4  -1  -5    0.10    0.80
   4  -1   5    1.43    0.73
  -4  -1  -6   57.05    2.55
  -4  -1  -6   54.31    2.58
  -4   1  -6   55.04    2.56
   4  -1   6   52.03    2.40
  -4  -1  -6   50.47    2.51
  -4   1  -6   52.24    2.41
   4   1   6   50.88    2.49
  -4  -1  -7  470.30    9.38
  -4  -1  -7  455.01    9.19
  -4   1  -7  450.83    9.12
  -4  -1  -7  459.59    9.26
  -4   1  -7  469.85    9.14
   4  -1   7  450.17    9.09
   4   1   7  462.67    9.33
  -4  -1  -8 1335.18   21.08
  -4  -1  -8 1283.93   20.71
  -4   1  -8 1322.49   20.68
  -4  -1  -8 1281.34   20.82
  -4   1  -8 1282.58   20.64
   4  -1   8 1311.60   20.79
   4   1   8 1317.74   21.00
  -4  -1  -9    7.98    1.24
  -4  -1  -9    6.93    1.19
  -4   1  -9    9.05    1.26
  -4   1  -9    8.70    1.39
  -4  -1  -9    7.56    1.36
   4  -1   9    9.01    1.30
   4   1   9    8.10    1.25
  -4  -1 -10   19.23    1.75
  -4   1 -10   16.40    1.58
  -4  -1 -10   17.23    1.82
  -4   1 -10   21.64    1.97
   4  -1  10   19.24    1.86
   4   1  10   15.97    1.72
  -4  -1 -11    9.29    1.31
  -4   1 -11   11.11    1.41
  -4  -1 -11    9.34    1.55
  -4   1 -11   10.54    1.53
   4  -1  11   12.66    1.53
  -4  -1 -12  692.67   13.08
  -4   1 -12  689.76   12.90
  -4   1 -12  658.51   13.43
  -4  -1 -12  674.73   13.62
  -4  -1 -13  119.60    4.44
  -4   1 -13  118.51    4.34
  -4   1 -13  116.21    4.79
  -4  -1 -13  119.77    4.87
  -4   1 -14   66.87    3.29
  -4   1 -14   67.98    3.76
  -4  -1 -14   68.97    3.84
  -4   1 -15   15.60    2.01
  -4  -1 -15   17.39    2.20
  -4   1 -16  193.44    6.91
  -4  -1 -16  192.55    6.95
  -4   1 -17    0.03    1.36
  -4  -1 -17   -0.40    1.42
  -4   1 -18   58.49    3.96
  -4  -1 -18   67.54    4.36
  -4   1 -19    9.94    2.09
  -4  -1 -19   14.15    2.22
  -4  -1 -20  128.95    6.29
  -4   1 -20  117.33    5.96
  -4   1 -21    0.44    1.48
  -4  -1 -21    2.54    1.84
   4  -2 -26    8.80    2.22
   4   2 -25   -1.36    1.67
   4  -2 -25   -3.99    2.07
   4   2 -24   41.07    3.69
   4  -2 -24   39.93    3.45
   4   2 -23    9.82    2.14
   4  -2 -23    9.14    2.09
   4   2 -22   90.24    5.05
   4  -2 -22   95.81    4.87
   4   2 -21  174.26    6.90
   4  -2 -21  163.41    6.19
   4   2 -20    2.08    1.54
   4  -2 -20   -0.85    1.28
   4   2 -19   41.60    3.11
   4  -2 -19   48.54    3.14
   4   2 -18   83.30    4.30
   4  -2 -18   91.95    4.14
   4   2 -17   48.18    3.20
  -4   2  17   46.21    2.75
   4  -2 -17   51.01    2.94
   4   2 -16    0.69    1.07
  -4   2  16   -0.17    0.82
   4  -2 -16    0.80    0.89
   4   2 -15    6.81    1.30
  -4  -2  15    3.64    1.11
   4  -2 -15    5.47    1.09
  -4   2  15    4.43    1.03
  -4   2  15    2.77    1.40
   4   2 -14  137.12    4.91
  -4  -2  14  140.07    4.78
   4  -2 -14  142.91    4.44
  -4   2  14  142.43    4.39
  -4   2  14  141.08    5.22
   4   2 -13  178.52    5.52
   4  -2 -13  179.69    4.86
  -4   2  13  179.16    4.85
  -4  -2  13  177.59    5.30
   4   2 -13  177.40    5.68
  -4   2  13  181.73    5.81
   4   2 -12  102.55    3.94
   4  -2 -12  109.93    3.50
  -4   2  12  111.24    3.50
  -4  -2  12  107.26    3.91
   4   2 -12  114.19    4.25
  -4   2  12  111.50    4.37
   4  -2 -12  112.06    4.30
   4   2 -11    5.37    1.10
  -4  -2  11    7.19    1.17
  -4   2  11    6.31    0.92
   4  -2 -11    5.15    0.83
  -4   2  11    6.23    1.27
   4  -2 -11    6.11    1.20
   4   2 -11    4.59    1.09
   4   2 -10   54.39    2.63
   4  -2 -10   56.87    2.19
  -4  -2  10   50.70    2.48
  -4   2  10   56.02    2.14
  -4   2  10   52.77    2.83
   4  -2 -10   52.93    2.76
   4   2 -10   55.39    2.75
   4  -2  -9  145.44    3.83
   4   2  -9  148.86    4.40
  -4   2   9  152.91    3.59
  -4  -2   9  149.97    4.23
  -4   2   9  146.28    4.70
   4  -2  -9  151.56    4.72
   4   2  -9  150.92    4.50
  -4  -2   9  159.86    4.58
   4  -2  -8  317.19    6.10
   4   2  -8  319.91    6.91
  -4   2   8  321.15    5.74
  -4  -2   8  326.08    6.74
  -4   2   8  328.69    7.33
   4   2  -8  312.73    6.91
   4  -2  -8  324.15    7.32
  -4  -2   8  326.28    6.99
   4  -2  -7   55.60    1.91
  -4  -2   7   55.31    2.37
   4   2  -7   58.46    2.49
  -4  -2   7   56.36    1.84
  -4   2   7   56.89    1.73
  -4  -2   7   54.72    2.30
  -4   2   7   57.40    2.67
   4   2  -7   61.69    2.48
  -4  -2   7   57.24    2.45
   4  -2  -7   54.03    2.61
   4   2  -6  119.92    3.52
  -4  -2   6  118.76    3.48
  -4  -2   6  115.05    2.92
   4  -2  -6  116.93    2.75
  -4   2   6  117.69    2.49
   4  -2  -6  119.96    3.76
   4   2  -6  119.78    3.46
  -4   2   6  118.01    3.77
  -4  -2   6  119.49    3.43
   4  -2  -5   54.12    2.14
  -4  -2   5   51.53    2.13
  -4  -2   5   51.74    1.90
   4  -2  -5   48.83    1.52
   4   2  -5   51.15    2.20
  -4   2   5   48.74    1.30
   4   2  -5   51.39    2.04
   4  -2  -5   52.89    2.34
  -4   2   5   54.79    2.48
  -4  -2   5   52.10    2.11
   4  -2  -4   78.48    1.85
   4  -2  -4   80.87    2.90
   4   2  -4   78.84    2.71
  -4  -2   4   81.75    2.53
   4  -2  -4   83.72    2.77
  -4  -2   4   79.74    2.68
  -4   2   4   81.71    1.65
  -4  -2   4   84.78    2.56
   4   2  -4   82.77    2.52
  -4   2   4   85.75    3.01
  -4  -2   3   76.86    2.49
  -4   2   3   73.01    1.66
  -4  -2   3   79.94    2.61
   4  -2  -3   70.50    2.61
   4   2  -3   78.09    2.65
   4  -2  -3   75.10    2.74
   4  -2  -3   73.42    1.68
  -4   2   3   81.22    2.80
  -4  -2   3   78.93    2.34
   4   2  -3   79.12    2.35
   4  -2  -2  347.62    5.21
   4   2  -2  336.21    6.54
   4   2  -2  331.86    5.94
   4  -2  -2  347.32    6.87
  -4  -2   2  338.83    6.54
   4  -2  -2  351.41    6.83
  -4   2   2  337.36    5.21
  -4  -2   2  330.36    6.53
  -4   2   2  341.45    5.12
  -4   2   2  337.89    6.84
  -4  -2   2  331.20    5.94
  -4   2   1  717.81   10.35
   4   2  -1  710.40   10.88
  -4   2   1  742.70   12.05
  -4  -2   1  711.85   11.75
   4   2  -1  733.64   11.81
   4  -2  -1  745.59   12.14
  -4   2   1  734.49   10.36
  -4  -2   1  736.23   10.94
  -4  -2   0  530.04    9.46
   4   2   0  560.13    9.49
  -4   2   0  542.71    9.65
  -4   2   0  539.30    8.27
   4  -2   0  554.81    9.89
  -4   2   0  563.70    8.36
  -4  -2   0  556.23    8.54
   4   2   1  116.52    3.43
  -4   2  -1  121.26    2.76
  -4  -2  -1  121.62    3.45
  -4   2  -1  118.93    3.52
  -4  -2  -1  123.78    2.75
   4  -2   1  120.17    3.70
  -4   2  -1  121.73    2.81
  -4   2  -2  127.56    3.04
   4   2   2  127.73    3.62
  -4  -2  -2  125.97    2.85
  -4  -2  -2  127.79    3.67
   4  -2   2  121.75    3.79
  -4   2  -2  123.11    3.06
  -4  -2  -2  127.99    3.65
   4  -2   2  128.47    3.12
  -4  -2  -3  865.46   14.03
  -4   2  -3  870.48   13.14
   4   2   3  839.08   13.88
   4  -2   3  855.83   14.18
  -4   2  -3  872.24   13.24
  -4  -2  -3  849.00   13.92
   4  -2   3  840.18   13.19
  -4  -2  -4  591.01   10.57
  -4  -2  -4  595.72   10.52
   4  -2   4  584.08    9.92
  -4   2  -4  576.32    9.90
  -4   2  -4  578.14   10.56
   4  -2   4  576.35   10.53
  -4  -2  -5  462.58    9.01
   4  -2   5  453.26    8.47
  -4  -2  -5  451.51    8.92
  -4   2  -5  460.55    8.48
   4  -2   5  459.31    8.95
  -4   2  -5  452.42    8.92
  -4  -2  -6  479.74    9.40
  -4   2  -6  483.86    9.29
  -4   2  -6  474.37    8.94
  -4  -2  -6  463.91    9.29
   4  -2   6  449.67    8.83
  -4  -2  -7   12.63    1.41
  -4   2  -7   12.98    1.33
  -4  -2  -7    9.81    1.34
  -4   2  -7   10.92    1.30
   4  -2   7   13.10    1.37
  -4  -2  -8   23.99    1.91
  -4   2  -8   23.95    1.81
  -4  -2  -8   22.62    1.88
  -4   2  -8   27.00    1.94
   4  -2   8   22.03    1.75
  -4  -2  -9  128.55    4.51
  -4   2  -9  126.26    4.17
  -4   2  -9  115.76    4.16
  -4  -2  -9  126.13    4.53
   4  -2   9  122.57    4.29
   4   2   9  121.27    4.43
  -4  -2 -10  716.20   13.52
  -4   2 -10  674.02   12.62
  -4  -2 -10  680.35   13.28
  -4   2 -10  670.10   12.97
   4  -2  10  692.23   13.17
   4   2  10  701.56   13.44
  -4   2 -11  315.56    7.49
  -4  -2 -11  300.86    7.98
  -4   2 -11  325.11    8.02
   4  -2  11  323.27    8.08
  -4   2 -12   54.81    2.85
  -4  -2 -12   52.86    2.92
  -4   2 -12   57.58    3.27
  -4  -2 -12   54.68    3.22
  -4   2 -13  445.19    9.58
  -4   2 -13  440.00   10.35
  -4  -2 -13  430.47   10.42
  -4   2 -14   47.86    2.72
  -4   2 -14   43.20    3.06
  -4  -2 -14   39.04    2.98
  -4   2 -15  521.70   12.22
  -4  -2 -15  538.97   12.43
  -4  -2 -16  192.88    6.95
  -4   2 -16  185.17    6.78
  -4   2 -17    7.38    1.76
  -4  -2 -17    9.02    1.99
  -4  -2 -18   79.69    4.65
  -4   2 -18   78.91    4.67
  -4  -2 -19  150.51    6.63
  -4   2 -19  153.98    6.68
  -4   2 -20   44.11    3.72
  -4  -2 -20   44.83    3.74
  -4   2 -21   -0.77    1.49
  -4  -2 -21   -0.32    1.65
   4  -3 -27   10.53    2.07
   4  -3 -26   20.98    2.81
   4  -3 -25   76.11    4.70
   4   3 -24    2.42    1.60
   4  -3 -24    0.38    1.45
   4   3 -23    1.71    1.72
   4  -3 -23    0.29    1.34
   4   3 -22  107.40    5.59
   4  -3 -22  109.93    5.14
   4   3 -21   93.07    5.00
   4  -3 -21   90.50    4.55
   4   3 -20   46.14    3.66
   4  -3 -20   46.88    3.20
   4   3 -19  144.17    5.96
   4  -3 -19  140.52    5.34
   4   3 -18  228.37    7.46
   4  -3 -18  223.80    6.65
   4   3 -17   53.69    3.48
   4  -3 -17   50.88    3.00
  -4   3  17   56.48    2.99
   4   3 -16  114.96    4.89
   4  -3 -16  123.80    4.38
  -4   3  16  118.89    4.29
  -4   3  16  112.11    4.98
   4   3 -15   62.61    3.52
   4  -3 -15   64.68    3.02
  -4   3  15   66.95    3.01
  -4   3  15   61.16    3.53
   4   3 -14   63.34    3.39
  -4   3  14   71.37    2.94
   4  -3 -14   69.92    2.98
  -4  -3  14   71.31    3.41
  -4   3  14   67.61    3.63
   4   3 -13   10.24    1.54
  -4  -3  13   12.33    1.52
  -4   3  13   11.52    1.23
   4  -3 -13   11.87    1.23
  -4   3  13   10.85    1.64
   4   3 -13   13.30    1.60
   4   3 -12    3.21    1.14
  -4  -3  12    4.13    1.05
  -4   3  12    1.68    0.66
   4  -3 -12    2.97    0.82
   4  -3 -12    3.57    1.17
  -4   3  12    2.66    1.22
   4   3 -12    2.46    1.03
   4   3 -11  149.21    4.86
  -4   3  11  144.94    3.82
   4  -3 -11  155.98    3.97
  -4  -3  11  150.95    4.72
  -4   3  11  144.75    4.94
   4   3 -11  154.01    4.87
   4  -3 -11  159.92    5.17
   4   3 -10   64.51    3.04
  -4   3  10   73.54    2.38
   4  -3 -10   69.33    2.35
  -4  -3  10   72.80    3.03
  -4   3  10   70.48    3.34
   4   3 -10   70.82    3.08
   4  -3 -10   68.78    3.23
   4   3  -9    4.93    1.07
  -4  -3   9    3.72    0.49
  -4   3   9    4.25    0.63
   4  -3  -9    3.79    0.61
  -4  -3   9    5.03    1.00
   4  -3  -9    4.44    1.04
   4   3  -9    2.93    0.84
  -4   3   9    2.88    1.14
  -4  -3   8  330.64    5.82
   4   3  -8  348.81    7.44
  -4   3   8  345.55    5.83
  -4  -3   8  342.56    7.21
   4  -3  -8  332.65    5.83
   4  -3  -8  345.46    7.71
   4   3  -8  344.02    7.21
  -4   3   8  350.55    7.76
  -4  -3   7  917.35   13.60
   4  -3  -7  894.18   13.42
  -4  -3   7  915.95   15.07
   4   3  -7  919.50   15.12
  -4   3   7  930.21   13.02
   4   3  -7  895.91   14.70
   4  -3  -7  919.45   15.51
  -4   3   7  955.49   15.62
  -4  -3   6   98.19    2.69
   4  -3  -6   97.96    2.29
  -4  -3   6  101.86    3.34
   4   3  -6   96.79    3.32
  -4   3   6  100.60    1.99
   4   3  -6   95.04    3.00
  -4   3   6  103.69    3.60
   4  -3  -6   97.14    3.49
  -4  -3   6  101.48    3.07
  -4  -3   5  457.58    8.73
   4   3  -5  470.58    8.79
   4  -3  -5  451.48    6.90
   4  -3  -5  493.73    9.17
  -4   3   5  476.33    9.10
  -4  -3   5  471.68    8.18
   4   3  -5  472.87    8.18
  -4  -3   4  292.17    6.12
   4  -3  -4  281.89    6.29
   4   3  -4  274.80    6.03
   4  -3  -4  278.45    4.17
   4   3  -4  279.08    5.39
  -4  -3   4  274.83    5.36
  -4   3   4  282.78    6.32
  -4  -3   3  394.37    7.62
   4   3  -3  389.63    7.64
   4  -3  -3  400.29    7.94
  -4   3   3  405.93    7.98
   4   3  -3  388.51    6.71
  -4  -3   3  403.73    6.77
   4  -3  -2  164.09    4.29
  -4  -3   2  161.33    4.18
   4   3  -2  155.71    4.14
   4  -3  -2  161.19    4.32
   4   3  -2  152.47    3.25
  -4  -3   2  160.00    3.31
  -4   3   2  157.17    4.31
   4   3  -1  257.85    5.66
  -4   3   1  255.02    5.77
  -4  -3   1  264.05    5.70
   4   3  -1  250.82    4.46
  -4   3   1  255.19    3.87
   4  -3  -1  264.22    5.83
  -4   3   1  259.31    4.02
  -4  -3   1  252.69    4.46
  -4  -3   0  156.82    4.17
  -4   3   0  155.86    4.27
   4   3   0  157.41    4.19
  -4   3   0  157.96    2.86
   4  -3   0  156.19    4.28
  -4   3   0  151.52    2.96
  -4  -3   0  160.59    3.04
  -4  -3  -1    9.70    1.10
  -4   3  -1    8.61    0.67
  -4  -3  -1    8.28    0.62
   4   3   1    6.68    1.02
  -4   3  -1   10.42    1.24
   4  -3   1    7.05    1.11
  -4   3  -1    6.45    0.57
   4  -3   1    8.51    0.71
   4   3   2   55.05    2.46
  -4  -3  -2   60.90    2.54
  -4  -3  -2   63.64    1.65
   4  -3   2   57.09    2.56
  -4   3  -2   59.63    1.95
   4  -3   2   58.09    1.92
   4   3   3  503.85    9.61
  -4  -3  -3  526.58    9.71
   4  -3   3  516.97    9.68
  -4   3  -3  510.23    8.64
   4  -3   3  504.45    8.62
  -4  -3  -3  527.61    9.65
  -4  -3  -4   28.15    1.85
   4  -3   4   27.83    1.90
  -4   3  -4   25.02    1.54
   4  -3   4   28.04    1.51
  -4  -3  -4   28.60    1.90
  -4  -3  -5    0.24    0.73
   4  -3   5    0.59    0.88
   4  -3   5    0.23    0.56
  -4   3  -5   -0.87    0.69
  -4  -3  -5   -0.16    0.90
  -4  -3  -6  157.78    4.76
  -4   3  -6  153.68    4.29
  -4  -3  -6  162.36    4.77
   4  -3   6  154.89    4.30
   4  -3   6  153.36    4.57
  -4  -3  -7  499.95   10.14
  -4   3  -7  498.42    9.53
  -4  -3  -7  496.89   10.01
   4  -3   7  484.45    9.52
   4  -3   7  491.02    9.69
  -4  -3  -8  235.12    6.38
  -4  -3  -8  229.44    6.24
  -4   3  -8  228.51    5.90
   4  -3   8  228.41    5.92
  -4  -3  -9    2.81    1.10
   4  -3   9    0.77    0.80
  -4   3  -9    1.01    0.96
  -4  -3  -9    1.00    1.05
  -4  -3 -10   60.63    3.25
  -4   3 -10   58.50    3.02
  -4  -3 -10   59.60    3.23
   4  -3  10   60.04    3.06
  -4   3 -11  236.68    6.69
  -4  -3 -11  234.11    6.92
   4  -3  11  253.48    6.93
  -4   3 -12   24.27    2.19
  -4  -3 -12   26.42    2.41
  -4   3 -13    0.54    1.24
  -4  -3 -13    1.97    1.29
  -4   3 -14   15.39    2.09
  -4  -3 -14   13.51    1.93
  -4  -3 -15   75.81    4.23
  -4   3 -15   74.16    4.13
  -4  -3 -16   36.69    3.16
  -4   3 -16   37.50    3.15
  -4  -3 -17   64.70    4.12
  -4   3 -17   63.44    3.99
  -4   3 -18    6.04    1.77
  -4  -3 -18    7.28    1.91
  -4   3 -19    5.06    1.96
  -4  -3 -19    6.88    1.92
  -4   3 -20   15.30    2.53
  -4  -3 -20   18.24    2.63
  -4  -3 -21  135.41    6.64
  -4   3 -21  133.07    6.54
   4  -4 -26    5.89    1.82
   4  -4 -25   22.71    2.77
   4   4 -24    2.24    1.54
   4  -4 -24   -0.09    1.41
   4   4 -23   84.80    5.20
   4  -4 -23   81.30    4.65
   4   4 -22   23.76    2.86
   4  -4 -22   15.81    2.12
   4   4 -21   38.15    3.39
   4  -4 -21   37.79    2.98
   4   4 -20    7.98    1.85
   4  -4 -20   10.49    1.69
   4   4 -19   51.03    3.65
   4  -4 -19   53.75    3.19
   4   4 -18    1.09    1.34
   4  -4 -18   -0.77    1.15
   4   4 -17    0.66    1.23
   4  -4 -17   -0.25    1.03
  -4   4  17    1.44    1.02
  -4   4  17    2.47    1.48
   4   4 -16   26.23    2.52
  -4   4  16   26.64    2.03
   4  -4 -16   24.88    2.02
  -4   4  16   23.32    2.38
   4   4 -15   -0.19    1.04
   4  -4 -15   -0.08    0.79
  -4   4  15    1.07    1.11
  -4   4  15    1.22    0.82
   4   4 -14   88.64    4.08
  -4   4  14   88.10    3.29
   4  -4 -14   88.39    3.30
  -4   4  14   83.58    4.07
   4   4 -13  144.30    5.11
  -4   4  13  143.26    4.13
   4  -4 -13  143.37    4.15
  -4  -4  13  152.25    5.09
   4   4 -13  151.68    5.16
  -4   4  13  140.62    5.25
   4   4 -12   36.20    2.50
  -4   4  12   37.63    1.89
   4  -4 -12   36.18    1.86
  -4  -4  12   38.10    2.44
  -4   4  12   39.71    2.72
   4   4 -12   36.73    2.40
   4   4 -11   24.09    2.04
  -4   4  11   20.63    1.32
   4  -4 -11   23.12    1.42
  -4  -4  11   23.43    1.89
   4  -4 -11   24.15    2.10
   4   4 -11   23.74    1.87
  -4   4  11   24.08    2.10
  -4  -4  10  209.94    3.81
   4   4 -10  204.31    5.82
   4  -4 -10  205.59    4.47
  -4  -4  10  219.96    5.84
  -4   4  10  211.85    4.48
   4   4 -10  206.77    5.62
  -4   4  10  204.88    6.01
   4  -4 -10  209.83    6.03
  -4  -4   9  204.03    3.99
   4   4  -9  211.67    5.79
  -4  -4   9  214.59    5.64
   4  -4  -9  206.39    4.23
  -4   4   9  212.10    4.22
   4   4  -9  205.42    5.41
   4  -4  -9  218.75    5.96
  -4   4   9  211.26    5.95
  -4  -4   8  424.69    7.17
   4   4  -8  428.72    8.98
  -4  -4   8  445.97    9.03
   4  -4  -8  426.29    6.91
  -4   4   8  439.38    6.92
   4   4  -8  428.95    8.48
   4  -4  -8  447.18    9.25
  -4   4   8  424.92    9.17
  -4  -4   7  162.83    4.68
   4   4  -7  152.88    4.60
   4  -4  -7  155.17    2.94
   4   4  -7  157.20    4.21
  -4   4   7  162.41    2.94
   4  -4  -7  156.09    4.78
  -4   4   7  156.31    4.80
  -4  -4   6   13.31    1.41
   4  -4  -6    9.90    0.62
   4   4  -6   10.24    1.29
   4  -4  -6   10.04    1.27
   4   4  -6   10.76    1.01
  -4   4   6   12.95    1.47
   4   4  -5  367.90    7.70
   4  -4  -5  356.42    5.28
  -4  -4   5  373.53    7.67
   4  -4  -5  374.46    7.88
  -4   4   5  372.55    7.84
   4   4  -5  368.93    6.73
  -4  -4   4  171.04    4.65
   4  -4  -4  179.03    4.87
   4   4  -4  165.96    4.65
  -4   4   4  172.88    4.78
   4   4  -4  177.64    3.85
  -4  -4   3  852.25   14.04
   4   4  -3  840.65   14.05
   4  -4  -3  858.56   14.30
   4   4  -3  838.44   12.48
  -4   4   3  852.05   14.29
  -4  -4   2  689.64   11.90
   4   4  -2  685.72   11.90
   4  -4  -2  694.56   12.06
   4   4  -2  666.63   10.11
  -4   4   2  703.36   12.09
  -4  -4   2  698.55   10.13
   4   4  -1 1320.37   20.31
  -4  -4   1 1354.96   20.36
  -4   4   1 1330.91   20.44
   4   4  -1 1311.52   18.05
  -4  -4   1 1325.74   18.04
  -4   4   0   10.49    0.55
   4   4   0   10.03    1.25
  -4   4   0   12.08    1.38
  -4  -4   0   13.70    1.30
  -4   4   0   11.74    0.70
   4  -4   0    9.31    0.61
  -4  -4   0   11.54    0.58
   4   4   1 1588.87   23.53
  -4   4  -1 1563.25   23.63
  -4  -4  -1 1604.34   23.64
   4  -4   1 1575.10   23.57
   4  -4   1 1540.04   21.56
  -4   4  -1 1603.07   21.59
  -4  -4  -1 1538.04   20.75
   4   4   2   54.58    2.60
  -4  -4  -2   61.27    2.65
   4  -4   2   56.89    2.61
  -4   4  -2   57.32    1.90
   4  -4   2   54.45    1.84
  -4  -4  -2   56.50    1.28
   4   4   3    8.59    1.20
  -4  -4  -3   11.34    0.62
  -4  -4  -3   11.04    1.27
   4  -4   3    9.89    1.28
   4  -4   3   11.67    0.97
  -4   4  -3   11.66    0.98
  -4  -4  -4    4.50    0.96
   4   4   4    3.91    0.96
   4  -4   4    3.75    1.11
  -4   4  -4    1.97    0.74
   4  -4   4    3.31    0.68
  -4  -4  -4    3.35    1.04
  -4  -4  -5 1133.68   18.30
   4  -4   5 1111.83   17.99
   4  -4   5 1080.02   17.11
  -4   4  -5 1114.92   17.12
  -4  -4  -5 1116.42   18.14
  -4  -4  -6    0.43    0.72
   4  -4   6    1.05    0.86
  -4   4  -6    1.67    0.91
   4  -4   6    1.20    0.70
  -4  -4  -6   -0.73    0.89
  -4  -4  -7    4.99    1.15
   4  -4   7    3.10    1.09
  -4   4  -7    3.85    1.02
   4  -4   7    3.34    0.85
  -4  -4  -7    1.67    1.09
  -4  -4  -8  272.45    7.11
   4  -4   8  270.60    6.60
  -4  -4  -8  266.66    6.98
  -4   4  -8  267.58    6.51
   4  -4   8  254.91    6.49
  -4  -4  -9  288.08    7.49
   4  -4   9  278.82    6.83
  -4  -4  -9  279.71    7.36
   4  -4   9  277.28    6.95
  -4   4  -9  272.02    6.88
  -4   4 -10   10.14    1.60
  -4  -4 -10    5.90    1.38
   4  -4  10    8.84    1.30
   4  -4  11  100.01    4.17
  -4  -4 -11   91.51    4.18
  -4   4 -11   99.79    4.14
  -4  -4 -11   95.43    3.40
  -4   4 -12    6.46    1.42
  -4  -4 -12    8.18    1.65
  -4  -4 -12    8.19    1.19
  -4  -4 -13  118.49    5.07
  -4   4 -13  121.23    4.93
  -4  -4 -13  133.57    4.44
  -4   4 -14  124.09    5.15
  -4  -4 -14  117.84    5.17
  -4  -4 -14  120.88    4.37
  -4   4 -15  279.60    8.30
  -4  -4 -15  270.05    8.45
  -4  -4 -15  279.37    7.33
  -4  -4 -16   77.73    5.00
  -4   4 -16   75.32    4.23
  -4   4 -17   10.56    2.11
  -4  -4 -17    8.78    2.11
  -4  -4 -18   62.77    4.24
  -4   4 -18   67.92    4.29
  -4  -4 -19  110.34    5.76
  -4   4 -19  102.32    5.43
  -4  -4 -20   12.72    2.43
  -4   4 -20   14.38    2.35
  -4  -4 -21   27.66    3.10
  -4   4 -21   23.44    2.97
   4  -5 -26   20.11    2.69
   4  -5 -25   50.08    3.81
   4   5 -24    0.56    1.59
   4  -5 -24    1.83    1.63
   4   5 -23   16.94    2.67
   4  -5 -23   14.68    2.18
   4   5 -22   22.59    2.83
   4  -5 -22   22.51    2.46
   4   5 -21   64.15    4.32
   4  -5 -21   71.65    3.94
   4   5 -20    4.56    1.69
   4  -5 -20    6.68    1.54
   4   5 -19   83.91    4.71
   4  -5 -19   87.89    4.03
   4   5 -18   14.03    2.23
   4  -5 -18   14.30    1.74
  -4   5  18   16.74    2.28
   4   5 -17   15.88    2.17
   4  -5 -17   18.41    1.85
  -4   5  17   15.46    1.68
  -4   5  17   15.60    2.12
   4   5 -16    3.05    1.42
   4  -5 -16    4.55    1.25
  -4   5  16    3.93    1.36
  -4   5  16    3.45    1.04
   4   5 -15  141.43    5.49
  -4   5  15  142.17    4.47
   4  -5 -15  144.07    4.46
  -4   5  15  135.00    5.44
   4   5 -14    2.64    1.41
   4  -5 -14    0.57    0.70
  -4   5  14    2.16    1.36
  -4   5  14    1.32    0.70
   4   5 -13  154.70    5.50
  -4   5  13  145.65    4.16
   4  -5 -13  149.08    4.18
  -4   5  13  150.21    5.44
   4   5 -13  151.14    5.23
   4   5 -12   -0.58    1.14
   4  -5 -12    1.30    0.69
  -4  -5  12    1.75    0.88
  -4   5  12    1.92    1.13
   4   5 -12    1.14    0.83
  -4   5  12    1.54    0.63
  -4  -5  11  473.69    7.27
   4   5 -11  472.72   10.40
  -4  -5  11  494.77   10.33
   4  -5 -11  478.61    8.44
   4   5 -11  499.68   10.10
   4  -5 -11  490.24   10.58
  -4   5  11  473.13   10.51
  -4   5  11  472.51    8.40
   4  -5 -10   17.93    1.78
  -4  -5  10   16.84    0.92
   4   5 -10   16.72    1.79
  -4  -5  10   13.68    1.65
   4  -5 -10   17.67    1.14
   4   5 -10   16.57    1.60
  -4   5  10   16.37    1.09
  -4   5  10   14.60    1.68
   4   5  -9  417.86    9.29
  -4  -5   9  450.08    9.47
  -4  -5   9  423.41    9.13
   4  -5  -9  427.35    7.20
   4   5  -9  437.38    8.78
  -4   5   9  429.06    9.50
  -4   5   9  440.28    7.21
   4  -5  -9  437.68    9.54
   4   5  -8  471.34    9.78
  -4  -5   8  486.48    9.79
   4  -5  -8  462.48    7.32
   4   5  -8  448.33    8.89
  -4   5   8  474.16    9.91
   4  -5  -8  486.74    9.98
  -4  -5   7  170.94    4.99
   4   5  -7  162.26    4.95
   4  -5  -7  161.72    2.95
   4   5  -7  155.59    4.22
   4  -5  -7  173.77    5.14
  -4   5   7  170.96    5.09
  -4  -5   6   39.26    2.28
   4   5  -6   35.73    2.29
   4  -5  -6   39.64    1.15
   4  -5  -6   43.16    2.39
   4   5  -6   36.84    1.78
  -4   5   6   42.58    2.46
   4   5  -5   12.35    1.44
  -4  -5   5   13.24    1.37
   4  -5  -5   12.07    1.39
  -4   5   5   13.79    1.52
   4   5  -5   13.12    1.00
  -4  -5   4  127.94    4.08
   4   5  -4  123.31    4.07
   4  -5  -4  131.80    4.23
  -4   5   4  127.30    4.19
   4   5  -4  128.60    3.09
  -4  -5   3  466.40    9.09
   4   5  -3  440.15    9.02
   4  -5  -3  461.30    9.20
  -4   5   3  448.82    9.12
   4   5  -3  456.27    7.30
  -4  -5   2    1.33    0.76
   4   5  -2    1.29    0.90
  -4   5   2    1.59    1.04
   4   5  -2    0.75    0.29
   4   5  -1  334.63    7.22
   4   5  -1  323.72    4.86
  -4   5   1  322.93    7.17
   4  -5  -1  318.36    4.83
  -4  -5   1  327.27    7.19
  -4  -5   0   40.41    2.25
  -4   5   0   40.44    2.35
   4   5   0   40.90    2.31
   4  -5   0   42.20    1.30
  -4   5   0   42.90    1.06
  -4  -5  -1   51.40    2.51
   4   5   1   46.65    2.45
  -4   5  -1   53.34    2.60
  -4   5  -1   50.32    1.66
   4  -5   1   50.88    1.65
  -4   5  -1   53.85    1.50
   4   5   2  113.80    3.91
  -4  -5  -2  111.23    3.85
   4  -5   2  111.70    2.84
  -4   5  -2  113.37    2.88
   4   5   3   43.33    2.43
  -4  -5  -3   42.94    2.41
   4  -5   3   43.59    2.41
   4  -5   3   43.87    1.81
  -4   5  -3   46.18    1.89
  -4  -5  -4   43.66    2.48
   4   5   4   42.71    2.49
   4  -5   4   39.68    2.28
   4  -5   4   37.86    1.83
  -4   5  -4   39.47    1.86
  -4  -5  -4   41.23    1.08
  -4  -5  -5   26.57    2.01
   4   5   5   27.18    2.06
   4  -5   5   24.81    1.88
   4  -5   5   23.14    1.54
  -4   5  -5   27.20    1.65
  -4  -5  -5   24.58    1.89
  -4  -5  -5   25.34    0.99
  -4  -5  -6   29.83    2.19
   4  -5   6   31.67    2.12
   4  -5   6   32.33    1.87
  -4   5  -6   29.25    1.87
  -4  -5  -6   25.75    2.06
  -4  -5  -6   29.23    1.24
  -4  -5  -7  459.51   10.01
   4  -5   7  454.80    9.45
   4  -5   7  459.47    9.16
  -4  -5  -7  458.70    9.86
  -4   5  -7  455.07    9.07
  -4  -5  -7  457.87    7.66
  -4  -5  -8    1.81    0.96
   4  -5   8    2.86    0.97
  -4   5  -8    2.97    1.08
   4  -5   8    0.99    0.76
  -4  -5  -8    2.99    0.66
  -4  -5  -8    2.63    1.07
   4  -5   9  772.28   14.13
   4  -5   9  796.13   14.34
  -4  -5  -9  788.46   14.91
  -4   5  -9  787.24   14.23
  -4  -5  -9  790.77   12.68
   4  -5  10   -0.66    0.85
  -4   5 -10   -1.82    0.98
   4  -5  10    0.04    0.89
  -4  -5 -10   -0.10    1.11
  -4  -5 -10    0.94    0.71
  -4   5 -11  166.36    5.48
  -4  -5 -11  161.27    5.74
  -4  -5 -11  164.68    4.52
  -4   5 -12   16.93    1.99
  -4  -5 -12   11.43    1.70
  -4  -5 -12   11.61    1.30
  -4  -5 -13  510.53   11.86
  -4   5 -13  500.88   11.41
  -4  -5 -13  496.06    9.99
  -4  -5 -14   69.98    4.05
  -4   5 -14   71.01    3.89
  -4  -5 -14   75.31    3.32
  -4   5 -15   92.50    4.60
  -4  -5 -15   89.95    4.76
  -4  -5 -15   89.22    3.79
  -4   5 -16  107.16    5.10
  -4  -5 -16  111.87    5.34
  -4   5 -17  371.54   10.47
  -4  -5 -17  386.88   10.85
  -4  -5 -18    3.64    1.77
  -4   5 -18    1.44    1.47
  -4  -5 -19    9.83    2.17
  -4   5 -19   11.33    2.06
  -4   5 -20   27.56    3.15
  -4  -5 -20   23.37    3.00
  -4   5 -21  142.98    6.88
   4  -6 -25    2.90    1.73
   4  -6 -24    1.19    1.42
   4   6 -23  143.60    6.93
   4  -6 -23  128.24    5.70
   4   6 -22   14.65    2.59
   4  -6 -22   13.25    2.09
   4   6 -21    9.73    1.96
   4  -6 -21   12.89    1.97
   4   6 -20   15.94    2.36
   4  -6 -20   22.85    2.32
   4   6 -19  122.42    5.78
   4  -6 -19  121.68    4.78
  -4   6  19  116.48    5.76
   4   6 -18    7.10    1.74
   4  -6 -18    8.36    1.49
  -4   6  18    6.05    1.77
   4   6 -17    5.03    1.76
   4  -6 -17    6.34    1.24
  -4   6  17    3.87    1.41
  -4   6  17    5.57    1.12
   4   6 -16   21.98    2.41
   4  -6 -16   28.18    2.05
  -4   6  16   23.63    2.48
  -4   6  16   27.70    2.01
   4   6 -15   81.35    4.22
   4  -6 -15   82.29    3.30
  -4   6  15   86.12    3.36
  -4   6  15   83.69    4.32
   4   6 -14    9.43    1.73
   4  -6 -14   11.25    1.27
  -4   6  14   13.23    1.85
  -4   6  14   15.30    1.41
   4   6 -13  153.47    5.61
   4  -6 -13  151.89    4.24
  -4   6  13  152.52    4.23
  -4   6  13  156.56    5.68
   4   6 -13  148.77    5.22
   4   6 -12   -1.38    1.25
  -4  -6  12    0.98    0.33
   4  -6 -12    0.79    0.72
   4   6 -12    0.92    0.87
  -4   6  12    0.74    0.69
  -4   6  12    1.04    1.18
   4   6 -11    7.61    1.44
   4  -6 -11    6.87    0.86
  -4  -6  11    6.95    1.31
   4   6 -11    6.20    1.11
  -4   6  11    8.71    1.59
   4   6 -10  287.05    7.59
  -4  -6  10  308.45    7.64
   4  -6 -10  290.48    5.62
   4  -6 -10  310.78    7.84
  -4   6  10  286.85    7.61
   4   6 -10  295.18    7.04
   4  -6  -9  541.33    9.07
  -4  -6   9  566.28   11.38
   4   6  -9  540.10   11.27
  -4  -6   9  570.41   11.24
   4  -6  -9  544.70    8.72
   4  -6  -9  563.13   11.46
  -4   6   9  529.54   11.25
   4   6  -9  543.91   10.38
   4  -6  -8   30.79    1.33
  -4  -6   8   34.93    2.35
   4   6  -8   34.21    2.32
   4  -6  -8   33.57    1.24
  -4   6   8   32.10    2.34
   4   6  -8   30.94    1.88
   4  -6  -8   29.17    2.23
   4  -6  -7  470.84    7.34
   4  -6  -7  474.32    9.94
  -4  -6   7  475.16    9.89
   4   6  -7  463.58    9.88
   4  -6  -7  469.01    7.00
  -4   6   7  455.98    9.82
   4   6  -7  460.57    8.68
   4  -6  -6  555.93   10.69
   4  -6  -6  511.23    7.61
  -4  -6   6  541.51   10.58
   4   6  -6  537.74   10.62
   4  -6  -6  508.82    7.26
   4   6  -6  531.33    9.15
  -4   6   6  540.00   10.66
  -4  -6   5  426.50    8.92
   4  -6  -5  421.17    8.94
   4   6  -5  399.51    8.75
   4   6  -5  393.74    7.25
  -4   6   5  407.77    8.82
  -4  -6   4   83.21    3.36
   4  -6  -4   87.27    3.48
   4   6  -4   88.79    3.52
   4   6  -4   83.17    2.37
  -4   6   4   88.96    3.57
  -4  -6   3  103.71    3.78
   4   6  -3  108.17    3.89
   4  -6  -3  108.74    3.87
  -4   6   3  108.60    3.87
   4   6  -3  104.75    2.48
  -4  -6   2   93.57    3.55
  -4   6   2   94.60    3.59
   4   6  -2   94.39    3.58
   4   6  -2   88.74    1.98
   4   6  -1  339.29    7.65
  -4   6   1  348.13    7.72
   4  -6  -1  336.61    5.29
  -4  -6   1  358.11    7.82
  -4  -6   0   75.23    3.21
  -4   6   0   73.64    3.24
   4   6   0   70.48    3.12
   4  -6   0   75.01    1.94
  -4   6   0   77.70    1.65
  -4   6  -1  784.10   13.98
   4   6   1  783.18   13.96
  -4  -6  -1  806.62   14.07
   4  -6   1  760.46   11.74
  -4   6  -1  803.02   11.38
  -4   6  -2    6.01    1.21
   4   6   2    6.48    1.33
  -4  -6  -2    6.20    1.24
   4  -6   2    6.48    0.77
  -4   6  -2    4.31    0.60
   4   6   3  153.37    4.92
  -4  -6  -3  162.94    5.06
  -4   6  -3  160.39    3.92
   4  -6   3  157.35    3.90
  -4   6  -3  167.33    3.72
  -4  -6  -4   29.16    2.12
   4   6   4   25.27    1.92
   4  -6   4   27.34    2.05
  -4   6  -4   27.14    1.62
   4  -6   4   27.70    1.59
  -4  -6  -5  480.03   10.06
   4   6   5  450.67    9.79
   4  -6   5  451.26    9.45
  -4   6  -5  455.45    8.61
   4  -6   5  438.50    8.59
  -4  -6  -5  452.38    9.72
  -4  -6  -5  459.64    6.58
  -4  -6  -6  124.72    4.58
   4  -6   6  117.43    4.16
  -4   6  -6  121.86    3.82
   4  -6   6  120.91    3.82
  -4  -6  -6  121.17    2.55
  -4  -6  -6  115.38    4.37
  -4  -6  -7    1.97    0.97
   4  -6   7    2.78    1.09
   4  -6   7    2.70    0.85
  -4   6  -7    1.81    0.89
  -4  -6  -7    0.96    1.06
  -4  -6  -7    2.05    0.48
   4  -6   8    2.51    1.00
   4  -6   8    3.16    0.98
  -4   6  -8    3.03    0.96
  -4  -6  -8    3.20    0.61
  -4  -6  -8    2.08    1.19
   4  -6   9  263.36    6.85
  -4  -6  -9  257.68    7.34
  -4   6  -9  269.92    6.87
   4  -6   9  274.11    6.99
  -4  -6  -9  262.22    5.46
   4  -6  10   65.64    3.19
  -4  -6 -10   60.37    3.44
  -4   6 -10   65.92    3.34
   4  -6  10   68.05    3.35
  -4  -6 -10   64.16    2.47
   4  -6  11   20.81    1.92
  -4  -6 -11   29.83    2.53
  -4   6 -11   31.17    2.37
  -4  -6 -11   23.85    1.63
   4  -6  12   27.28    2.16
  -4  -6 -12   33.24    2.78
  -4   6 -12   28.87    2.45
  -4  -6 -12   30.90    1.93
  -4  -6 -13  152.44    5.96
  -4   6 -13  153.68    5.71
  -4  -6 -13  156.84    4.73
  -4  -6 -14  165.14    6.33
  -4   6 -14  152.92    5.89
  -4  -6 -14  159.54    4.95
  -4  -6 -15   22.40    2.58
  -4   6 -15   19.10    2.25
  -4  -6 -15   19.98    1.81
  -4  -6 -16    9.86    2.24
  -4   6 -16    4.54    1.76
  -4  -6 -17   26.06    2.90
  -4   6 -17   23.36    2.77
  -4  -6 -18    7.98    1.98
  -4   6 -18    9.76    2.30
  -4   6 -19  141.71    6.58
  -4  -6 -19  156.49    6.97
  -4  -6 -20   38.34    3.62
  -4   6 -20   34.54    3.48
  -4   6 -21   53.92    4.35
   4  -7 -24   18.11    2.52
   4  -7 -23    6.56    1.66
   4   7 -22   11.22    2.25
   4  -7 -22   14.47    2.10
   4   7 -21   68.89    4.68
   4  -7 -21   65.61    3.76
   4   7 -20   76.73    4.86
   4  -7 -20   71.19    3.80
   4   7 -19  111.65    5.67
   4  -7 -19  104.75    4.45
  -4   7  19   97.18    5.24
   4   7 -18   24.46    2.78
   4  -7 -18   23.91    2.09
  -4   7  18   22.17    2.64
   4   7 -17   32.71    3.14
   4  -7 -17   26.25    2.12
  -4   7  17   30.19    2.89
  -4   7  17   32.63    2.30
   4   7 -16   34.97    3.05
   4  -7 -16   35.16    2.29
  -4   7  16   30.41    2.85
   4   7 -15   41.09    3.20
   4  -7 -15   41.91    2.35
  -4   7  15   33.25    2.86
   4   7 -14   -0.63    1.28
   4  -7 -14    2.18    0.84
  -4   7  14    0.36    1.19
   4  -7 -13   68.82    2.88
  -4  -7  13   69.04    1.67
   4   7 -13   63.23    3.70
   4  -7 -13   67.34    2.70
  -4   7  13   65.45    3.71
   4  -7 -12   76.74    2.92
   4   7 -12   77.77    3.93
   4  -7 -12   74.60    2.71
  -4   7  12   73.72    3.85
   4   7 -12   75.21    3.52
   4  -7 -11   38.78    1.92
   4   7 -11   41.30    2.86
   4  -7 -11   37.65    1.76
  -4   7  11   35.41    2.63
   4   7 -11   39.28    2.42
   4  -7 -10   29.87    1.58
   4   7 -10   26.95    2.31
   4  -7 -10   26.91    1.38
   4   7 -10   25.99    1.90
  -4   7  10   33.73    2.49
   4  -7  -9  187.29    4.17
   4  -7  -9  196.05    6.01
  -4  -7   9  193.74    5.97
   4   7  -9  184.65    5.90
   4  -7  -9  187.99    3.94
   4   7  -9  187.14    5.13
  -4   7   9  187.44    5.91
   4  -7  -8   15.49    0.97
   4  -7  -8   15.47    1.70
  -4  -7   8   21.24    1.95
   4   7  -8   13.25    1.72
   4  -7  -8   15.99    0.92
   4   7  -8   15.84    1.37
  -4   7   8   12.88    1.62
   4  -7  -7   51.50    2.85
   4  -7  -7   49.30    1.60
  -4  -7   7   51.74    2.85
   4   7  -7   49.57    2.91
   4  -7  -7   51.12    1.46
  -4   7   7   50.41    2.85
   4   7  -7   49.17    2.21
   4  -7  -6  449.76    6.92
   4  -7  -6  468.05    9.94
  -4  -7   6  484.44   10.00
   4   7  -6  450.55    9.86
   4  -7  -6  463.51    6.76
  -4   7   6  438.90    9.73
   4   7  -6  440.97    8.24
   4  -7  -5   20.63    1.84
   4   7  -5   20.59    1.88
   4  -7  -5   19.78    0.69
  -4  -7   5   25.13    2.00
   4  -7  -5   22.82    0.73
  -4   7   5   20.86    1.84
   4   7  -5   19.33    1.23
  -4   7   4   21.31    1.87
   4  -7  -4   18.98    1.69
  -4  -7   4   22.20    1.87
   4   7  -4   21.66    1.88
   4  -7  -4   20.06    0.65
   4  -7  -4   19.47    0.67
   4   7  -4   22.23    1.15
   4   7  -3  220.14    6.09
  -4  -7   3  228.13    6.14
   4  -7  -3  215.50    3.49
   4   7  -3  217.27    4.08
  -4   7   3  218.28    6.01
  -4   7   2  109.68    4.02
   4   7  -2  109.99    4.07
  -4  -7   2  104.08    3.97
   4  -7  -2  106.68    2.18
   4   7  -2  104.69    2.18
   4   7  -1  212.53    5.96
  -4   7   1  220.39    6.03
  -4   7   1  220.02    3.47
   4  -7  -1  214.78    3.95
  -4  -7   1  226.20    6.12
  -4  -7   0   51.90    2.76
  -4   7   0   50.20    1.39
  -4   7   0   45.76    2.65
   4   7   0   47.88    2.66
   4  -7   0   50.21    1.65
   4   7   1   24.12    1.93
  -4   7  -1   24.09    2.01
   4  -7   1   21.92    1.19
  -4  -7  -1   22.13    1.94
  -4   7  -1   22.08    1.04
  -4  -7  -2 1312.83   21.23
   4   7   2 1250.79   21.02
  -4   7  -2 1290.46   21.01
   4  -7   2 1262.34   18.81
  -4   7  -2 1312.96   18.44
   4   7   3   23.42    1.98
  -4  -7  -3   25.19    2.01
   4  -7   3   25.52    1.47
  -4   7  -3   27.17    1.41
  -4  -7  -4  961.19   16.64
   4   7   4  898.78   16.32
   4  -7   4  898.73   14.67
  -4   7  -4  937.76   14.39
  -4  -7  -5    3.69    1.17
   4   7   5    6.14    1.35
  -4   7  -5    4.60    0.94
   4  -7   5    5.15    1.22
   4  -7   5    5.28    0.86
  -4   7  -5    3.74    0.99
  -4  -7  -6  386.30    9.23
   4   7   6  370.23    8.99
   4  -7   6  380.70    8.64
  -4   7  -6  370.70    7.93
   4  -7   6  376.25    8.00
  -4  -7  -6  361.42    8.87
  -4  -7  -6  395.33    5.78
   4  -7   7  168.77    5.28
  -4   7  -7  158.71    4.93
   4  -7   7  171.28    4.98
  -4  -7  -7  174.51    3.37
  -4  -7  -7  174.12    5.70
   4  -7   8   86.06    3.89
  -4   7  -8   91.81    3.67
   4  -7   8   94.48    3.74
  -4  -7  -8   97.44    2.54
  -4  -7  -8   90.93    4.12
   4  -7   9  197.06    5.88
  -4  -7  -9  202.16    6.42
  -4   7  -9  193.07    5.75
   4  -7   9  193.53    5.76
  -4  -7  -9  192.77    4.29
   4  -7  10    2.63    1.05
   4  -7  10    2.55    1.02
  -4   7 -10    2.18    0.98
  -4  -7 -10    2.75    0.71
  -4  -7 -10    0.82    1.14
   4  -7  11  239.48    6.73
  -4  -7 -11  235.26    7.41
  -4   7 -11  247.58    7.07
  -4  -7 -11  248.90    5.57
   4  -7  12   90.29    3.95
  -4  -7 -12   90.29    4.53
  -4   7 -12   96.97    4.36
  -4  -7 -12   87.68    3.19
   4  -7  13  207.58    6.26
  -4   7 -13  212.33    6.82
  -4  -7 -13  206.64    7.14
  -4  -7 -13  214.98    5.55
  -4   7 -14   52.64    3.47
  -4  -7 -14   48.47    3.52
  -4  -7 -14   44.05    2.51
  -4  -7 -15   57.33    3.96
  -4   7 -15   62.87    3.90
  -4  -7 -15   59.47    3.02
  -4   7 -16   28.16    2.86
  -4  -7 -16   27.75    3.02
  -4   7 -17  110.87    5.56
  -4  -7 -17  117.90    5.85
  -4  -7 -18   14.58    2.55
  -4   7 -18   10.72    2.14
  -4  -7 -19    7.88    2.09
  -4   7 -19    8.68    2.14
  -4  -7 -20   13.04    2.63
  -4   7 -20    3.72    1.90
   4   8 -22   60.48    4.65
   4  -8 -22   57.26    3.65
   4   8 -21   37.88    3.71
   4  -8 -21   35.67    2.80
   4   8 -20    1.62    1.52
   4  -8 -20   -2.14    1.36
  -4   8  20   -0.14    1.46
   4   8 -19    0.23    1.54
   4  -8 -19    3.29    1.32
  -4   8  19   -0.23    1.66
   4   8 -18  141.58    6.30
   4  -8 -18  134.23    4.89
  -4   8  18  125.34    5.92
   4   8 -17   36.00    3.22
   4  -8 -17   31.99    2.32
  -4   8  17   31.94    2.99
   4  -8 -16    1.53    0.92
   4   8 -16   -0.08    1.40
   4  -8 -16   -0.84    0.94
  -4   8  16   -0.03    1.34
   4  -8 -15    2.27    0.92
   4   8 -15   -1.18    1.51
   4  -8 -15    0.93    0.85
  -4   8  15    0.43    1.27
   4  -8 -14  258.16    6.61
   4   8 -14  272.11    8.33
  -4  -8  14  278.13    4.45
   4  -8 -14  264.31    6.37
  -4   8  14  267.87    8.16
   4  -8 -13  129.99    4.14
   4   8 -13  127.40    5.40
   4  -8 -13  127.50    3.88
  -4   8  13  126.86    5.31
   4  -8 -12  118.91    3.77
   4   8 -12  123.60    5.17
   4  -8 -12  121.46    3.60
  -4   8  12  128.14    5.17
   4   8 -12  116.57    4.48
   4  -8 -11    4.09    0.78
   4   8 -11    5.70    1.49
   4  -8 -11    5.46    0.86
   4   8 -11    4.21    1.02
  -4   8  11    3.82    1.41
   4  -8 -10  127.20    3.50
   4   8 -10  119.33    4.90
   4  -8 -10  121.93    3.28
  -4   8  10  120.97    4.87
   4   8 -10  120.27    4.20
   4  -8  -9   18.82    1.21
   4   8  -9   21.59    2.09
   4  -8  -9   18.06    1.15
   4   8  -9   16.45    1.68
  -4   8   9   16.11    1.90
   4  -8  -8   92.45    2.56
   4   8  -8   83.18    4.03
   4  -8  -8   92.47    2.41
  -4   8   8   84.55    3.92
   4   8  -8   93.06    3.31
   4  -8  -7   21.07    1.95
   4  -8  -7   21.38    1.08
   4   8  -7   23.78    2.12
  -4  -8   7   21.50    2.03
   4  -8  -7   22.29    1.02
  -4   8   7   20.29    1.97
   4   8  -7   20.72    1.48
   4  -8  -6   52.82    1.57
   4   8  -6   52.81    3.05
   4  -8  -6   56.55    3.05
  -4  -8   6   51.15    2.91
   4  -8  -6   56.49    1.58
  -4   8   6   56.75    3.08
   4   8  -6   49.95    2.13
   4   8  -5   62.27    3.22
   4  -8  -5   65.48    3.25
   4  -8  -5   58.14    1.52
  -4  -8   5   67.05    3.32
   4  -8  -5   62.51    1.60
  -4   8   5   60.83    3.13
   4   8  -5   60.20    2.18
  -4   8   4   15.85    1.75
  -4  -8   4   16.03    1.68
   4  -8  -4   16.20    0.66
   4   8  -4   16.94    1.84
   4  -8  -4   15.91    0.78
   4  -8  -4   15.85    0.75
   4   8  -4   15.74    0.99
   4   8  -3    1.69    1.07
  -4   8   3    4.33    1.17
  -4  -8   3    2.96    1.05
   4  -8  -3    2.88    0.42
   4   8  -3    2.54    0.43
  -4   8   2    0.43    0.30
  -4   8   2   -0.54    0.96
   4   8  -2    0.25    0.90
  -4  -8   2   -0.11    0.91
   4  -8  -2    0.08    0.34
   4   8  -2    0.17    0.27
   4   8  -1   18.74    1.85
  -4   8   1   18.56    0.83
  -4   8   1   17.76    1.84
   4  -8  -1   17.71    0.97
  -4  -8   1   20.57    1.90
  -4   8   0  247.21    4.41
  -4   8   0  244.10    6.67
   4   8   0  252.68    6.81
   4  -8   0  241.37    4.80
  -4  -8   0  264.67    6.93
   4   8   1    0.12    0.94
  -4   8  -1   -0.37    0.96
   4  -8   1   -0.20    0.51
  -4  -8  -1   -0.76    0.79
  -4   8  -1    0.60    0.45
   4   8   2    7.29    1.46
  -4   8  -2    5.60    1.40
   4  -8   2    5.23    0.76
  -4  -8  -2    6.05    1.22
  -4   8  -2    5.24    0.70
  -4  -8  -3  197.16    5.95
   4   8   3  181.38    5.75
   4  -8   3  183.19    4.57
  -4   8  -3  191.79    4.33
   4   8   4   35.28    2.62
  -4  -8  -4   39.27    2.58
   4  -8   4   36.20    1.98
  -4   8  -4   36.14    1.80
   4   8   5   30.01    2.39
  -4   8  -5   33.64    1.84
   4  -8   5   30.09    1.91
   4   8   6  383.09    9.35
  -4   8  -6  397.44    7.98
   4  -8   6  389.44    8.28
  -4  -8  -6  384.14    9.30
  -4   8  -7   47.95    2.48
   4  -8   7   46.57    2.79
   4  -8   7   43.28    2.46
  -4  -8  -7   41.96    2.84
  -4  -8  -7   47.86    1.34
   4  -8   8   -1.73    1.10
  -4   8  -8    0.30    0.87
   4  -8   8    0.43    0.77
  -4   8  -8   -0.79    0.99
  -4  -8  -8    0.12    1.10
  -4  -8  -8    0.19    0.38
   4  -8   9   66.35    3.34
  -4   8  -9   63.50    3.16
  -4   8  -9   62.53    3.20
   4  -8   9   64.27    3.25
  -4  -8  -9   59.74    3.57
  -4  -8  -9   67.99    2.16
   4  -8  10  399.08    9.37
  -4   8 -10  424.19    9.59
  -4  -8 -10  402.87   10.16
  -4  -8 -10  410.91    7.45
   4  -8  11   11.23    1.68
  -4   8 -11   12.95    1.78
  -4  -8 -11   12.47    1.94
  -4  -8 -11   10.69    1.08
   4  -8  12    0.21    1.03
  -4   8 -12    0.50    1.15
  -4  -8 -12    1.84    0.73
  -4  -8 -12   -1.69    1.32
   4  -8  13   17.33    1.96
  -4  -8 -13   20.36    2.51
  -4   8 -13   18.35    2.32
  -4  -8 -13   16.49    1.46
   4  -8  14  445.12   10.17
  -4   8 -14  428.06   11.10
  -4  -8 -14  442.88   11.53
  -4  -8 -15   27.19    2.97
  -4   8 -15   21.67    2.43
  -4  -8 -16   38.64    3.41
  -4   8 -16   48.34    3.61
  -4   8 -17   -0.82    1.56
  -4  -8 -17    0.72    1.43
  -4   8 -18  100.25    5.49
  -4  -8 -18  111.03    5.84
  -4   8 -19   70.05    4.67
  -4  -8 -19   77.20    5.06
  -4   8 -20   90.79    5.50
   4   9 -21   46.59    4.06
   4  -9 -21   46.15    3.17
   4   9 -20  145.21    6.86
   4  -9 -20  143.56    5.47
  -4   9  20  143.61    6.70
   4   9 -19    2.10    1.50
   4  -9 -19    2.34    1.09
  -4   9  19    2.26    1.40
   4   9 -18    4.84    1.46
   4  -9 -18    7.86    1.44
  -4   9  18    5.16    1.64
   4   9 -17   18.07    2.50
   4  -9 -17   20.29    1.87
  -4   9  17   21.49    2.65
   4   9 -16  270.04    8.82
   4  -9 -16  263.97    6.79
  -4   9  16  259.89    8.44
   4  -9 -15   44.66    2.65
   4   9 -15   48.45    3.61
   4  -9 -15   49.07    2.59
  -4   9  15   50.62    3.58
   4  -9 -14   13.81    1.51
   4   9 -14   13.07    2.06
   4  -9 -14   13.04    1.40
  -4   9  14   10.87    1.95
   4  -9 -13    1.61    0.75
   4   9 -13    0.53    1.29
   4  -9 -13   -0.31    0.67
  -4   9  13   -0.87    1.25
   4  -9 -12  141.64    4.24
   4   9 -12  155.54    6.01
   4  -9 -12  149.36    4.10
  -4   9  12  139.19    5.54
   4   9 -12  144.19    5.09
   4  -9 -11    9.85    1.08
   4   9 -11   14.04    1.96
   4  -9 -11   12.57    1.12
   4   9 -11   12.88    1.52
  -4   9  11   15.92    1.89
   4  -9 -10    1.36    0.55
   4   9 -10    3.77    1.40
   4  -9 -10    1.81    0.62
  -4   9  10    3.31    1.31
   4   9 -10    0.92    0.74
   4  -9  -9  121.07    3.34
   4   9  -9  128.70    5.11
   4  -9  -9  124.93    3.21
   4   9  -9  116.92    4.02
  -4   9   9  116.21    4.78
   4  -9  -8  136.60    3.41
   4   9  -8  144.12    5.38
   4  -9  -8  137.37    3.26
  -4   9   8  137.27    5.15
   4   9  -8  133.29    4.14
   4  -9  -7   -0.47    0.40
   4   9  -7   -1.19    1.18
   4  -9  -7    0.51    0.46
  -4   9   7   -2.16    1.35
   4   9  -7   -0.31    0.59
   4   9  -6  142.38    5.22
   4  -9  -6  139.97    3.10
   4  -9  -6  142.74    3.10
  -4   9   6  141.98    5.12
   4   9  -6  137.66    3.82
   4   9  -5   12.34    1.67
   4  -9  -5   11.83    0.74
   4  -9  -5   14.01    1.67
   4   9  -5   12.21    1.02
  -4   9   5   11.51    1.60
   4  -9  -5   11.24    0.77
   4  -9  -4  189.15    3.55
   4   9  -4  198.56    6.20
   4   9  -4  195.01    4.16
  -4   9   4  197.97    6.07
  -4   9   3    0.01    1.11
   4   9  -3   -1.47    1.21
  -4  -9   3   -0.01    0.87
   4  -9  -3    0.00    0.37
   4   9  -3    0.68    0.39
   4   9  -2  127.92    4.76
  -4   9   2  121.11    2.62
  -4   9   2  125.11    4.67
  -4  -9   2  125.12    4.65
   4  -9  -2  122.71    2.96
   4   9  -2  119.15    2.49
   4   9  -1  240.26    6.86
  -4   9   1  241.91    6.82
  -4   9   1  240.89    4.44
   4  -9  -1  236.26    4.79
  -4  -9   1  254.97    6.99
  -4   9   0   63.71    3.32
  -4   9   0   65.04    1.96
   4   9   0   61.96    3.33
   4  -9   0   61.33    2.14
  -4  -9   0   65.02    3.34
   4   9   1    3.82    1.24
  -4   9  -1    3.34    1.29
   4  -9   1    3.25    0.72
  -4   9  -1    3.25    0.58
  -4  -9  -1    3.45    1.05
   4   9   2   89.10    4.06
  -4   9  -2   85.71    3.92
   4  -9   2   85.73    2.86
  -4   9  -2   87.61    2.69
   4   9   3   17.53    1.97
  -4   9  -3   20.01    2.02
   4  -9   3   19.23    1.44
  -4   9  -3   20.26    1.34
   4   9   4   94.71    4.22
   4  -9   4   97.70    3.38
  -4   9  -4   98.03    3.18
   4   9   5  161.53    5.76
   4  -9   5  171.36    4.85
  -4   9  -5  173.30    4.61
   4   9   6  538.28   11.99
  -4   9  -6  551.76   10.30
   4  -9   6  544.11   10.65
   4   9   7   57.78    3.44
  -4   9  -7   55.72    2.70
   4  -9   7   52.90    2.84
  -4  -9  -7   48.26    3.20
  -4  -9  -8  430.74    6.70
  -4   9  -8  421.08    9.07
   4  -9   8  415.40    9.69
   4  -9   8  422.68    9.42
  -4  -9  -8  401.89   10.19
   4  -9   9   13.07    1.76
  -4   9  -9   16.06    1.73
   4  -9   9   16.08    1.78
  -4  -9  -9   14.13    0.95
  -4  -9  -9   12.73    1.96
   4  -9  10    9.86    1.56
  -4   9 -10    9.14    1.39
  -4  -9 -10   11.58    0.98
  -4  -9 -10   10.61    1.96
   4  -9  11   18.62    2.03
  -4   9 -11   18.38    1.89
  -4   9 -11   16.81    2.02
  -4  -9 -11   15.02    2.16
  -4  -9 -11   17.75    1.28
   4  -9  12  404.48    9.69
  -4   9 -12  406.44    9.85
  -4  -9 -12  422.12   10.89
  -4   9 -12  394.92   10.01
  -4  -9 -12  396.65    7.84
   4  -9  13    2.83    1.32
  -4   9 -13    0.61    1.08
  -4   9 -13    2.34    1.24
  -4  -9 -13    1.21    1.43
   4  -9  14  220.18    6.79
  -4   9 -14  219.00    7.32
  -4   9 -14  223.48    7.50
  -4  -9 -14  227.25    7.95
   4  -9  15    1.95    1.11
  -4   9 -15    0.77    1.25
  -4  -9 -15   -0.54    1.43
  -4   9 -15    0.60    1.27
  -4   9 -16   88.43    4.77
  -4  -9 -16   95.96    5.32
  -4   9 -16   99.91    5.19
  -4   9 -17   13.71    2.24
  -4  -9 -17   15.58    2.53
  -4   9 -17   15.88    2.34
  -4   9 -18   42.06    3.60
  -4   9 -18   42.58    3.76
  -4  -9 -18   37.37    3.62
  -4   9 -19    0.99    1.50
  -4   9 -19    0.44    1.63
  -4   9 -20   17.87    2.61
  -4  10  21   -0.60    1.63
   4  10 -20   36.85    3.65
  -4  10  20   38.78    3.75
   4  10 -19   18.52    2.92
   4 -10 -19   18.68    2.04
  -4  10  19   19.44    2.69
   4  10 -18   91.14    5.30
   4 -10 -18   83.85    3.84
  -4  10  18   76.48    4.74
   4  10 -17   28.09    3.09
   4 -10 -17   22.89    2.00
  -4  10  17   21.44    2.69
   4  10 -16    0.19    1.42
   4 -10 -16    0.41    0.79
  -4  10  16    1.09    1.41
   4 -10 -15   32.12    2.29
   4  10 -15   29.82    3.03
   4 -10 -15   27.52    2.01
  -4  10  15   26.48    2.77
   4 -10 -14   71.59    3.35
   4  10 -14   75.94    4.47
   4 -10 -14   72.59    3.04
  -4  10  14   67.30    4.07
   4 -10 -13  138.40    4.40
   4  10 -13  144.79    6.03
   4 -10 -13  146.84    4.32
  -4  10  13  133.11    5.67
   4 -10 -12   21.23    1.64
   4  10 -12   20.57    2.36
   4 -10 -12   20.61    1.54
  -4  10  12   24.56    2.47
   4 -10 -11   10.98    1.17
   4  10 -11   14.52    2.12
   4 -10 -11    9.37    1.04
  -4  10  11   14.17    1.95
   4  10 -11    8.79    1.37
   4 -10 -10   64.23    2.55
   4  10 -10   68.34    4.02
   4 -10 -10   65.34    2.43
  -4  10  10   64.66    3.65
   4  10 -10   61.89    3.04
   4 -10  -9   36.32    1.80
   4  10  -9   34.93    2.84
   4 -10  -9   36.86    1.73
  -4  10   9   30.41    2.62
   4  10  -9   34.31    2.20
   4 -10  -8  277.51    5.66
   4  10  -8  277.46    8.15
   4 -10  -8  291.07    5.64
  -4  10   8  281.94    7.91
   4  10  -8  279.08    6.61
   4  10  -7  109.21    4.74
   4 -10  -7  107.91    2.92
   4 -10  -7  107.03    2.88
   4  10  -7  104.83    3.51
  -4  10   7  102.12    4.55
   4  10  -6    3.98    1.36
   4 -10  -6    6.04    0.70
   4 -10  -6    5.75    0.68
  -4  10   6    8.63    1.52
   4  10  -6    6.74    0.93
   4 -10  -5    9.63    0.76
   4  10  -5   13.96    1.92
   4 -10  -5   11.54    0.89
   4  10  -5   11.38    1.00
  -4  10   5    8.02    1.41
   4 -10  -4   58.05    1.81
   4  10  -4   60.34    3.43
   4  10  -4   59.21    2.08
  -4  10   4   57.47    3.27
  -4  10   3    0.36    0.40
   4  10  -3    0.59    1.12
  -4  10   3   -0.76    1.07
   4 -10  -3    0.42    0.35
   4 -10  -3    0.87    0.43
   4  10  -3    0.41    0.38
   4  10  -2    1.16    1.10
  -4  10   2    0.19    0.41
  -4  10   2    1.11    1.10
   4 -10  -2    0.31    0.45
   4  10  -2    0.76    0.35
   4  10  -1    0.07    0.20
  -4  10   1   -0.26    1.05
  -4  10   1   -0.44    0.55
   4  10  -1    1.15    1.28
   4 -10  -1    0.42    0.49
   4  10  -1    0.52    0.19
  -4  10   0 1114.23   16.28
  -4  10   0 1105.98   19.46
   4  10   0 1111.03   19.70
   4 -10   0 1082.75   16.74
  -4  10  -1  104.92    2.95
  -4  10  -1  104.96    4.46
   4  10   1  105.68    4.51
   4 -10   1  101.99    3.20
   4  10   2  226.30    6.91
  -4  10  -2  229.13    6.89
   4 -10   2  214.95    5.25
  -4  10  -2  234.74    5.09
   4  10   3   16.64    1.88
  -4  10  -3   18.23    2.03
   4 -10   3   15.48    1.39
  -4  10  -3   18.32    1.37
   4  10   4  461.97   10.86
   4 -10   4  456.44    9.22
  -4  10  -4  476.08    8.89
   4  10   5  108.76    4.71
   4 -10   5  110.59    3.89
  -4  10  -5  112.20    3.70
   4  10   6  289.83    8.28
  -4  10  -6  298.08    6.91
   4 -10   6  294.91    7.21
   4  10   7  146.81    5.72
  -4  10  -7  156.87    4.82
   4 -10   7  152.45    5.04
  -4 -10  -7  154.74    5.83
   4 -10   8   20.05    2.15
  -4  10  -8   21.80    1.89
   4 -10   8   24.64    2.07
  -4 -10  -8   21.00    2.31
  -4  10  -9  143.15    4.92
   4 -10   9  140.36    5.25
  -4 -10  -9  145.39    3.11
  -4 -10  -9  138.78    5.70
  -4 -10 -10  119.72    3.03
  -4  10 -10  122.03    4.64
   4 -10  10  121.14    4.84
  -4 -10 -10  112.88    5.27
  -4  10 -11  188.31    6.12
   4 -10  11  188.00    6.21
  -4 -10 -11  191.87    6.99
   4 -10  12    2.03    1.23
  -4  10 -12    4.68    1.36
  -4 -10 -12    0.15    1.42
  -4  10 -13    6.06    1.47
   4 -10  13    8.68    1.67
  -4 -10 -13    5.83    1.75
   4 -10  14   76.45    3.95
  -4  10 -14   79.96    4.26
  -4 -10 -14   80.88    4.74
   4 -10  15   49.64    3.22
  -4  10 -15   48.84    3.54
  -4 -10 -15   58.40    4.18
  -4  10 -16    7.95    1.90
  -4 -10 -16    7.03    1.88
  -4  10 -17    2.86    1.51
  -4 -10 -17   -0.23    1.52
  -4  10 -18   39.63    3.61
  -4 -10 -18   42.44    3.93
  -4  10 -19    7.32    2.02
  -4  10 -20   11.04    2.26
  -4  11  21    0.59    1.52
  -4  11  20   54.70    4.29
   4  11 -19   -0.28    1.61
  -4  11  19   -0.94    1.65
   4  11 -18    9.55    2.08
  -4  11  18    9.35    1.98
   4  11 -17    3.01    1.71
   4 -11 -17    0.76    0.96
  -4  11  17    1.07    1.34
   4  11 -16  229.94    8.39
   4 -11 -16  217.05    6.14
  -4  11  16  208.51    7.80
   4  11 -15    1.60    1.39
   4 -11 -15    4.21    1.09
  -4  11  15    4.73    1.86
   4  11 -14   18.59    2.49
   4 -11 -14   21.15    1.74
  -4  11  14   19.29    2.45
   4 -11 -13   63.16    2.96
   4  11 -13   60.90    4.01
   4 -11 -13   65.65    2.85
  -4  11  13   60.89    3.91
   4 -11 -12  123.16    4.14
   4  11 -12  138.33    5.97
   4 -11 -12  132.25    4.00
  -4  11  12  124.02    5.48
   4 -11 -11    5.55    0.95
   4  11 -11    4.88    1.41
   4 -11 -11    4.99    0.89
  -4  11  11    7.23    1.71
   4  11 -11    4.95    1.13
   4 -11 -10   27.27    1.72
   4  11 -10   24.94    2.59
   4 -11 -10   28.44    1.68
  -4  11  10   23.88    2.49
   4  11 -10   25.03    2.04
   4 -11  -9  129.25    3.71
   4  11  -9  128.77    5.57
   4 -11  -9  135.04    3.66
   4  11  -9  129.04    4.44
  -4  11   9  132.15    5.36
   4 -11  -8  235.13    5.20
   4  11  -8  237.28    7.57
   4 -11  -8  239.58    5.16
  -4  11   8  229.46    7.22
   4  11  -7  245.86    7.60
   4 -11  -7  230.67    5.00
   4 -11  -7  234.69    5.01
  -4  11   7  236.95    7.27
   4 -11  -6  301.96    5.82
   4  11  -6  298.22    8.50
   4 -11  -6  301.66    5.89
  -4  11   6  294.68    8.22
   4  11  -5   26.96    2.58
   4 -11  -5   27.67    1.38
  -4  11   5   26.99    2.37
   4 -11  -5   28.33    1.46
   4 -11  -4  170.08    3.84
   4  11  -4  184.38    6.32
  -4  11   4  187.39    6.20
   4  11  -3   18.49    2.09
  -4  11   3   19.04    1.15
  -4  11   3   19.86    2.22
   4 -11  -3   17.86    1.09
   4 -11  -3   16.93    1.20
   4  11  -3   18.47    1.08
   4  11  -2   41.81    2.99
  -4  11   2   43.63    1.75
  -4  11   2   39.40    2.88
   4  11  -2   45.59    1.48
   4 -11  -2   40.53    1.88
   4  11  -2   41.01    1.42
  -4  11   1   23.09    1.34
  -4  11   1   20.62    2.14
   4  11  -1   21.43    2.25
   4 -11  -1   22.30    1.44
   4  11  -1   24.59    0.86
   4  11  -1   22.04    0.82
  -4  11   0    1.80    0.63
   4  11   0    0.54    1.13
  -4  11   0    1.36    1.16
   4 -11   0    0.91    0.59
  -4  11  -1   36.18    2.77
   4  11   1   36.31    2.79
  -4  11  -1   34.63    1.76
   4 -11   1   33.70    1.88
  -4  11  -2   89.32    2.96
   4  11   2   92.16    4.41
  -4  11  -2   90.51    4.26
   4 -11   2   85.49    3.18
   4  11   3  526.70   12.05
  -4  11  -3  541.04   12.11
   4 -11   3  521.13   10.17
  -4  11  -3  548.91    9.89
   4  11   4   67.53    3.83
  -4  11  -4   70.13    3.84
   4 -11   4   65.84    2.96
  -4  11  -4   68.51    2.83
   4  11   5    1.60    1.21
   4 -11   5   -0.63    0.76
  -4  11  -5    0.59    0.76
   4  11   6   -0.51    1.10
  -4  11  -6    0.94    0.86
   4 -11   6    0.83    0.94
   4  11   7   64.56    3.89
  -4  11  -7   66.35    3.12
   4 -11   7   56.98    3.05
  -4 -11  -7   59.81    3.72
  -4  11  -8  199.62    5.87
  -4 -11  -8  180.56    6.65
  -4  11  -9   20.04    2.02
   4 -11   9   17.12    2.03
  -4 -11  -9   17.97    2.45
  -4  11 -10    0.56    1.03
   4 -11  10   -0.97    1.24
  -4 -11 -10    0.26    1.38
  -4  11 -11   13.69    1.83
   4 -11  11   15.31    1.93
  -4 -11 -11    9.98    2.00
  -4  11 -12  127.43    5.24
   4 -11  12  122.26    5.13
  -4 -11 -12  136.33    6.07
  -4  11 -13   86.89    4.41
   4 -11  13   82.62    4.23
  -4 -11 -13   78.80    4.73
  -4  11 -14   23.10    2.57
   4 -11  14   24.95    2.40
  -4 -11 -14   27.19    2.99
  -4  11 -15   12.90    2.14
   4 -11  15   11.67    1.92
  -4 -11 -15   10.54    2.15
   4 -11  16   47.88    3.19
  -4  11 -16   42.97    3.47
  -4 -11 -16   44.67    3.92
  -4  11 -17   84.85    4.95
  -4 -11 -17   87.65    5.39
  -4  11 -18    3.69    1.76
  -4  11 -19   -1.70    1.79
  -4  12  20   47.12    4.03
  -4  12  19   38.97    3.66
   4  12 -18   76.57    5.06
  -4  12  18   68.61    4.64
   4  12 -17  108.03    5.99
  -4  12  17   95.79    5.35
   4  12 -16    2.02    1.73
  -4  12  16    2.78    1.46
   4  12 -15   49.91    3.92
   4 -12 -15   44.73    2.59
  -4  12  15   38.93    3.35
   4  12 -14  145.36    6.55
   4 -12 -14  139.75    4.54
  -4  12  14  134.94    6.02
   4  12 -13  140.03    6.35
   4 -12 -13  138.12    4.37
  -4  12  13  136.97    6.01
   4  12 -12   16.84    2.42
   4 -12 -12   17.26    1.57
  -4  12  12   13.82    2.08
   4  12 -11   39.52    3.32
   4 -12 -11   38.12    2.10
  -4  12  11   43.40    3.30
   4 -12 -10   -0.90    0.74
   4  12 -10   -2.43    1.55
   4 -12 -10    1.05    0.72
  -4  12  10   -0.23    1.31
   4  12  -9  165.36    6.52
   4 -12  -9  169.40    4.51
   4 -12  -9  179.09    4.52
  -4  12   9  167.78    6.26
   4  12  -8   53.31    3.55
   4 -12  -8   51.44    2.21
   4 -12  -8   53.76    2.25
  -4  12   8   51.44    3.38
   4  12  -7  155.62    6.15
   4 -12  -7  154.31    4.00
   4 -12  -7  152.49    4.01
  -4  12   7  153.52    5.86
   4  12  -6   25.46    2.63
   4 -12  -6   24.03    1.43
   4 -12  -6   22.71    1.43
  -4  12   6   22.20    2.32
   4 -12  -5  106.24    3.04
   4  12  -5  101.78    4.84
  -4  12   5   99.87    4.58
  -4  12   4   12.97    1.84
   4  12  -4   19.84    2.36
   4 -12  -4   14.19    1.06
  -4  12   3   21.35    1.32
  -4  12   3   23.58    2.38
   4  12  -3   22.18    2.37
   4 -12  -3   23.74    1.51
   4 -12  -3   19.66    1.26
   4  12  -2    1.33    1.14
  -4  12   2   -0.44    0.51
   4  12  -2    0.28    0.38
  -4  12   2    0.72    1.10
   4 -12  -2    0.28    0.59
  -4  12   1    5.12    0.83
  -4  12   1    1.91    1.09
   4  12  -1    3.33    1.39
   4 -12  -1    3.48    0.77
   4  12  -1    5.27    0.50
   4  12  -1    3.82    0.44
  -4  12   0   80.43    2.79
  -4  12   0   89.29    4.33
   4  12   0   81.14    4.20
   4 -12   0   80.60    3.03
  -4  12  -1    3.44    0.78
   4  12   1    3.23    1.27
  -4  12  -1    2.77    1.24
   4 -12   1    3.59    0.90
   4  12   2   -0.82    1.14
  -4  12  -2    1.39    1.31
   4 -12   2    0.37    0.77
  -4  12  -2   -0.39    0.67
  -4  12  -3   99.09    3.42
   4  12   3   93.25    4.61
  -4  12  -3   95.51    4.58
   4 -12   3   96.85    3.66
   4  12   4    8.01    1.77
  -4  12  -4    5.09    1.49
   4 -12   4    7.80    1.27
  -4  12  -4    6.22    1.07
   4  12   5   61.57    3.78
   4 -12   5   64.26    3.16
  -4  12  -5   71.21    3.12
   4  12   6    2.36    1.46
  -4  12  -6    0.69    0.82
   4 -12   6    1.18    0.79
  -4  12  -7  121.07    4.42
   4  12   7  117.07    5.40
  -4 -12  -7  117.95    5.40
  -4  12  -8   33.77    2.42
  -4 -12  -8   40.61    3.27
  -4  12  -9   80.58    3.83
  -4 -12  -9   76.37    4.46
  -4  12 -10   22.68    2.17
   4 -12  10   22.90    2.57
  -4 -12 -10   18.91    2.52
   4 -12  11  171.19    6.26
  -4  12 -11  178.17    6.21
  -4 -12 -11  172.83    6.91
  -4  12 -12    1.93    1.27
   4 -12  12    2.13    1.22
  -4 -12 -12    2.59    1.72
  -4  12 -13   86.86    4.52
   4 -12  13   89.90    4.51
  -4 -12 -13   86.16    5.04
   4 -12  14    2.79    1.38
  -4  12 -14    4.26    1.52
  -4 -12 -14    2.38    1.65
  -4  12 -15   96.67    5.04
   4 -12  15   87.26    4.48
  -4 -12 -15   85.55    5.20
   4 -12  16   -0.29    1.18
  -4  12 -16    1.34    1.60
  -4 -12 -16    3.42    1.78
  -4  12 -17    6.48    1.91
  -4  12 -18   -0.08    1.41
  -4  13  19    4.82    1.86
  -4  13  18   50.29    4.05
   4  13 -17  124.28    6.48
  -4  13  17  113.84    5.94
   4  13 -16   19.11    2.84
  -4  13  16   22.22    2.79
   4  13 -15   25.86    3.00
  -4  13  15   22.95    2.78
   4  13 -14    5.61    1.75
  -4  13  14    7.37    2.01
   4  13 -13   62.72    4.40
   4 -13 -13   61.27    2.91
  -4  13  13   64.99    4.22
   4  13 -12   12.77    2.35
   4 -13 -12   11.85    1.39
  -4  13  12    9.24    1.97
   4  13 -11   14.33    2.36
   4 -13 -11   12.21    1.29
  -4  13  11   14.78    2.14
   4  13 -10   88.20    4.91
   4 -13 -10   86.68    3.22
  -4  13  10   88.67    4.70
   4  13  -9   61.19    4.02
   4 -13  -9   54.32    2.47
  -4  13   9   57.13    3.72
   4  13  -8    4.69    1.53
   4 -13  -8    5.44    0.88
  -4  13   8    4.74    1.36
   4  13  -7  179.03    6.78
   4 -13  -7  166.54    4.39
   4 -13  -7  168.82    4.46
  -4  13   7  180.73    6.54
   4 -13  -6  111.40    3.41
   4  13  -6  120.35    5.56
  -4  13   6  110.95    5.08
   4 -13  -6  117.98    3.57
   4 -13  -5  222.20    5.17
   4  13  -5  249.73    8.00
  -4  13   5  241.10    7.57
   4 -13  -4   -0.52    0.62
   4  13  -4    1.22    1.42
  -4  13   4   -1.56    1.33
  -4  13   3  192.09    4.59
   4  13  -3  194.40    4.24
   4  13  -3  187.35    6.82
   4 -13  -3  175.07    4.40
   4 -13  -3  171.52    4.71
  -4  13   3  183.93    6.50
   4  13  -2   13.70    2.06
  -4  13   2   13.28    1.18
   4  13  -2   13.98    0.93
  -4  13   2   13.70    1.94
   4 -13  -2   12.60    1.24
  -4  13   1  268.35    8.11
  -4  13   1  279.21    6.04
   4  13  -1  275.37    8.50
   4 -13  -1  253.45    6.23
   4  13  -1  281.60    4.77
   4  13   0   34.49    2.92
  -4  13   0   39.51    3.05
  -4  13   0   38.46    1.99
   4 -13   0   34.56    2.10
  -4  13  -1    8.01    1.70
   4  13   1    5.64    1.59
  -4  13  -1    9.12    1.12
   4 -13   1    8.52    1.17
  -4  13  -2   92.62    4.65
   4  13   2   93.42    4.72
  -4  13  -2   92.87    3.36
   4 -13   2   84.30    3.46
   4  13   3  349.68    9.86
  -4  13  -3  362.26    9.80
  -4  13  -3  364.07    7.80
   4 -13   3  343.52    8.07
  -4  13  -4    6.99    1.72
   4  13   4    2.56    1.41
   4 -13   4    5.98    1.24
  -4  13  -4    6.18    1.11
   4  13   5   -0.21    1.30
  -4  13  -5   -1.05    1.45
   4 -13   5    2.03    0.96
  -4  13  -5   -0.10    0.84
  -4  13  -6   17.64    1.75
   4  13   6   19.87    2.46
  -4  13  -7  144.00    5.03
   4  13   7  155.37    6.41
  -4 -13  -7  146.72    6.16
  -4  13  -8    2.80    1.17
   4  13   8    2.92    1.70
  -4 -13  -8    0.45    1.40
  -4  13  -9   40.97    2.82
  -4 -13  -9   42.48    3.51
  -4  13 -10   29.33    2.48
   4 -13  10   29.16    2.74
  -4 -13 -10   27.37    2.89
  -4  13 -11   17.13    2.09
   4 -13  11   15.23    2.06
  -4 -13 -11   17.03    2.45
  -4  13 -12    1.57    1.42
   4 -13  12    1.82    1.47
  -4 -13 -12   -1.94    1.75
   4 -13  13   52.35    3.56
  -4  13 -13   54.01    3.67
  -4 -13 -13   63.21    4.45
   4 -13  14    1.39    1.42
  -4  13 -14   -1.57    1.42
  -4 -13 -14    2.54    1.77
  -4  13 -15    5.56    1.85
   4 -13  15    2.49    1.38
  -4 -13 -15    5.99    2.01
  -4  13 -16    6.06    1.87
   4 -13  16    0.00    1.27
  -4  13 -17   11.79    2.22
  -4  13 -18   18.28    2.75
  -4  14  18    0.41    1.50
  -4  14  17   22.26    2.95
  -4  14  16   30.62    3.29
   4  14 -15   17.16    2.73
  -4  14  15   14.05    2.39
   4  14 -14   -0.42    1.49
  -4  14  14   -2.29    1.65
   4  14 -13   60.24    4.41
  -4  14  13   60.67    4.19
   4  14 -12    1.33    1.50
  -4  14  12    0.68    1.43
   4  14 -11   14.62    2.42
  -4  14  11   11.31    1.93
   4  14 -10   -0.08    1.46
   4 -14 -10    0.74    0.77
  -4  14  10    0.53    1.26
   4  14  -9  328.06   10.07
   4 -14  -9  315.44    7.04
  -4  14   9  305.23    9.25
   4  14  -8    1.28    1.57
  -4  14   8    0.37    1.25
   4 -14  -8   -0.98    0.79
   4  14  -7    1.21    1.47
   4 -14  -7   -0.38    0.76
   4  14  -6   65.97    4.21
   4 -14  -6   69.78    2.83
  -4  14   6   62.94    3.89
   4  14  -5  138.18    6.03
  -4  14   5  129.38    5.58
  -4  14   4   26.69    2.62
   4  14  -4   34.24    3.16
   4  14  -4   33.87    1.77
  -4  14   3   65.80    2.61
   4  14  -3   68.36    2.37
   4  14  -3   66.32    4.13
   4 -14  -3   61.86    2.77
  -4  14   3   57.92    3.74
  -4  14   2   16.49    1.38
  -4  14   2   16.24    2.06
   4  14  -2   15.54    2.16
   4 -14  -2   17.74    1.63
   4  14  -2   18.32    1.10
  -4  14   1   67.80    4.03
  -4  14   1   64.81    2.70
   4  14  -1   66.77    4.16
   4 -14  -1   61.04    2.86
   4  14  -1   63.62    1.84
   4  14   0    3.43    1.65
  -4  14   0    3.50    0.91
  -4  14   0    2.85    1.34
   4 -14   0    2.03    0.91
  -4  14  -1  164.90    4.68
   4  14   1  156.13    6.38
  -4  14  -1  151.29    6.10
   4 -14   1  150.84    4.89
  -4  14  -2   20.51    1.68
  -4  14  -2   28.09    2.73
   4  14   2   21.96    2.52
   4 -14   2   19.32    1.80
   4  14   3    7.08    1.65
  -4  14  -3    5.33    1.61
  -4  14  -3    7.59    1.23
   4 -14   3    4.48    1.07
  -4  14  -4    5.58    1.21
   4  14   4    6.60    1.64
  -4  14  -4    7.95    1.87
   4  14   5  162.57    6.61
  -4  14  -5  164.97    6.64
  -4  14  -5  167.21    5.29
  -4  14  -6    5.05    1.25
   4  14   6    7.34    1.85
  -4  14  -6    3.11    1.62
  -4  14  -7   53.58    3.10
   4  14   7   45.77    3.68
  -4  14  -8   25.49    2.24
   4  14   8   21.46    2.68
  -4 -14  -8   24.76    2.86
  -4  14  -9   30.75    2.53
  -4 -14  -9   39.05    3.44
  -4  14 -10   26.37    2.48
  -4 -14 -10   28.55    3.08
  -4  14 -11   23.64    2.47
   4 -14  11   25.45    2.64
  -4 -14 -11   24.82    2.95
  -4  14 -12    8.58    1.76
   4 -14  12    4.82    1.44
  -4 -14 -12    9.23    2.09
   4 -14  13   62.26    4.04
  -4  14 -13   66.55    4.13
  -4 -14 -13   66.93    4.61
  -4  14 -14    1.76    1.43
   4 -14  14    2.93    1.62
  -4  14 -15   39.70    3.38
   4 -14  15   41.50    3.35
  -4  14 -16   12.14    2.19
  -4  14 -17   18.64    2.72
  -4  15  17   17.36    2.58
  -4  15  16    7.30    1.88
  -4  15  15   79.00    4.94
   4  15 -14    7.17    2.07
  -4  15  14    4.42    1.76
   4  15 -13   64.06    4.65
  -4  15  13   62.55    4.36
   4  15 -12   27.06    3.13
  -4  15  12   35.15    3.32
   4  15 -11  141.25    6.69
  -4  15  11  138.20    6.24
   4  15 -10    4.36    1.69
  -4  15  10    2.30    1.37
   4  15  -9    3.68    1.72
  -4  15   9    2.83    1.51
   4  15  -8   73.15    4.65
  -4  15   8   68.71    4.31
   4  15  -7  266.05    8.99
  -4  15   7  247.99    8.33
   4 -15  -7  254.95    6.24
   4  15  -6    7.35    1.87
  -4  15   6    8.00    1.70
   4 -15  -6    7.38    1.11
   4  15  -5    7.70    1.08
   4  15  -5    4.94    1.71
  -4  15   5    6.17    1.57
   4  15  -4   43.67    3.55
  -4  15   4   39.45    3.25
  -4  15   3  247.04    5.89
   4  15  -3  221.73    8.12
  -4  15   3  244.90    8.10
  -4  15   2    2.79    0.90
  -4  15   2   -0.02    1.32
   4  15  -2   -0.50    1.43
   4  15  -1   27.59    2.95
  -4  15   1   31.86    1.97
  -4  15   1   30.91    2.95
  -4  15   0    9.56    1.24
   4  15   0    5.36    1.87
  -4  15   0    9.46    1.87
   4  15   1   24.24    2.76
  -4  15  -1   19.33    2.42
  -4  15  -1   25.50    1.94
  -4  15  -2   11.48    2.14
  -4  15  -2    7.95    1.31
   4  15   2    7.08    1.77
   4  15   3   88.78    4.99
  -4  15  -3   92.42    4.98
  -4  15  -3  100.22    3.91
  -4  15  -4    9.83    1.45
   4  15   4    7.60    1.85
  -4  15  -4   11.48    2.12
  -4  15  -5   44.73    3.59
   4  15   5   44.95    3.61
  -4  15  -5   51.74    2.93
  -4  15  -6   11.07    1.58
   4  15   6    7.49    1.91
  -4  15  -6   12.28    2.14
  -4  15  -7   84.20    3.96
   4  15   7   78.65    4.82
  -4  15  -7   87.23    4.98
  -4  15  -8   44.85    3.07
   4  15   8   38.85    3.43
  -4 -15  -8   39.81    3.57
  -4  15  -9   -0.16    1.07
  -4 -15  -9   -0.87    1.53
  -4  15 -10   22.14    2.53
  -4 -15 -10   24.77    2.98
   4 -15  11   10.21    1.98
  -4  15 -11   13.74    2.11
  -4 -15 -11   10.97    2.47
   4 -15  12   20.08    2.49
  -4  15 -12   23.13    2.46
  -4 -15 -12   25.58    3.17
   4 -15  13   70.61    4.36
  -4  15 -13   73.69    4.38
  -4  15 -14   13.60    2.24
   4 -15  14    9.70    2.15
  -4  15 -15   36.18    3.37
  -4  15 -16   29.97    3.21
  -4  16  16   12.40    2.32
  -4  16  15   15.18    2.49
  -4  16  14   16.16    2.60
  -4  16  13    9.99    2.03
   4  16 -12    0.99    1.56
  -4  16  12    1.79    1.33
   4  16 -11    6.49    2.03
  -4  16  11    3.47    1.45
   4  16 -10   44.17    3.94
  -4  16  10   45.73    3.70
   4  16  -9   45.94    3.90
  -4  16   9   50.02    3.83
   4  16  -8   19.74    2.71
  -4  16   8   16.38    2.29
   4  16  -7   55.97    4.15
  -4  16   7   47.62    3.66
   4  16  -6   24.77    3.00
  -4  16   6   24.25    2.70
   4  16  -5   27.54    3.01
  -4  16   5   22.38    2.65
   4  16  -4   17.50    2.87
  -4  16   4   22.78    2.71
   4  16  -3  214.39    8.03
  -4  16   3  199.96    7.49
  -4  16   2   17.92    2.45
   4  16  -2   16.35    2.47
   4  16  -1   25.85    2.95
  -4  16   1   27.76    2.82
  -4  16   0  131.20    6.00
   4  16   0  132.19    6.25
   4  16   1  201.07    7.80
  -4  16  -1  200.15    5.75
  -4  16  -1  199.99    7.52
  -4  16  -2    3.08    1.61
   4  16   2    1.35    1.74
  -4  16  -2    0.74    0.80
  -4  16  -3   -0.60    0.92
   4  16   3   -5.02    2.10
  -4  16  -3   -0.46    1.39
   4  16   4  101.26    5.51
  -4  16  -4   97.64    4.11
  -4  16  -4   92.62    5.20
   4  16   5  112.36    5.82
  -4  16  -5  108.38    4.41
  -4  16  -5   99.18    5.40
   4  16   6   32.46    3.26
  -4  16  -6   32.97    2.52
  -4  16  -6   41.79    3.63
  -4  16  -7   13.04    1.83
   4  16   7   14.88    2.43
  -4  16  -7   15.37    2.36
  -4  16  -8    7.48    1.59
   4  16   8    5.32    1.79
  -4  16  -8   10.10    2.21
  -4 -16  -8    3.36    1.78
  -4  16  -9   76.08    4.08
  -4 -16  -9   73.31    4.88
  -4  16 -10   10.42    1.91
  -4 -16 -10    7.02    2.05
   4 -16  11    8.69    2.05
  -4  16 -11    5.19    1.59
   4 -16  12    1.81    1.45
  -4  16 -12   -0.13    1.33
   4 -16  13   27.31    3.00
   4 -16  14   30.18    3.10
  -4  17  14    3.65    2.04
  -4  17  13    0.36    1.61
  -4  17  12    2.87    1.46
  -4  17  11   28.09    3.06
  -4  17  10   37.65    3.45
   4  17  -9   21.35    2.93
  -4  17   9   21.93    2.67
   4  17  -8    1.73    1.62
  -4  17   8   10.26    2.16
   4  17  -7   11.25    2.30
  -4  17   7    8.36    1.94
   4  17  -6  135.14    6.58
  -4  17   6  130.82    6.13
   4  17  -5   -0.53    1.70
  -4  17   5   -0.39    1.35
   4  17  -4    7.78    2.02
  -4  17   4    8.13    1.94
   4  17  -3   50.79    4.11
  -4  17   3   51.92    3.93
   4  17  -2  171.37    7.39
  -4  17   2  164.50    6.92
   4  17  -1    1.64    1.71
  -4  17   1    2.29    1.63
   4  17   0    6.22    1.75
  -4  17   0   15.48    2.58
  -4  17  -1   33.90    3.27
   4  17   1   37.65    3.51
   4  17   2  140.88    6.67
  -4  17  -2  134.65    6.33
   4  17   3    5.18    1.75
  -4  17  -3    2.67    1.61
   4  17   4  161.12    7.28
  -4  17  -4  172.03    7.28
   4  17   5   10.43    2.12
  -4  17  -5    7.60    2.23
   4  17   6   91.57    5.41
  -4  17  -6   97.77    5.53
   4  17   7   13.99    2.58
  -4  17  -7   18.45    2.83
  -4 -17  -7   14.16    2.46
  -4  17  -8   16.93    2.61
   4 -17  12   30.53    3.19
  -4  18  12   32.51    3.35
  -4  18  11   17.59    2.60
  -4  18  10   95.29    5.43
  -4  18   9    1.79    1.67
  -4  18   8   39.07    3.57
  -4  18   7    3.53    1.58
   4  18  -6   60.45    4.56
  -4  18   6   62.86    4.44
   4  18  -5    2.92    1.88
  -4  18   5    5.18    1.74
   4  18  -4   44.98    4.03
  -4  18   4   43.11    3.68
   4  18  -3   10.11    2.31
  -4  18   3    7.32    1.86
   4  18  -2   -1.76    1.87
  -4  18   2    1.09    1.69
   4  18  -1   -0.92    1.57
  -4  18   1    1.25    1.51
   4  18   0   23.23    3.00
  -4  18   0   15.94    2.44
  -4  18  -1    1.13    1.37
   4  18   1   -1.29    1.76
  -4  18  -2   30.90    3.19
   4  18   2   28.38    3.28
   4  18   3    3.57    1.68
  -4  18  -3    5.30    1.90
   4  18   4   15.91    2.52
  -4  18  -4   14.85    2.47
  -4  18  -5    1.61    1.67
  -4  18  -6   32.55    3.39
  -4  19   9   25.97    3.03
  -4  19   8    1.37    1.56
  -4  19   7   -1.15    1.50
  -4  19   6   54.43    4.32
  -4  19   5   -2.18    1.74
  -4  19   4    0.49    1.44
  -4  19   3   -0.21    1.62
  -4  19   2  129.69    6.43
  -4  19   1   10.99    2.19
  -4  19   0    3.68    1.64
  -4  19  -1   40.83    3.72
  -4  19  -2  172.68    7.55
   5   0 -25   -1.48    1.77
   5   0 -24   44.64    3.82
   5   0 -23    1.80    1.52
   5   0 -22    2.40    1.60
   5   0 -21    0.67    1.41
   5   0 -20    4.44    1.50
   5   0 -19   -1.37    1.48
   5   0 -18   56.39    3.47
   5   0 -17    0.62    1.17
   5   0 -16   24.88    2.19
  -5   0  16   30.13    2.24
   5   0 -15    0.29    0.93
  -5   0  15    0.46    0.84
   5   0 -14  139.04    4.77
  -5   0  14  137.40    4.47
  -5   0  14  136.97    5.26
   5   0 -13    0.00    0.92
  -5   0  13    1.03    0.75
  -5   0  13    0.49    1.14
   5   0 -12   45.03    2.48
  -5   0  12   47.68    2.34
  -5   0  12   47.87    2.90
   5   0 -12   47.73    2.86
   5   0 -11    1.06    0.52
   5   0 -11   -0.34    0.71
  -5   0  11   -0.35    0.66
  -5   0  11    1.21    1.07
   5   0 -11    1.05    0.85
   5   0 -10   52.45    2.00
   5   0 -10   50.97    2.45
  -5   0  10   52.13    2.25
   5   0 -10   55.25    2.86
  -5   0  10   52.78    2.82
   5   0  -9   -0.43    0.75
   5   0  -9   -0.66    0.60
  -5   0   9    0.22    0.55
  -5   0   9    0.85    0.87
   5   0  -9    0.47    0.77
   5   0  -8    1.08    0.66
   5   0  -8    1.06    0.63
  -5   0   8    0.85    0.53
   5   0  -8    0.45    0.79
  -5   0   8   -0.36    0.91
   5   0  -7   -0.20    0.64
   5   0  -7    0.39    0.67
  -5   0   7   -0.02    0.49
   5   0  -7    0.00    0.74
  -5   0   7    0.99    0.82
  -5   0   6  489.67    8.60
   5   0  -6  497.33    8.87
   5   0  -6  493.70    8.66
  -5   0   6  516.88    9.59
   5   0  -6  488.28    9.51
   5   0  -5   -0.54    0.68
   5   0  -5    0.48    0.55
  -5   0   5    0.18    0.53
   5   0  -5    1.34    0.87
  -5   0   5   -0.03    0.77
  -5   0   4   31.44    1.50
   5   0  -4   34.10    1.86
   5   0  -4   32.99    1.57
  -5   0   4   33.19    1.88
  -5   0   3   -0.08    0.72
  -5   0   3   -1.44    0.64
   5   0  -3   -0.04    0.49
   5   0  -3    0.37    0.60
  -5   0   3    0.19    0.71
  -5   0   2  705.59   11.13
  -5   0   2  701.08   12.06
   5   0  -2  705.68   11.12
   5   0  -2  698.77   11.72
  -5   0   2  709.13   11.72
  -5   0   1    0.18    0.67
  -5   0   1    1.02    0.60
  -5   0   1   -0.08    0.64
   5   0  -1   -0.32    0.55
  -5   0   0  171.67    4.74
   5   0   0  178.54    4.09
  -5   0   0  173.37    4.28
  -5   0   0  171.74    4.06
  -5   0   0  177.91    4.08
  -5   0  -1   -0.28    0.65
  -5   0  -1    0.87    0.55
  -5   0  -1    0.89    0.64
  -5   0  -1    0.54    0.54
  -5   0  -2 1217.51   18.38
  -5   0  -2 1178.68   18.32
  -5   0  -2 1248.83   19.38
  -5   0  -2 1223.18   18.33
  -5   0  -3    0.41    0.79
  -5   0  -3    0.19    0.51
  -5   0  -3   -0.13    0.66
  -5   0  -3    1.68    0.82
  -5   0  -4  250.39    5.78
  -5   0  -4  235.65    5.66
  -5   0  -4  255.01    6.34
  -5   0  -5   -0.83    0.69
  -5   0  -5   -1.06    0.88
  -5   0  -5    0.90    0.89
  -5   0  -6  486.21    9.53
  -5   0  -6  473.40    9.90
  -5   0  -6  474.86    9.52
  -5   0  -7   -0.72    0.91
  -5   0  -7    0.68    0.91
  -5   0  -7   -0.04    0.88
   5   0   7    0.02    0.81
  -5   0  -8  558.36   11.06
  -5   0  -8  552.35   11.15
  -5   0  -8  541.26   10.92
   5   0   8  539.75   10.99
  -5   0  -9   -0.15    0.80
  -5   0  -9    1.73    1.04
  -5   0  -9    0.87    1.00
   5   0   9    0.97    1.00
  -5   0 -10  481.91   10.42
  -5   0 -10  453.43   10.22
  -5   0 -11    0.37    1.15
  -5   0 -12  650.58   13.54
  -5   0 -13    1.67    1.30
  -5   0 -14    0.70    1.30
  -5   0 -15    0.00    1.24
  -5   0 -16    7.79    1.84
  -5   0 -17   -3.01    1.67
  -5   0 -18   47.36    3.71
  -5   0 -19   -1.13    1.70
  -5   0 -20   90.42    5.39
   5  -1 -26   11.55    2.29
   5   1 -25    2.21    1.53
   5  -1 -25    1.94    1.45
   5   1 -24    0.59    1.41
   5  -1 -24   -0.67    1.38
   5   1 -23   27.51    3.02
   5  -1 -23   24.11    2.81
   5   1 -22  145.81    6.38
   5  -1 -22  146.04    6.25
   5   1 -21   -0.46    1.27
   5  -1 -21    0.76    1.22
   5   1 -20   45.79    3.41
   5  -1 -20   48.16    3.40
   5   1 -19    3.15    1.36
   5  -1 -19    3.30    1.39
   5   1 -18  273.35    8.05
   5  -1 -18  272.09    7.86
   5  -1 -17    8.90    0.70
   5   1 -17    8.74    1.67
   5  -1 -17    8.43    1.47
  -5   1  17    8.28    1.37
   5  -1 -16    5.01    0.65
   5   1 -16    6.36    1.42
   5  -1 -16    5.11    1.18
  -5   1  16    3.81    0.97
  -5  -1  16    6.12    1.25
   5  -1 -15   76.25    2.27
   5   1 -15   72.89    3.57
   5  -1 -15   75.68    3.53
  -5  -1  15   74.13    3.45
  -5   1  15   76.51    3.28
  -5   1  15   73.64    3.91
   5   1 -14  883.32   16.14
   5  -1 -14  886.08   15.76
   5  -1 -14  911.14   13.63
  -5  -1  14  882.82   15.73
  -5   1  14  900.46   15.29
  -5   1  14  897.46   16.95
   5   1 -13   40.28    2.58
   5  -1 -13   38.45    1.72
   5  -1 -13   38.69    2.34
  -5   1  13   39.32    2.18
  -5  -1  13   37.24    2.32
  -5   1  13   41.84    2.90
   5   1 -12  124.93    4.35
   5  -1 -12  134.30    4.24
   5  -1 -12  134.98    3.46
  -5   1  12  135.06    3.98
  -5  -1  12  131.09    4.21
   5  -1 -12  137.65    4.99
  -5  -1  12  137.52    4.87
   5   1 -12  137.96    4.90
  -5   1  12  129.74    4.85
   5  -1 -11    7.25    0.90
   5   1 -11    7.01    1.20
   5  -1 -11    7.11    1.07
  -5  -1  11    5.89    1.06
  -5   1  11    6.86    0.92
  -5  -1  11    4.97    1.14
   5  -1 -11    6.45    1.19
  -5   1  11    9.09    1.43
   5   1 -11    6.66    1.20
   5  -1 -10  728.94   12.59
   5  -1 -10  761.80   12.14
   5   1 -10  751.00   13.18
  -5   1  10  748.42   12.20
  -5  -1  10  745.82   12.75
  -5   1  10  758.23   13.95
   5  -1 -10  788.77   14.12
  -5  -1  10  753.19   13.68
   5   1 -10  746.93   13.72
   5  -1  -9   24.89    1.53
   5   1  -9   24.02    1.73
   5  -1  -9   24.40    1.58
  -5  -1   9   25.76    1.65
  -5   1   9   28.34    1.49
   5   1  -9   27.13    1.96
   5  -1  -9   27.23    1.99
  -5   1   9   25.58    2.02
  -5  -1   9   26.80    1.96
   5  -1  -8  297.71    6.06
   5   1  -8  289.79    6.38
   5  -1  -8  284.12    5.89
  -5  -1   8  281.35    6.11
  -5   1   8  289.37    5.55
   5   1  -8  296.74    6.84
  -5   1   8  295.96    7.05
   5  -1  -8  299.76    7.04
  -5  -1   8  284.96    6.76
   5  -1  -7    1.60    0.97
   5   1  -7   -0.25    0.66
   5  -1  -7   -0.33    0.54
  -5  -1   7    0.88    0.65
   5  -1  -7    0.45    0.68
  -5  -1   7   -0.08    0.55
  -5   1   7   -0.20    0.43
  -5  -1   7    0.47    0.85
  -5   1   7    0.69    0.86
   5   1  -7   -0.42    0.74
   5  -1  -6  102.94    3.22
  -5  -1   6   96.56    3.10
   5   1  -6   99.53    3.16
   5  -1  -6   95.74    2.73
  -5   1   6  102.95    2.55
   5   1  -6   96.46    3.31
  -5  -1   6  104.31    3.42
   5  -1  -6   97.69    3.50
  -5   1   6  104.52    3.65
  -5  -1   5  114.65    3.30
   5  -1  -5  115.92    3.51
  -5   1   5  113.36    2.84
  -5  -1   5  110.43    3.31
   5   1  -5  106.89    3.24
   5  -1  -5  106.98    2.80
  -5  -1   5  117.25    3.52
   5  -1  -5  110.98    3.73
   5   1  -5  111.91    3.46
  -5   1   5  113.67    3.72
  -5   1   4  546.92    8.78
   5  -1  -4  566.52   10.02
  -5  -1   4  560.67    9.82
  -5  -1   4  551.86    9.51
   5   1  -4  545.16    9.52
   5  -1  -4  544.67    8.79
   5  -1  -4  543.76   10.08
   5   1  -4  540.03    9.70
  -5   1   4  572.24   10.20
  -5  -1   4  573.81    9.81
   5  -1  -3   80.14    2.98
  -5  -1   3   81.35    2.90
  -5  -1   3   81.33    2.68
  -5   1   3   78.92    2.22
   5   1  -3   79.74    2.65
   5   1  -3   80.91    2.70
   5  -1  -3   79.29    2.96
   5  -1  -3   81.75    2.26
  -5   1   3   81.51    2.98
  -5  -1   3   84.29    2.77
   5  -1  -2   82.51    3.07
  -5  -1   2   81.74    2.95
  -5  -1   2   77.89    2.60
  -5   1   2   81.47    2.25
   5  -1  -2   79.76    2.23
   5   1  -2   78.36    2.60
   5  -1  -2   81.17    2.89
   5   1  -2   77.90    2.61
  -5  -1   2   80.84    2.67
  -5   1   2   83.08    2.93
   5  -1  -1  290.27    6.48
  -5  -1   1  301.69    6.47
   5  -1  -1  288.10    5.29
  -5   1   1  280.35    5.29
   5   1  -1  288.25    5.87
  -5  -1   1  273.68    5.78
  -5  -1   1  289.87    5.74
  -5   1   1  287.87    6.20
  -5   1   1  285.64    5.25
  -5  -1   0  402.46    7.71
   5   1   0  410.34    7.73
  -5   1   0  417.04    7.98
  -5   1   0  415.55    7.19
  -5   1   0  433.00    8.47
   5  -1   0  427.68    8.44
  -5  -1   0  418.37    8.40
  -5   1   0  406.08    7.14
  -5  -1   0  419.74    7.46
   5   1   1  226.81    5.16
  -5  -1  -1  229.46    5.19
  -5  -1  -1  221.23    4.81
  -5   1  -1  229.32    5.33
  -5   1  -1  225.20    4.77
  -5  -1  -1  225.10    5.70
  -5   1  -1  233.00    5.69
  -5   1  -1  232.66    4.79
  -5  -1  -1  218.32    5.09
  -5   1  -2    1.92    0.62
  -5  -1  -2    1.05    0.63
  -5  -1  -2    0.78    0.52
  -5   1  -2   -0.02    0.72
  -5   1  -2    2.07    0.86
  -5  -1  -2   -0.13    0.70
  -5   1  -2   -0.92    0.77
  -5  -1  -2    0.86    0.69
  -5   1  -3  232.26    5.18
  -5  -1  -3  229.08    5.50
  -5  -1  -3  241.74    5.11
  -5  -1  -3  238.65    5.97
  -5   1  -3  228.38    5.90
  -5   1  -3  238.90    5.26
  -5  -1  -3  224.98    5.48
  -5  -1  -4    7.14    1.03
  -5   1  -4    5.92    0.87
  -5   1  -4    6.70    1.15
  -5  -1  -4    4.29    0.95
  -5   1  -4    6.49    0.97
  -5  -1  -4    6.54    1.07
  -5   1  -5   88.49    3.17
  -5  -1  -5   89.68    3.32
  -5  -1  -5   89.11    3.58
  -5   1  -5   94.50    3.64
  -5   1  -5   86.14    3.14
  -5  -1  -5   90.17    3.41
   5  -1   5   85.45    3.16
  -5   1  -6  278.24    6.40
  -5  -1  -6  264.35    6.54
  -5  -1  -6  273.07    6.84
  -5   1  -6  267.92    6.74
  -5  -1  -6  262.64    6.49
  -5   1  -6  263.48    6.30
   5  -1   6  258.63    6.29
  -5  -1  -7    1.11    0.88
  -5   1  -7    1.66    0.83
  -5  -1  -7    0.34    0.74
  -5   1  -7    0.35    0.79
  -5   1  -7   -0.05    0.86
  -5  -1  -7    2.10    1.09
   5  -1   7    1.41    0.87
  -5  -1  -8   26.51    2.01
  -5   1  -8   22.68    1.79
  -5  -1  -8   23.75    1.95
  -5   1  -8   21.65    1.86
  -5   1  -8   21.17    1.85
  -5  -1  -8   22.80    1.99
   5  -1   8   26.30    1.97
  -5  -1  -9  293.36    7.53
  -5  -1  -9  293.99    7.50
  -5   1  -9  285.53    7.34
  -5  -1  -9  275.23    7.35
  -5   1  -9  287.70    7.30
   5  -1   9  299.92    7.47
   5   1   9  301.91    7.62
  -5   1 -10  453.90   10.03
  -5   1 -10  454.84   10.10
  -5  -1 -10  450.17   10.21
   5  -1  10  473.54   10.29
  -5   1 -11   85.07    3.97
  -5  -1 -11   90.71    4.14
  -5   1 -12  163.11    5.74
  -5  -1 -12  169.26    5.93
  -5   1 -13  171.45    6.16
  -5  -1 -13  179.54    6.33
  -5  -1 -14    7.30    1.86
  -5   1 -14    6.84    1.55
  -5   1 -15    6.71    1.73
  -5  -1 -15    8.24    1.79
  -5   1 -16  123.73    5.63
  -5  -1 -16  118.04    5.62
  -5   1 -17    6.29    1.77
  -5  -1 -17   10.86    2.26
  -5   1 -18  129.38    6.15
  -5  -1 -18  131.31    6.17
  -5   1 -19   10.39    2.15
  -5  -1 -19   15.89    2.49
  -5  -1 -20   86.61    5.24
  -5   1 -20   79.95    5.18
   5  -2 -26    9.05    2.13
   5   2 -25    1.59    1.56
   5  -2 -25    3.59    1.45
   5  -2 -25    0.53    1.52
   5   2 -24   18.57    2.56
   5  -2 -24   15.20    2.39
   5  -2 -24   16.04    2.37
   5   2 -23   10.51    2.18
   5  -2 -23   12.78    2.17
   5  -2 -23   12.34    2.04
   5   2 -22   45.89    3.72
   5  -2 -22   47.42    3.58
   5  -2 -22   47.63    3.41
   5   2 -21   77.54    4.62
   5  -2 -21   72.80    4.27
   5  -2 -21   79.79    4.20
   5   2 -20   73.25    4.28
   5  -2 -20   73.70    4.20
   5  -2 -20   68.89    3.82
   5   2 -19  177.95    6.59
   5  -2 -19  181.49    6.38
   5  -2 -19  174.84    5.95
   5   2 -18  250.20    7.87
   5  -2 -18  263.32    5.00
   5  -2 -18  243.93    7.35
   5  -2 -18  251.41    7.12
   5  -2 -17   24.47    1.34
   5   2 -17   20.41    2.35
   5  -2 -17   20.31    2.02
  -5   2  17   17.74    1.82
   5  -2 -17   23.73    2.13
   5   2 -16   87.21    4.19
   5  -2 -16   80.31    3.74
   5  -2 -16   88.24    2.66
  -5   2  16   83.69    3.53
   5  -2 -16   84.51    3.62
  -5   2  16   88.01    4.45
   5   2 -15  157.48    5.54
   5  -2 -15  154.66    5.11
   5  -2 -15  167.49    3.99
  -5  -2  15  166.28    5.46
  -5   2  15  159.55    4.81
  -5   2  15  162.93    5.98
   5   2 -14  254.30    7.06
   5  -2 -14  252.76    6.52
   5  -2 -14  256.08    5.43
  -5   2  14  262.81    6.24
  -5  -2  14  259.90    6.87
  -5   2  14  259.24    7.59
   5   2 -13  137.30    4.83
   5  -2 -13  134.68    4.32
   5  -2 -13  141.06    3.70
  -5   2  13  136.94    4.05
  -5  -2  13  139.06    4.65
  -5   2  13  139.95    5.22
   5  -2 -12  475.72    9.42
   5  -2 -12  500.21    8.78
   5   2 -12  483.53   10.25
  -5   2  12  481.45    8.97
  -5  -2  12  497.32    9.95
   5   2 -12  500.95   10.66
  -5   2  12  482.50   10.76
   5  -2 -11  262.47    6.03
   5  -2 -11  278.97    5.80
   5   2 -11  264.64    6.73
  -5   2  11  268.52    5.66
  -5  -2  11  278.27    6.56
  -5   2  11  260.78    7.15
   5  -2 -11  275.35    7.31
   5   2 -11  264.23    6.97
  -5  -2  11  270.09    6.93
   5   2 -10    2.17    0.91
   5  -2 -10    1.74    0.75
   5  -2 -10    2.08    0.67
  -5  -2  10    2.36    0.74
  -5   2  10    1.66    0.55
   5  -2 -10    2.27    0.96
   5   2 -10    2.47    0.94
  -5   2  10    2.61    1.09
  -5  -2  10    0.73    0.87
   5  -2  -9  240.25    5.29
   5  -2  -9  261.22    5.62
   5   2  -9  237.56    6.07
  -5   2   9  246.30    4.93
  -5  -2   9  252.78    5.93
   5  -2  -9  258.54    6.68
  -5   2   9  254.05    6.68
   5   2  -9  247.57    6.24
  -5  -2   9  259.68    6.34
   5   2  -8  382.62    7.89
   5  -2  -8  374.39    7.37
   5  -2  -8  372.39    6.84
  -5   2   8  363.19    6.38
  -5  -2   8  371.64    7.56
   5   2  -8  376.75    7.95
  -5   2   8  386.18    8.43
   5  -2  -8  381.00    8.39
  -5  -2   8  386.42    7.97
  -5  -2   7  642.69   11.28
   5   2  -7  632.85   11.32
   5  -2  -7  611.28   10.04
   5  -2  -7  650.87   11.08
  -5  -2   7  642.62   10.54
  -5   2   7  627.51    9.61
   5  -2  -7  654.67   12.03
   5   2  -7  631.36   11.38
  -5   2   7  664.19   12.07
  -5  -2   7  663.51   11.41
  -5  -2   6  384.28    7.68
   5   2  -6  382.02    7.71
   5  -2  -6  372.76    6.47
  -5  -2   6  390.38    7.29
   5  -2  -6  394.21    7.67
  -5   2   6  378.88    6.08
  -5  -2   6  396.56    7.69
   5   2  -6  370.28    7.60
   5  -2  -6  397.10    8.29
  -5   2   6  384.70    8.21
   5   2  -5  258.90    5.83
   5  -2  -5  259.66    4.66
   5  -2  -5  260.27    6.26
  -5  -2   5  263.22    5.86
  -5  -2   5  261.83    5.65
   5  -2  -5  263.62    5.92
  -5   2   5  257.06    4.31
  -5   2   5  271.11    6.37
  -5  -2   5  273.18    5.76
   5   2  -5  246.70    5.61
  -5  -2   4   77.57    2.78
   5  -2  -4   79.06    2.96
  -5   2   4   72.27    1.90
  -5  -2   4   80.62    2.84
   5  -2  -4   78.14    1.96
   5   2  -4   77.94    2.84
   5  -2  -4   78.34    3.08
  -5  -2   4   81.57    2.68
   5   2  -4   77.91    2.61
  -5   2   4   74.68    3.04
  -5   2   3  797.40   11.58
  -5  -2   3  817.95   13.34
   5  -2  -3  821.92   13.61
  -5  -2   3  799.03   13.12
   5  -2  -3  805.52   11.58
   5   2  -3  788.45   12.63
   5  -2  -3  801.19   13.63
   5   2  -3  778.51   13.10
  -5   2   3  799.89   13.60
  -5  -2   3  835.52   12.75
  -5   2   3  806.48   11.38
   5  -2  -2   49.65    1.49
   5   2  -2   48.07    1.88
   5  -2  -2   52.76    2.41
   5   2  -2   48.30    2.21
  -5  -2   2   49.73    2.29
   5  -2  -2   51.50    2.48
  -5  -2   2   50.77    2.22
  -5   2   2   50.70    1.52
  -5   2   2   48.80    1.45
  -5   2   2   47.57    2.35
  -5  -2   2   51.73    1.95
  -5  -2   1   32.49    1.80
  -5   2   1   33.38    1.28
   5   2  -1   35.96    1.91
  -5  -2   1   32.43    1.89
   5  -2  -1   34.40    2.10
  -5   2   1   33.91    1.28
  -5  -2   1   35.05    1.53
  -5   2   1   32.40    1.96
  -5   2   0   45.41    1.60
  -5   2   0   42.78    2.15
  -5  -2   0   44.61    2.14
   5   2   0   41.55    2.06
  -5  -2   0   45.07    2.35
   5  -2   0   47.87    2.47
  -5   2   0   46.04    1.65
  -5  -2   0   46.52    1.77
  -5  -2  -1   11.48    1.16
   5   2   1   12.78    1.35
  -5   2  -1   12.54    0.94
  -5   2  -1   13.20    1.36
  -5  -2  -1   12.18    0.94
  -5  -2  -1   10.58    1.23
   5  -2   1    9.24    1.27
  -5   2  -1   12.08    0.95
   5   2   2   85.68    3.13
  -5  -2  -2   88.69    3.17
  -5   2  -2   88.92    2.62
  -5  -2  -2   86.95    2.52
  -5   2  -2   90.79    3.26
  -5  -2  -2   84.57    3.30
   5  -2   2   88.84    3.41
  -5   2  -2   86.49    2.63
  -5  -2  -2   92.59    3.19
  -5   2  -3  115.16    3.26
  -5  -2  -3  118.19    3.09
  -5  -2  -3  121.59    3.87
   5  -2   3  107.96    3.90
  -5  -2  -3  118.70    4.02
  -5   2  -3  119.46    3.37
  -5  -2  -3  123.40    3.83
   5  -2   3  113.17    3.30
  -5   2  -4   55.79    2.31
  -5  -2  -4   60.03    2.70
  -5   2  -4   55.40    2.76
  -5  -2  -4   60.12    2.91
  -5   2  -4   57.00    2.33
  -5  -2  -4   54.40    2.61
   5  -2   4   54.31    2.29
  -5  -2  -5    0.85    0.70
  -5   2  -5    0.92    0.54
  -5  -2  -5    1.60    0.84
  -5   2  -5   -0.01    0.81
  -5   2  -5    1.33    0.72
  -5  -2  -5    1.57    0.96
   5  -2   5    2.14    0.74
  -5  -2  -6   66.26    3.02
  -5  -2  -6   67.23    3.16
  -5   2  -6   67.99    3.11
  -5  -2  -6   64.41    2.99
  -5   2  -6   65.71    2.80
   5  -2   6   62.14    2.74
  -5  -2  -7    0.68    0.73
  -5  -2  -7    2.59    0.99
  -5   2  -7    0.28    0.82
  -5  -2  -7    0.61    0.92
  -5   2  -7   -0.13    0.86
   5  -2   7    0.41    0.76
  -5  -2  -8  182.90    5.59
   5  -2   8  167.73    5.15
  -5   2  -8  166.20    5.09
  -5  -2  -8  169.07    5.40
  -5   2  -8  180.53    5.46
  -5  -2  -8  183.49    5.58
  -5  -2  -9  483.78   10.51
  -5   2  -9  473.60   10.13
  -5   2  -9  466.52    9.97
  -5  -2  -9  459.29   10.30
   5  -2   9  469.34   10.04
  -5   2 -10  106.26    4.20
  -5  -2 -10  103.75    4.40
   5  -2  10  115.51    4.41
  -5   2 -10  110.37    4.38
  -5  -2 -11   59.93    3.44
  -5   2 -11   61.44    3.29
  -5   2 -12   33.36    2.64
  -5  -2 -12   36.09    2.78
  -5   2 -13  189.44    6.45
  -5  -2 -13  191.06    6.57
  -5   2 -14   50.04    3.41
  -5  -2 -14   47.80    3.38
  -5  -2 -15    3.78    1.64
  -5   2 -15    1.86    1.38
  -5   2 -16   35.18    3.04
  -5  -2 -16   33.02    3.01
  -5  -2 -17  233.12    8.28
  -5   2 -17  246.46    8.29
  -5   2 -18    4.87    1.82
  -5  -2 -18    1.46    1.52
  -5   2 -19    2.16    1.57
  -5  -2 -19   -1.83    1.45
  -5   2 -20   26.68    3.15
  -5  -2 -20   32.31    3.41
   5  -3 -26    3.43    1.82
   5  -3 -26    5.83    1.98
   5  -3 -25   -1.29    1.53
   5   3 -24   15.64    2.55
   5  -3 -24   13.94    2.18
   5   3 -23   99.43    5.48
   5  -3 -23   91.34    4.75
   5   3 -22    2.23    1.44
   5  -3 -22    4.36    1.43
   5   3 -21   10.78    2.15
   5  -3 -21   12.45    1.84
   5   3 -20   43.94    3.46
   5  -3 -20   41.82    2.89
   5   3 -19   95.47    4.87
   5  -3 -19  106.20    3.06
   5  -3 -19   92.78    4.24
   5   3 -18   21.74    2.42
  -5   3  18   20.88    1.89
   5  -3 -18   17.43    1.88
  -5   3  18   17.90    3.40
   5   3 -17   22.49    2.43
  -5   3  17   17.36    1.71
   5  -3 -17   21.39    1.91
  -5   3  17   19.97    2.34
   5   3 -16    0.77    1.33
   5  -3 -16    0.33    0.90
  -5   3  16    0.46    0.77
  -5   3  16   -0.90    1.28
   5   3 -15  116.11    4.85
  -5   3  15  121.55    4.01
   5  -3 -15  115.81    4.01
  -5   3  15  121.26    5.16
   5   3 -14  135.54    5.04
   5  -3 -14  131.83    4.38
  -5   3  14  131.45    4.05
   5  -3 -14  131.23    4.10
  -5  -3  14  136.52    4.84
  -5   3  14  122.85    5.13
   5  -3 -13  233.93    5.87
   5   3 -13  234.41    6.75
  -5   3  13  240.22    5.54
  -5  -3  13  235.76    6.46
  -5   3  13  226.08    6.99
   5   3 -12   23.68    2.03
   5  -3 -12   23.20    1.66
  -5   3  12   19.99    1.38
  -5  -3  12   23.22    1.87
  -5   3  12   22.81    2.17
   5   3 -12   23.33    1.99
   5  -3 -11   47.83    2.18
   5   3 -11   48.06    2.75
  -5   3  11   49.37    1.96
  -5  -3  11   48.39    2.64
  -5   3  11   52.56    3.07
   5   3 -11   49.38    2.78
   5  -3 -11   50.42    2.94
   5  -3 -10  133.33    3.64
   5   3 -10  128.60    4.45
  -5   3  10  134.72    3.27
  -5  -3  10  133.73    4.32
   5  -3 -10  133.10    4.77
  -5   3  10  136.16    4.86
   5   3 -10  132.51    4.47
   5  -3  -9  514.45    8.92
   5   3  -9  520.67   10.39
  -5  -3   9  524.12    8.78
  -5  -3   9  525.65   10.14
  -5   3   9  531.63    8.41
  -5   3   9  525.30   10.90
   5  -3  -9  559.81   11.14
   5   3  -9  538.67   10.32
   5   3  -8   44.26    2.42
  -5  -3   8   42.81    1.80
  -5  -3   8   41.28    2.31
   5  -3  -8   42.73    1.67
  -5   3   8   45.42    1.45
   5  -3  -8   43.66    2.56
  -5   3   8   44.34    2.62
  -5  -3   8   41.74    2.27
   5   3  -8   45.97    2.32
   5  -3  -7   10.45    1.32
  -5  -3   7   10.39    0.99
   5   3  -7    9.62    1.25
  -5  -3   7   10.09    1.21
   5  -3  -7   10.68    0.79
  -5   3   7   11.84    0.66
  -5  -3   7   10.21    1.19
  -5   3   7   10.50    1.46
   5   3  -7   11.27    1.20
   5  -3  -6  133.85    4.41
   5  -3  -6  143.15    4.10
  -5  -3   6  128.57    4.06
  -5  -3   6  137.80    3.69
   5   3  -6  129.99    4.10
   5  -3  -6  128.27    2.76
  -5   3   6  137.59    2.34
  -5   3   6  129.90    4.37
   5   3  -6  138.48    3.86
  -5  -3   6  136.01    3.81
  -5  -3   5  294.27    6.17
   5  -3  -5  294.58    6.58
  -5  -3   5  294.39    6.60
   5   3  -5  288.90    6.57
   5  -3  -5  299.47    7.00
   5  -3  -5  295.41    4.73
  -5   3   5  301.69    7.04
   5   3  -5  289.22    6.05
  -5  -3   5  303.96    6.10
  -5  -3   4  309.99    6.48
  -5  -3   4  315.18    6.80
   5  -3  -4  323.00    6.91
   5   3  -4  300.40    6.72
   5  -3  -4  306.71    4.69
   5  -3  -4  327.49    7.21
  -5  -3   4  319.23    6.11
   5   3  -4  304.85    6.05
  -5   3   4  313.35    7.14
  -5  -3   3  859.05   14.11
   5  -3  -3  870.29   14.35
  -5  -3   3  854.19   13.95
   5   3  -3  832.07   14.07
   5  -3  -3  846.98   14.50
  -5  -3   3  857.80   13.06
  -5   3   3  867.73   14.55
   5   3  -3  817.65   12.98
   5   3  -2  178.79    4.77
   5   3  -2  179.29    3.89
  -5  -3   2  185.24    4.79
   5  -3  -2  182.98    4.97
  -5   3   2  178.47    3.04
  -5   3   2  181.14    3.04
  -5  -3   2  179.28    3.90
  -5   3   2  184.62    4.98
  -5   3   1   -0.67    0.95
   5   3  -1    0.52    0.79
   5  -3  -1    0.60    0.91
  -5   3   1    1.07    0.32
  -5  -3   1   -0.26    0.69
  -5   3   1    1.07    0.37
  -5  -3   1   -0.57    0.58
   5   3   0  997.22   16.38
  -5   3   0 1009.53   14.43
  -5   3   0 1031.24   16.66
  -5  -3   0 1025.12   16.48
   5  -3   0 1023.42   16.83
  -5   3   0 1024.01   14.57
  -5  -3   0 1021.64   14.77
   5   3   1 1295.00   20.44
  -5   3  -1 1322.21   18.70
  -5   3  -1 1344.53   20.76
  -5  -3  -1 1333.37   20.59
   5  -3   1 1340.12   20.96
  -5   3  -1 1335.21   18.86
  -5  -3  -1 1306.93   18.64
   5   3   2  143.46    4.31
  -5   3  -2  141.96    3.40
  -5  -3  -2  148.49    3.22
  -5  -3  -2  145.88    4.36
  -5   3  -2  144.15    4.42
   5  -3   2  147.00    4.57
  -5   3  -2  152.69    3.58
   5  -3   2  138.07    3.47
   5   3   3  155.92    4.75
  -5   3  -3  163.76    3.94
  -5  -3  -3  166.16    4.82
  -5  -3  -3  169.89    3.60
   5  -3   3  163.72    4.94
  -5   3  -3  170.33    4.08
   5  -3   3  160.93    3.99
  -5  -3  -3  170.33    4.84
  -5  -3  -4   96.33    3.61
  -5   3  -4   93.44    2.92
   5  -3   4   90.22    3.62
  -5   3  -4   93.22    3.02
   5  -3   4   88.93    2.97
  -5  -3  -4   90.68    3.49
  -5  -3  -5  148.93    4.77
  -5  -3  -5  146.23    4.68
  -5   3  -5  152.60    4.21
   5  -3   5  150.73    4.24
   5  -3   5  151.87    4.82
  -5  -3  -6  189.71    5.55
  -5   3  -6  184.50    4.94
  -5  -3  -6  185.37    5.50
   5  -3   6  181.09    4.94
   5  -3   6  179.75    5.38
  -5  -3  -7   87.25    3.71
  -5   3  -7   79.64    3.24
   5  -3   7   80.43    3.29
  -5  -3  -7   83.67    3.63
  -5  -3  -8   79.18    3.63
  -5  -3  -8   70.50    3.46
   5  -3   8   70.55    3.20
  -5   3  -8   75.07    3.25
   5  -3   9  193.26    5.74
  -5   3  -9  185.17    5.61
  -5  -3  -9  190.54    5.99
  -5   3 -10  198.26    5.98
  -5  -3 -10  194.43    6.32
   5  -3  10  210.49    6.19
  -5  -3 -11    2.58    1.22
  -5   3 -11    3.75    1.24
  -5   3 -12  296.97    8.10
  -5  -3 -12  301.87    8.48
  -5   3 -13    2.04    1.27
  -5  -3 -13    4.22    1.47
  -5  -3 -14   39.09    3.11
  -5   3 -14   36.39    2.89
  -5   3 -15   10.71    2.04
  -5  -3 -15    7.13    1.74
  -5  -3 -16   14.52    2.21
  -5   3 -16   14.20    2.24
  -5  -3 -17    2.11    1.58
  -5   3 -17    0.20    1.56
  -5   3 -18    0.34    1.41
  -5  -3 -18    3.63    1.85
  -5   3 -19   39.73    3.48
  -5  -3 -19   39.02    3.58
  -5   3 -20    4.57    1.87
  -5  -3 -20    6.96    2.13
   5  -4 -25   51.30    3.77
   5   4 -24    3.21    1.67
   5  -4 -24    5.35    1.82
   5   4 -23    3.37    1.73
   5  -4 -23   -0.36    1.29
   5   4 -22   22.59    2.82
   5  -4 -22   25.18    2.44
   5   4 -21   11.85    2.24
   5  -4 -21    8.23    1.52
   5   4 -20   82.92    4.76
   5  -4 -20   83.79    4.06
   5   4 -19   48.69    3.60
   5  -4 -19   46.73    2.94
   5   4 -18   16.77    2.20
   5  -4 -18   19.45    1.95
  -5   4  18   20.40    1.91
  -5   4  18   19.84    2.47
   5   4 -17   58.43    3.61
  -5   4  17   54.85    2.86
   5  -4 -17   51.49    2.82
  -5   4  17   52.24    3.63
   5   4 -16   -0.10    1.20
   5  -4 -16    0.27    0.78
  -5   4  16   -1.33    1.31
  -5   4  16   -0.08    0.78
   5   4 -15   36.50    2.84
  -5   4  15   41.48    2.29
   5  -4 -15   39.56    2.26
  -5   4  15   40.68    3.05
   5   4 -14  111.81    4.74
  -5   4  14  117.24    3.68
   5  -4 -14  108.30    3.61
  -5   4  14  117.88    5.03
   5   4 -13  108.04    4.60
  -5   4  13  119.15    3.53
   5  -4 -13  114.78    3.53
  -5  -4  13  119.31    4.52
  -5   4  13  116.75    4.89
   5   4 -13  118.79    4.62
   5   4 -12   85.65    3.89
  -5   4  12   89.90    2.84
   5  -4 -12   89.18    2.86
  -5  -4  12   93.10    3.87
  -5   4  12   86.59    4.06
   5   4 -12   84.44    3.73
   5  -4 -11  299.22    6.28
   5   4 -11  303.21    7.71
  -5   4  11  302.11    5.81
  -5  -4  11  317.42    7.60
  -5   4  11  299.46    8.01
   5   4 -11  304.02    7.50
   5  -4 -10    0.72    0.88
  -5  -4  10    0.29    0.42
   5  -4 -10    1.60    0.59
   5   4 -10    1.30    1.06
  -5  -4  10   -0.13    0.78
  -5   4  10   -0.16    1.08
  -5   4  10    0.71    0.47
   5   4 -10   -0.04    0.72
   5  -4  -9   -0.11    0.86
  -5  -4   9   -0.67    0.54
   5  -4  -9    0.22    0.43
   5   4  -9    2.13    1.20
  -5  -4   9   -0.56    0.84
  -5  -4   9    0.79    0.82
  -5   4   9   -1.02    1.12
   5   4  -9    0.81    0.68
  -5   4   9   -0.34    0.40
   5  -4  -8    6.79    0.67
  -5  -4   8    4.81    0.77
  -5  -4   8    7.34    1.24
   5   4  -8    5.90    1.18
   5  -4  -8    5.68    1.17
  -5   4   8    5.92    0.50
   5   4  -8    6.72    1.01
  -5   4   8    3.65    1.11
  -5  -4   7  594.12   10.10
  -5  -4   7  611.35   11.42
   5   4  -7  611.30   11.46
   5  -4  -7  580.63    8.88
   5  -4  -7  630.14   12.06
   5   4  -7  591.98   10.60
  -5   4   7  601.93   11.74
  -5  -4   6   55.86    2.68
  -5  -4   6   48.21    2.13
   5  -4  -6   51.16    1.26
   5   4  -6   52.34    2.66
   5  -4  -6   53.98    2.78
   5   4  -6   49.62    2.16
  -5   4   6   49.75    2.73
  -5  -4   5  129.77    4.12
   5  -4  -5  126.05    4.30
   5   4  -5  125.28    4.13
   5   4  -5  118.23    3.36
  -5   4   5  124.48    4.32
  -5  -4   5  127.07    3.41
  -5  -4   4    3.89    0.95
   5   4  -4    4.46    0.99
   5  -4  -4    3.49    0.99
  -5  -4   4    5.35    0.75
   5   4  -4    2.81    0.58
  -5   4   4    2.81    0.99
   5  -4  -3  776.80   13.32
  -5  -4   3  761.38   13.21
   5   4  -3  740.60   13.14
   5  -4  -3  755.16   13.50
   5   4  -3  729.11   11.53
  -5   4   3  750.57   13.48
  -5  -4   3  771.62   11.61
   5  -4  -2    8.66    1.32
  -5  -4   2    9.07    1.12
   5   4  -2    9.12    1.28
  -5   4   2   11.19    1.46
   5   4  -2    8.09    0.71
  -5  -4   2    8.76    0.75
  -5   4   1  901.19   15.27
   5   4  -1  857.86   14.94
  -5  -4   1  886.90   15.09
   5  -4  -1  894.69   15.22
  -5   4   1  902.51   12.35
  -5  -4   1  889.19   12.93
   5   4   0    2.79    0.94
  -5   4   0    2.70    0.40
  -5   4   0    0.85    0.87
   5  -4   0    1.84    0.98
  -5  -4   0    3.12    0.86
  -5   4   0    3.21    0.48
  -5  -4   0    3.33    0.50
  -5   4  -1    6.17    0.60
   5   4   1    7.16    1.16
  -5  -4  -1    5.77    1.16
  -5   4  -1    7.97    1.28
   5  -4   1    5.71    1.19
  -5   4  -1    6.89    0.71
   5  -4   1    6.05    0.66
  -5  -4  -1    7.11    0.58
  -5   4  -2   60.55    1.96
   5   4   2   62.04    2.87
  -5  -4  -2   62.52    2.87
  -5   4  -2   61.66    2.90
   5  -4   2   62.44    2.97
  -5   4  -2   62.76    2.10
  -5  -4  -2   61.92    1.65
   5  -4   2   59.44    2.06
   5   4   3  142.73    4.66
  -5  -4  -3  151.12    4.66
  -5  -4  -3  141.98    2.94
   5  -4   3  144.89    4.69
  -5   4  -3  147.08    3.69
   5  -4   3  143.37    3.68
  -5  -4  -3  149.94    4.63
  -5  -4  -4   86.32    2.21
   5   4   4   81.68    3.45
  -5  -4  -4   87.25    3.56
   5  -4   4   83.71    3.53
  -5   4  -4   80.91    2.81
   5  -4   4   86.00    2.89
  -5  -4  -4   90.87    3.61
  -5  -4  -5   -0.12    0.75
   5  -4   5    0.69    0.97
  -5   4  -5   -0.26    0.70
   5  -4   5    0.31    0.68
  -5  -4  -5   -2.03    1.17
  -5  -4  -6   62.14    3.14
  -5   4  -6   53.73    2.56
   5  -4   6   53.04    2.49
  -5  -4  -6   55.76    3.01
   5  -4   6   53.44    2.89
  -5  -4  -7  121.07    4.53
   5  -4   7  113.44    4.29
  -5  -4  -7  112.63    4.38
   5  -4   7  117.82    4.02
  -5   4  -7  117.18    3.99
   5  -4   8  489.17   10.47
   5  -4   8  503.53   10.21
  -5  -4  -8  494.63   10.80
  -5   4  -8  513.79   10.22
  -5  -4  -9   31.17    2.47
   5  -4   9   32.21    2.23
  -5   4  -9   31.22    2.29
   5  -4  10  191.42    5.87
  -5  -4 -10  180.12    6.07
  -5   4 -10  179.36    5.68
  -5  -4 -11   40.63    2.99
  -5   4 -11   45.74    2.96
  -5  -4 -12  169.29    6.14
  -5   4 -12  169.80    5.89
  -5  -4 -13   47.12    3.33
  -5   4 -13   47.34    3.24
  -5  -4 -13   50.30    2.70
  -5   4 -14   27.99    2.66
  -5  -4 -14   31.48    2.87
  -5  -4 -14   31.16    2.23
  -5   4 -15   28.56    2.71
  -5  -4 -15   28.70    2.83
  -5   4 -16   27.25    2.76
  -5  -4 -16   30.53    3.04
  -5  -4 -17   71.48    4.49
  -5   4 -17   66.61    4.30
  -5   4 -18   34.78    3.45
  -5  -4 -18   32.09    3.29
  -5   4 -19   -2.00    1.75
  -5  -4 -19   -0.10    1.45
  -5  -4 -20   25.45    3.29
  -5   4 -20   29.84    3.32
   5  -5 -24    0.79    1.30
   5   5 -23   66.22    4.68
   5  -5 -23   64.83    3.92
   5   5 -22    3.01    1.90
   5  -5 -22    0.53    1.13
   5   5 -21   89.81    5.16
   5  -5 -21   85.70    4.19
   5   5 -20   50.68    3.87
   5  -5 -20   51.55    3.15
   5   5 -19  125.63    5.83
   5  -5 -19  126.73    4.79
  -5   5  19  123.51    5.94
   5   5 -18   62.04    4.03
  -5   5  18   62.38    3.21
   5  -5 -18   73.74    3.45
  -5   5  18   60.83    4.06
   5   5 -17  134.31    5.74
  -5   5  17  139.26    4.59
   5  -5 -17  131.13    4.54
  -5   5  17  127.11    5.70
   5   5 -16    2.42    1.23
   5  -5 -16    2.66    0.88
  -5   5  16    4.26    1.56
  -5   5  16    2.12    0.82
   5   5 -15  177.31    6.35
   5  -5 -15  185.97    5.03
  -5   5  15  187.60    5.01
  -5   5  15  180.85    6.61
   5   5 -14   -0.20    1.13
   5  -5 -14    0.07    0.73
  -5   5  14   -1.71    1.40
  -5   5  14   -0.75    0.65
   5   5 -13  292.32    8.05
  -5   5  13  293.79    6.09
   5  -5 -13  285.32    6.11
  -5   5  13  286.96    8.21
   5   5 -12   15.77    1.84
   5  -5 -12   13.57    1.13
  -5  -5  12   13.48    1.68
  -5   5  12   13.41    1.08
  -5   5  12   16.72    2.15
   5   5 -12   14.31    1.65
  -5  -5  11   -0.17    0.41
   5   5 -11    0.96    1.03
   5  -5 -11   -0.80    0.50
  -5  -5  11    0.48    0.86
  -5   5  11    0.71    0.51
   5   5 -11    1.62    0.93
  -5   5  11   -0.15    1.09
  -5  -5  10   25.79    1.36
   5  -5 -10   29.62    1.49
   5   5 -10   26.41    2.13
  -5  -5  10   25.96    2.11
   5   5 -10   26.10    1.91
  -5   5  10   29.25    1.24
  -5   5  10   25.80    2.25
  -5  -5   9  602.49   10.02
   5  -5  -9  590.78    9.52
  -5  -5   9  638.15   12.17
   5   5  -9  610.93   12.12
   5   5  -9  593.65   11.27
  -5   5   9  611.40   12.40
   5  -5  -9  631.70   12.51
  -5  -5   8    2.40    0.60
   5  -5  -8    2.94    0.48
   5   5  -8    3.70    1.14
  -5  -5   8    2.92    0.89
   5  -5  -8    1.43    0.87
   5   5  -8    4.21    0.91
  -5   5   8    2.57    1.10
  -5  -5   7   69.72    3.18
   5   5  -7   61.12    3.08
   5  -5  -7   61.38    1.49
   5  -5  -7   62.48    3.16
   5  -5  -7   63.83    1.49
  -5   5   7   61.79    3.18
   5   5  -7   59.58    2.50
  -5  -5   6  119.33    4.20
   5   5  -6  117.10    4.16
   5  -5  -6  123.34    4.41
  -5   5   6  115.54    4.32
   5   5  -6  114.79    3.40
  -5  -5   5  501.18   10.09
   5  -5  -5  518.72   10.47
   5   5  -5  487.59   10.02
  -5   5   5  512.71   10.37
   5   5  -5  480.69    8.58
  -5  -5   4    2.12    0.86
  -5   5   4    0.32    1.09
   5   5  -4    0.52    0.93
   5  -5  -4    0.93    0.79
   5   5  -4    2.34    0.53
  -5  -5   3  489.15    9.79
   5   5  -3  483.83    9.80
   5  -5  -3  494.90   10.03
  -5   5   3  486.82   10.01
   5   5  -3  473.45    7.83
  -5  -5   2    9.07    1.22
   5   5  -2    9.55    1.37
  -5   5   2    8.80    1.30
   5   5  -2    9.33    0.68
  -5  -5   1   55.84    2.72
  -5   5   1   55.04    2.83
   5   5  -1   53.97    2.79
   5   5   0   14.90    1.57
  -5   5   0   15.42    0.63
  -5   5   0   15.37    1.66
  -5   5   0   16.87    0.65
  -5  -5   0   18.65    1.64
   5  -5   0   15.41    1.63
  -5   5   0   16.93    0.85
   5  -5   0   16.55    0.83
  -5  -5   0   13.87    0.60
  -5   5  -1  489.79    7.41
   5   5   1  483.65    9.84
  -5  -5  -1  499.32    9.98
  -5   5  -1  497.43   10.05
   5  -5   1  492.07    9.93
   5  -5   1  470.67    7.73
  -5   5  -1  485.14    7.76
  -5  -5  -1  467.59    6.72
  -5  -5  -2    4.11    1.05
   5   5   2    3.37    1.06
  -5   5  -2    2.14    1.01
   5  -5   2    4.38    1.17
  -5   5  -2    4.51    0.73
   5  -5   2    3.91    0.63
   5   5   3  154.14    4.92
  -5  -5  -3  160.02    5.03
   5  -5   3  146.40    4.85
   5  -5   3  153.35    3.78
  -5   5  -3  156.55    3.81
  -5  -5  -3  145.92    2.56
  -5  -5  -4    0.54    0.79
   5   5   4   -0.32    1.02
  -5  -5  -4    0.48    0.30
   5  -5   4   -0.31    0.94
  -5   5  -4    0.55    0.66
   5  -5   4    0.67    0.55
  -5  -5  -4   -0.07    0.96
   5   5   5   60.11    3.07
  -5  -5  -5   62.76    3.16
   5  -5   5   55.25    3.00
  -5   5  -5   62.84    2.58
   5  -5   5   61.11    2.53
  -5  -5  -5   61.17    3.13
  -5  -5  -6   23.16    2.02
   5  -5   6   24.59    2.08
  -5   5  -6   21.38    1.67
   5  -5   6   19.87    1.59
  -5  -5  -6   24.56    2.13
   5  -5   7  313.01    7.76
  -5  -5  -7  305.09    7.93
  -5   5  -7  312.03    7.13
   5  -5   7  298.23    7.10
   5  -5   8  308.01    7.78
  -5  -5  -8  316.84    8.21
  -5   5  -8  309.63    7.36
   5  -5   8  310.43    7.44
   5  -5   9  174.78    5.69
  -5  -5  -9  178.08    6.02
  -5   5  -9  183.47    5.56
   5  -5   9  194.22    5.73
  -5  -5  -9  188.88    4.49
  -5   5 -10   14.71    1.74
  -5  -5 -10   16.29    1.98
   5  -5  10   14.93    1.76
  -5  -5 -10   14.27    1.25
  -5   5 -11  196.35    6.21
  -5  -5 -11  193.98    6.63
  -5  -5 -11  205.58    5.18
  -5  -5 -12  253.71    7.86
  -5   5 -12  248.87    7.35
  -5  -5 -12  265.14    6.29
  -5   5 -13    6.45    1.59
  -5  -5 -13    5.17    1.52
  -5  -5 -13    5.33    1.04
  -5   5 -14   -0.67    1.38
  -5  -5 -14   -0.06    1.43
  -5  -5 -14    1.87    0.89
  -5  -5 -15  150.35    6.37
  -5   5 -15  152.15    6.09
  -5  -5 -16   -0.59    1.52
  -5   5 -16   -0.61    1.48
  -5  -5 -17   13.26    2.41
  -5   5 -17   15.33    2.33
  -5  -5 -18    7.05    1.92
  -5   5 -18    6.67    2.04
  -5  -5 -19  172.09    7.51
  -5   5 -19  172.24    7.31
  -5   5 -20    1.49    1.66
   5   6 -23    0.88    1.57
   5   6 -22    3.21    1.68
   5  -6 -22    4.90    1.56
   5   6 -21   16.93    2.52
   5  -6 -21   13.26    1.80
   5   6 -20    0.55    1.47
   5  -6 -20    0.87    0.99
  -5   6  20    3.43    1.73
   5   6 -19    1.02    1.50
   5  -6 -19    0.58    0.93
  -5   6  19    1.12    1.53
   5   6 -18    4.26    1.65
   5  -6 -18    1.55    0.92
  -5   6  18    2.71    1.56
   5   6 -17   27.61    2.83
   5  -6 -17   25.51    1.99
  -5   6  17   27.51    2.83
  -5   6  17   30.52    2.10
   5   6 -16  120.95    5.42
   5  -6 -16  127.68    4.20
  -5   6  16  126.71    4.12
  -5   6  16  122.96    5.59
   5   6 -15    3.36    1.45
   5  -6 -15    3.21    0.84
  -5   6  15    4.81    1.70
  -5   6  15    3.40    0.87
   5   6 -14   42.05    3.11
   5  -6 -14   42.24    2.12
  -5   6  14   41.54    3.16
  -5   6  14   40.95    2.06
   5   6 -13   39.60    2.92
   5  -6 -13   30.90    1.71
  -5   6  13   32.02    2.83
  -5   6  13   33.36    1.73
  -5  -6  12  233.86    4.48
   5   6 -12  232.40    7.10
   5  -6 -12  229.17    4.93
   5   6 -12  233.66    6.60
  -5   6  12  226.95    7.15
  -5  -6  11  106.41    2.87
   5   6 -11  107.59    4.51
   5  -6 -11  106.23    2.79
   5   6 -11  106.40    4.06
  -5   6  11  106.51    4.65
   5   6 -10  173.55    5.89
  -5  -6  10  180.37    4.17
  -5  -6  10  196.70    5.90
   5  -6 -10  179.58    3.59
   5   6 -10  175.41    5.20
  -5   6  10  184.58    6.11
   5   6  -9    1.72    0.95
  -5  -6   9    0.91    0.82
   5  -6  -9    1.86    0.42
  -5   6   9    2.84    1.18
   5   6  -9    0.40    0.66
  -5  -6   8   40.21    2.60
   5  -6  -8   40.93    1.31
   5   6  -8   43.19    2.74
   5  -6  -8   40.13    1.28
   5  -6  -8   36.25    2.59
   5   6  -8   39.41    2.10
  -5   6   8   47.45    2.95
  -5  -6   7  125.50    4.49
   5   6  -7  114.53    4.38
   5  -6  -7  117.75    4.49
  -5   6   7  109.98    4.34
   5   6  -7  112.72    3.53
  -5  -6   6   79.92    3.53
   5  -6  -6   81.38    3.70
   5   6  -6   84.51    3.65
  -5   6   6   82.26    3.68
   5   6  -6   84.42    2.82
  -5  -6   5  315.80    7.61
   5   6  -5  300.12    7.47
   5  -6  -5  311.58    7.72
   5   6  -5  294.68    5.91
  -5   6   5  323.37    7.79
  -5  -6   4   94.87    3.76
   5   6  -4   91.16    3.75
   5  -6  -4   87.44    3.72
   5   6  -4   84.23    2.46
  -5   6   4   95.84    3.87
  -5  -6   3  321.87    7.63
   5   6  -3  304.00    7.48
   5   6  -3  303.40    5.34
  -5   6   3  309.52    7.65
  -5  -6   2   76.43    3.36
   5   6  -2   65.62    3.15
   5   6  -2   71.84    1.75
  -5   6   2   69.10    3.29
  -5  -6   1  982.33   16.49
   5   6  -1  938.32   16.32
  -5   6   1  943.09   16.38
   5  -6  -1  918.01   12.65
  -5  -6   0   40.53    2.48
   5   6   0   44.70    2.59
  -5   6   0   46.41    2.69
   5  -6   0   42.32    1.38
  -5  -6  -1   24.61    2.02
  -5   6  -1   23.46    1.99
   5   6   1   22.63    1.97
   5  -6   1   24.07    1.17
   5  -6   1   22.72    2.01
  -5   6  -1   23.28    0.95
  -5  -6  -2  164.09    5.24
   5   6   2  153.28    5.08
  -5   6  -2  159.58    5.19
  -5   6  -2  158.84    3.70
   5  -6   2  156.37    3.67
  -5   6  -2  160.79    3.39
   5  -6   2  151.95    5.02
   5   6   3  663.24   13.01
  -5  -6  -3  707.76   13.27
  -5   6  -3  689.29   13.18
  -5   6  -3  678.91   11.12
   5  -6   3  664.13   11.07
   5  -6   3  680.53   12.97
   5   6   4  119.54    4.55
  -5  -6  -4  125.64    4.60
   5  -6   4  118.55    4.45
  -5   6  -4  127.72    3.63
   5  -6   4  118.86    3.52
  -5  -6  -5    3.09    1.06
   5   6   5    4.82    1.06
  -5  -6  -5    5.06    0.35
   5  -6   5    6.06    1.35
   5  -6   5    5.40    0.95
  -5   6  -5    3.87    0.88
  -5  -6  -5    5.14    0.38
  -5  -6  -5    3.59    1.12
   5  -6   6    9.54    1.51
   5  -6   6   11.07    1.23
  -5   6  -6    7.24    1.06
  -5  -6  -6    8.69    0.62
  -5  -6  -6   10.15    1.65
   5  -6   7  701.20   13.59
   5  -6   7  688.34   12.71
  -5   6  -7  706.11   12.72
  -5  -6  -7  690.92   13.88
  -5  -6  -7  702.64   10.58
   5  -6   8   22.76    2.08
   5  -6   8   19.99    1.82
  -5   6  -8   21.48    1.85
  -5  -6  -8   21.27    2.22
  -5  -6  -8   21.40    1.19
   5  -6   9   47.19    2.93
   5  -6   9   44.09    2.64
  -5  -6  -9   47.73    3.21
  -5   6  -9   46.07    2.73
  -5  -6  -9   50.20    2.00
   5  -6  10   -0.47    1.03
  -5   6 -10   -0.53    1.06
   5  -6  10   -0.93    1.05
  -5  -6 -10   -0.33    0.60
  -5  -6 -10    0.23    1.27
   5  -6  11   13.56    1.79
  -5   6 -11   16.40    1.90
  -5  -6 -11   15.43    2.07
  -5  -6 -11   16.21    1.34
  -5  -6 -12   -0.19    1.28
  -5   6 -12   -0.01    1.06
  -5  -6 -12    0.63    0.71
  -5  -6 -13   11.40    1.93
  -5   6 -13   14.07    1.95
  -5  -6 -13   13.65    1.45
  -5  -6 -14   16.03    2.36
  -5   6 -14   17.79    2.18
  -5  -6 -14   12.89    1.43
  -5  -6 -15   58.29    4.01
  -5   6 -15   62.61    3.87
  -5  -6 -16   21.79    2.79
  -5   6 -16   15.51    2.33
  -5   6 -17   43.70    3.61
  -5  -6 -17   50.72    3.97
  -5  -6 -18    9.12    2.24
  -5   6 -18    5.96    1.80
  -5  -6 -19    3.07    1.71
  -5   6 -19    5.09    1.80
  -5   6 -20    7.90    2.16
   5   7 -22   10.50    2.32
   5   7 -21   13.91    2.49
   5  -7 -21   13.42    1.86
  -5   7  21   15.34    2.49
   5   7 -20   97.39    5.50
   5  -7 -20   98.10    4.29
  -5   7  20  100.49    5.55
   5   7 -19   37.14    3.34
   5  -7 -19   40.98    2.74
  -5   7  19   36.92    3.40
   5   7 -18   17.28    2.33
   5  -7 -18   17.14    1.73
  -5   7  18   17.37    2.52
   5   7 -17   12.92    2.10
   5  -7 -17   12.42    1.43
  -5   7  17   10.77    2.11
   5   7 -16   48.41    3.59
   5  -7 -16   43.06    2.38
  -5   7  16   44.44    3.30
   5   7 -15    4.28    1.41
   5  -7 -15    3.99    0.84
  -5   7  15    4.60    1.44
   5   7 -14   30.25    2.71
   5  -7 -14   26.80    1.70
  -5   7  14   28.42    2.72
   5  -7 -13    3.37    0.92
  -5  -7  13    2.20    0.48
   5   7 -13    1.01    1.26
   5  -7 -13    2.97    0.66
  -5   7  13    0.76    1.19
   5  -7 -12    0.81    0.56
  -5  -7  12    0.80    0.50
   5   7 -12    0.87    1.18
   5  -7 -12    0.26    0.50
   5   7 -12    0.37    0.81
  -5   7  12   -0.10    1.25
   5  -7 -11   23.95    1.40
   5   7 -11   28.41    2.45
   5  -7 -11   26.19    1.29
   5   7 -11   27.00    2.08
  -5   7  11   27.69    2.52
   5  -7 -10   45.62    1.76
   5   7 -10   48.03    3.09
   5  -7 -10   47.53    1.53
   5   7 -10   47.72    2.57
  -5   7  10   42.23    3.00
   5  -7  -9   29.15    1.24
   5   7  -9   28.37    2.43
   5  -7  -9   28.00    0.96
   5   7  -9   27.44    1.84
  -5   7   9   27.84    2.37
   5   7  -8    0.60    1.10
   5  -7  -8    1.26    0.34
   5   7  -8    0.99    0.72
  -5   7   8    0.03    1.14
  -5  -7   7   35.56    2.47
   5   7  -7   37.42    2.58
  -5   7   7   36.19    2.64
   5   7  -7   31.54    1.79
  -5  -7   6    0.70    0.83
   5   7  -6    1.18    1.21
   5  -7  -6    1.63    0.94
  -5   7   6    0.42    1.14
   5   7  -6    1.18    0.57
  -5  -7   5   74.86    3.52
   5   7  -5   70.98    3.51
   5  -7  -5   74.80    3.53
  -5   7   5   68.86    3.45
   5   7  -5   68.89    2.33
  -5  -7   4  574.77   11.43
   5   7  -4  550.07   11.34
  -5   7   4  551.98   11.39
   5   7  -4  521.19    8.67
  -5  -7   3  478.91   10.12
   5   7  -3  447.82    9.94
   5   7  -3  444.80    7.10
  -5   7   3  448.00    9.97
   5   7  -2   69.59    3.37
  -5   7   2   64.27    3.27
   5   7  -2   65.20    1.48
  -5  -7   2   77.22    3.51
  -5   7   1  121.98    4.57
   5   7  -1  121.54    4.55
   5  -7  -1  127.14    2.41
  -5  -7   1  129.68    4.66
  -5  -7   0  285.57    7.32
  -5   7   0  278.46    7.32
   5   7   0  267.65    7.15
   5  -7   0  268.40    4.76
  -5  -7  -1  212.96    6.24
  -5   7  -1  206.11    6.24
   5   7   1  206.12    6.24
   5  -7   1  218.79    4.36
  -5   7  -1  221.40    3.89
   5   7   2   52.92    3.01
  -5  -7  -2   52.69    3.01
  -5   7  -2   50.36    2.95
   5  -7   2   52.60    1.97
  -5   7  -2   52.46    1.73
   5   7   3   -0.86    1.14
  -5  -7  -3    2.05    1.01
  -5   7  -3    1.03    1.02
   5  -7   3    1.01    0.50
   5  -7   3    2.30    1.15
  -5   7  -3    0.77    0.49
   5   7   4  261.50    7.36
  -5   7  -4  283.90    5.70
   5  -7   4  265.00    7.19
   5  -7   4  267.73    5.95
  -5   7  -4  279.76    6.02
   5   7   5  158.57    5.53
   5  -7   5  159.75    5.37
  -5   7  -5  168.37    4.58
   5  -7   5  165.49    4.55
  -5  -7  -5  165.81    5.60
   5   7   6   43.96    2.96
   5  -7   6   45.02    2.85
   5  -7   6   44.20    2.36
  -5   7  -6   46.57    2.41
  -5  -7  -6   48.88    3.03
   5  -7   7   11.85    1.73
   5  -7   7   12.59    1.44
  -5   7  -7   10.12    1.34
  -5  -7  -7    8.78    1.72
  -5  -7  -7   11.97    0.66
   5  -7   8   78.31    3.86
   5  -7   8   81.62    3.50
  -5   7  -8   82.24    3.54
  -5  -7  -8   84.87    4.14
  -5  -7  -8   85.46    2.22
   5  -7   9  446.04   10.36
   5  -7   9  454.00   10.02
  -5   7  -9  458.01   10.02
  -5  -7  -9  441.65   10.86
  -5  -7  -9  469.99    7.81
   5  -7  10  205.31    6.51
  -5   7 -10  211.30    6.39
  -5  -7 -10  214.43    7.10
  -5  -7 -10  221.02    4.77
   5  -7  11   72.40    3.71
  -5  -7 -11   76.24    4.21
  -5   7 -11   73.50    3.73
  -5  -7 -11   73.43    2.65
   5  -7  12    2.13    1.14
  -5  -7 -12    3.23    1.64
  -5   7 -12    1.37    1.21
  -5  -7 -12    1.70    0.74
  -5   7 -13   78.89    4.12
  -5  -7 -13   76.30    4.38
  -5  -7 -14    1.97    1.55
  -5   7 -14    8.57    1.78
  -5  -7 -15  132.43    6.13
  -5   7 -15  139.32    5.93
  -5  -7 -16    7.29    2.01
  -5   7 -16    5.80    1.67
  -5  -7 -17   40.70    3.63
  -5   7 -17   43.42    3.57
  -5  -7 -18   11.45    2.33
  -5   7 -18   13.95    2.41
  -5   7 -19   67.17    4.68
   5   8 -21   -1.63    1.86
  -5   8  21   -1.62    1.77
   5   8 -20   46.09    3.95
  -5   8  20   37.19    3.62
   5   8 -19   48.77    3.95
   5  -8 -19   47.81    2.86
  -5   8  19   44.36    3.71
   5   8 -18    1.15    1.81
   5  -8 -18    0.94    0.89
  -5   8  18    2.47    1.76
   5   8 -17    1.28    1.59
   5  -8 -17    1.70    0.84
  -5   8  17    3.23    1.62
   5   8 -16  316.91    9.64
   5  -8 -16  318.30    7.27
  -5   8  16  328.87    9.84
   5  -8 -15   22.09    1.77
   5   8 -15   19.57    2.55
   5  -8 -15   23.14    1.66
  -5   8  15   21.70    2.52
   5  -8 -14    3.48    0.89
  -5  -8  14    2.39    0.47
   5   8 -14    0.66    1.32
   5  -8 -14    1.94    0.66
  -5   8  14    0.99    1.32
   5  -8 -13    0.73    0.62
  -5  -8  13    2.18    0.62
   5   8 -13    3.36    1.53
   5  -8 -13    2.29    0.71
  -5   8  13    1.15    1.21
   5  -8 -12  440.58    8.19
   5   8 -12  449.34   11.01
   5  -8 -12  426.52    7.68
   5   8 -12  433.06    9.79
  -5   8  12  442.10   10.89
   5  -8 -11  777.34   12.39
   5   8 -11  779.52   15.78
   5  -8 -11  774.44   11.84
   5   8 -11  777.64   14.33
  -5   8  11  779.92   15.77
   5  -8 -10  254.64    5.00
   5   8 -10  254.51    7.62
   5  -8 -10  248.75    4.52
   5   8 -10  250.50    6.48
  -5   8  10  260.78    7.73
   5  -8  -9   12.36    0.83
   5   8  -9   11.09    1.81
   5  -8  -9   10.79    0.61
   5   8  -9   12.25    1.30
  -5   8   9   10.46    1.62
   5   8  -8   97.86    4.39
   5  -8  -8  100.04    2.13
  -5   8   8   95.36    4.33
   5   8  -8   94.68    3.38
   5   8  -7  253.68    7.40
   5   8  -7  259.47    5.86
  -5   8   7  260.96    7.49
   5   8  -6  391.82    9.39
   5   8  -6  369.87    7.22
  -5   8   6  387.29    9.32
   5   8  -5    2.86    1.21
  -5   8   5    1.51    1.07
   5   8  -5    0.56    0.43
   5   8  -4  115.82    4.64
  -5   8   4  124.75    4.78
   5   8  -4  118.99    2.90
  -5  -8   3   73.38    3.56
   5   8  -3   72.88    3.58
   5   8  -3   66.42    1.77
  -5   8   3   68.75    3.51
   5   8  -2  148.13    5.26
  -5   8   2  156.91    5.33
   5  -8  -2  148.73    2.55
  -5  -8   2  154.10    5.34
  -5   8   1  200.82    6.16
   5   8  -1  191.47    6.09
   5  -8  -1  197.27    3.60
  -5  -8   1  198.36    6.16
  -5   8   0   81.94    1.68
  -5   8   0   83.67    3.84
   5   8   0   80.54    3.83
   5  -8   0   80.25    2.20
   5   8   1    5.74    1.33
  -5   8  -1    7.04    1.50
   5  -8   1    6.29    0.74
  -5   8  -1    6.05    0.60
   5   8   2  171.26    5.78
  -5   8  -2  176.32    5.87
   5  -8   2  172.17    4.13
  -5   8  -2  182.28    3.78
   5   8   3    0.41    1.08
  -5   8  -3    2.25    1.30
   5  -8   3    1.46    0.63
  -5   8  -3    0.65    0.51
   5   8   4  272.10    7.68
   5  -8   4  273.25    6.15
   5  -8   4  281.36    7.56
  -5   8  -4  280.18    5.79
   5   8   5   16.40    2.06
   5  -8   5   16.44    1.86
  -5   8  -5   17.62    1.37
   5  -8   5   17.30    1.50
   5   8   6    7.54    1.52
   5  -8   6    7.39    1.48
  -5   8  -6    7.73    1.11
  -5   8  -6    7.48    1.18
   5  -8   6    8.20    1.18
  -5  -8  -6    8.80    1.69
   5  -8   7   12.84    1.81
  -5   8  -7   10.64    1.33
  -5   8  -7   13.90    1.56
   5  -8   7   10.28    1.27
  -5  -8  -7   12.52    1.87
   5  -8   8  218.62    6.80
  -5   8  -8  231.13    6.32
   5  -8   8  232.84    6.42
  -5  -8  -8  236.29    3.88
  -5  -8  -8  210.85    7.06
   5  -8   9   19.39    2.16
  -5   8  -9   23.22    2.13
   5  -8   9   21.02    1.95
  -5  -8  -9   22.00    1.08
  -5  -8  -9   21.41    2.33
   5  -8  10   43.94    2.97
  -5  -8 -10   41.56    3.17
  -5   8 -10   40.26    2.82
  -5  -8 -10   42.91    1.71
   5  -8  11   17.24    2.02
  -5   8 -11   21.48    2.28
  -5  -8 -11   18.45    2.33
  -5  -8 -11   17.98    1.25
   5  -8  12   85.95    4.19
  -5  -8 -12   82.57    5.16
  -5   8 -12   84.42    4.21
   5  -8  13    4.97    1.26
  -5  -8 -13    3.12    1.42
  -5   8 -13    4.25    1.41
  -5   8 -14   58.20    3.80
  -5  -8 -14   60.01    4.13
  -5  -8 -15   52.51    3.93
  -5   8 -15   57.54    3.87
  -5  -8 -16  202.62    7.95
  -5   8 -16  197.55    7.45
  -5  -8 -17  187.10    7.78
  -5   8 -17  178.56    7.29
  -5   8 -18   13.22    2.39
  -5  -8 -18   15.39    2.61
  -5   8 -19    1.79    1.57
  -5   9  21    2.30    1.59
   5   9 -20    2.78    1.54
  -5   9  20    3.16    1.77
   5   9 -19   10.56    2.25
  -5   9  19    7.88    2.02
   5   9 -18   75.01    4.74
  -5   9  18   59.93    4.34
   5   9 -17    1.77    1.41
   5  -9 -17   -0.26    0.81
  -5   9  17   -0.65    1.62
   5   9 -16   23.78    2.75
   5  -9 -16   20.88    1.64
  -5   9  16   18.28    2.49
   5   9 -15   14.29    2.33
   5  -9 -15   19.76    1.52
  -5   9  15   18.61    2.41
   5  -9 -14   50.31    2.48
   5   9 -14   48.56    3.73
   5  -9 -14   49.15    2.23
  -5   9  14   47.48    3.49
   5  -9 -13  107.03    3.50
   5   9 -13  112.14    5.19
   5  -9 -13  107.76    3.26
  -5   9  13  106.98    5.10
   5  -9 -12  247.09    5.50
   5   9 -12  256.68    8.09
   5  -9 -12  240.45    5.10
  -5   9  12  239.11    7.77
   5   9 -12  240.77    6.86
   5  -9 -11    8.02    0.91
   5   9 -11    6.17    1.65
   5  -9 -11    8.00    0.81
  -5   9  11    7.62    1.72
   5   9 -11    7.96    1.37
   5  -9 -10    4.87    0.70
   5   9 -10    0.89    1.34
   5  -9 -10    4.43    0.60
   5   9 -10    5.32    1.14
  -5   9  10    6.05    1.66
   5  -9  -9  615.17    9.44
   5   9  -9  613.98   13.38
   5  -9  -9  606.86    8.96
   5   9  -9  600.38   11.38
  -5   9   9  598.02   13.14
   5   9  -8   68.25    3.83
   5  -9  -8   70.59    1.73
   5  -9  -8   63.52    1.42
   5   9  -8   67.94    2.83
  -5   9   8   69.46    3.78
   5   9  -7   -0.24    1.25
   5   9  -7    0.76    0.64
  -5   9   7    0.35    1.15
   5   9  -6   87.94    4.28
   5   9  -6   92.79    2.96
  -5   9   6   98.16    4.43
   5   9  -5   32.06    2.61
  -5   9   5   37.09    2.76
   5   9  -5   33.90    1.57
   5   9  -4  343.84    8.83
   5   9  -4  332.01    5.92
  -5   9   4  351.69    8.84
   5   9  -3   83.52    3.98
   5  -9  -3   81.88    1.68
  -5   9   3   86.54    4.10
   5   9  -3   85.58    1.98
   5   9  -2   24.13    2.17
  -5   9   2   24.40    2.23
   5  -9  -2   23.55    0.95
  -5   9   1   84.31    3.98
   5   9  -1   82.43    3.99
   5  -9  -1   84.04    2.18
  -5   9   0  590.04    8.57
  -5   9   0  570.05   12.36
   5   9   0  579.36   12.46
   5  -9   0  583.61    9.35
   5   9   1    9.29    1.67
  -5   9  -1    5.99    1.48
   5  -9   1    7.29    0.83
  -5   9  -1    7.30    0.68
   5   9   2  500.17   11.41
  -5   9  -2  528.98   11.64
   5  -9   2  515.89    9.03
  -5   9  -2  509.79    8.46
   5   9   3  134.96    5.29
  -5   9  -3  146.46    5.52
   5  -9   3  144.55    4.04
  -5   9  -3  152.62    3.73
   5   9   4  549.63   12.35
  -5   9  -4  562.00   12.41
   5  -9   4  556.18   10.29
  -5   9  -4  575.60    9.90
   5   9   5  129.71    5.29
   5  -9   5  129.68    5.05
  -5   9  -5  130.47    3.81
   5  -9   5  126.74    4.11
   5   9   6  234.28    7.42
  -5   9  -6  251.91    5.96
   5  -9   6  240.36    7.17
   5  -9   6  239.65    6.21
  -5  -9  -6  242.03    7.50
   5  -9   7    1.76    1.19
  -5   9  -7    3.33    0.91
   5  -9   7    3.71    0.99
  -5  -9  -7    3.87    1.46
  -5   9  -8  110.48    4.01
   5  -9   8  108.83    4.73
   5  -9   8  104.95    4.15
  -5  -9  -8   96.55    4.71
  -5   9  -9  328.59    7.85
   5  -9   9  323.69    8.68
  -5  -9  -9  319.12    5.00
  -5  -9  -9  314.19    9.12
  -5   9 -10  753.46   14.22
   5  -9  10  729.59   14.99
  -5  -9 -10  724.24   15.74
  -5   9 -10  750.46   14.60
   5  -9  11   80.54    4.10
  -5   9 -11   77.22    3.83
  -5  -9 -11   75.85    4.39
  -5   9 -11   84.67    4.14
   5  -9  12    7.28    1.68
  -5   9 -12    4.31    1.31
  -5   9 -12    6.39    1.64
  -5  -9 -12    5.60    1.86
   5  -9  13   77.40    4.11
  -5   9 -13   78.34    4.12
  -5  -9 -13   82.85    4.79
  -5   9 -13   82.88    4.36
  -5   9 -14  148.18    5.98
   5  -9  14  146.66    5.74
  -5   9 -14  144.72    6.02
  -5  -9 -14  168.79    6.96
  -5   9 -15   -0.62    1.30
  -5   9 -15    1.24    1.46
  -5  -9 -15    2.09    1.62
  -5   9 -16   44.50    3.43
  -5  -9 -16   44.70    3.88
  -5   9 -16   42.61    3.49
  -5   9 -17    1.04    1.43
  -5  -9 -17    1.63    1.71
  -5   9 -17    2.94    1.48
  -5   9 -18   23.97    2.91
  -5   9 -18   35.05    3.45
  -5   9 -19    3.02    1.56
  -5   9 -19    7.91    2.16
   5  10 -20   28.62    3.26
  -5  10  20   23.92    2.93
   5  10 -19    7.46    1.77
  -5  10  19   11.29    2.24
   5  10 -18    3.33    1.90
  -5  10  18    3.73    1.77
   5  10 -17   21.66    2.86
  -5  10  17   18.98    2.75
   5  10 -16  129.11    6.17
  -5  10  16  122.26    5.92
   5  10 -15   25.62    2.78
   5 -10 -15   27.25    1.82
  -5  10  15   26.44    2.79
   5  10 -14    0.65    1.40
   5 -10 -14    1.20    0.67
  -5  10  14    2.11    1.45
   5  10 -13   57.20    3.93
   5 -10 -13   62.98    2.41
  -5  10  13   60.57    3.96
   5 -10 -12   28.87    1.69
   5  10 -12   31.25    2.94
   5 -10 -12   30.02    1.54
  -5  10  12   30.10    2.86
   5 -10 -11   37.08    1.77
   5  10 -11   40.14    3.19
   5 -10 -11   38.72    1.61
  -5  10  11   40.25    3.16
   5  10 -11   37.66    2.50
   5 -10 -10    6.00    0.73
   5  10 -10    5.70    1.59
   5 -10 -10    4.94    0.62
   5  10 -10    5.88    1.15
  -5  10  10    6.97    1.71
   5  10  -9   68.95    4.03
   5 -10  -9   66.16    2.01
   5 -10  -9   69.43    1.85
   5  10  -9   63.45    2.92
  -5  10   9   70.10    3.90
   5  10  -8   64.21    3.80
   5 -10  -8   62.04    1.71
   5 -10  -8   62.12    1.58
  -5  10   8   64.83    3.82
   5  10  -8   57.43    2.62
   5 -10  -7    7.84    0.47
   5  10  -7   14.26    2.01
   5 -10  -7    8.70    0.52
   5 -10  -7    8.18    0.48
   5  10  -7    9.63    1.09
  -5  10   7    9.47    1.66
   5  10  -6  525.95   11.80
   5 -10  -6  474.31    6.95
   5 -10  -6  478.53    6.92
   5  10  -6  498.16    8.79
  -5  10   6  518.83   11.63
   5  10  -5    0.66    1.19
   5 -10  -5    1.33    0.29
   5 -10  -5    1.09    0.24
  -5  10   5    1.14    1.17
   5  10  -5    2.19    0.55
   5  10  -4   27.39    2.51
  -5  10   4   28.40    2.52
   5 -10  -4   27.12    0.96
   5 -10  -4   24.65    0.92
   5  10  -4   24.78    1.20
  -5  10   3    4.80    1.48
   5  10  -3    8.80    1.70
   5 -10  -3    7.59    0.59
   5  10  -3    6.29    0.51
   5  10  -2  153.98    5.71
   5 -10  -2  148.60    3.20
  -5  10   2  149.33    5.58
  -5  10   1   56.60    3.34
  -5  10   1   60.09    1.47
   5  10  -1   60.32    3.52
   5 -10  -1   57.25    1.93
   5  10   0   -0.28    1.29
  -5  10   0    2.41    0.44
  -5  10   0    1.45    1.07
   5 -10   0    2.70    0.62
   5  10   1   36.50    2.80
  -5  10  -1   41.87    1.59
  -5  10  -1   43.28    3.04
   5 -10   1   39.58    1.84
   5  10   2  415.17   10.35
  -5  10  -2  423.97   10.38
  -5  10  -2  427.43    7.43
   5 -10   2  408.63    7.93
   5  10   3  338.72    9.24
  -5  10  -3  338.49    9.19
   5 -10   3  344.76    7.22
  -5  10  -3  359.57    6.81
   5  10   4  175.46    6.35
  -5  10  -4  172.86    6.26
   5 -10   4  176.44    4.87
  -5  10  -4  186.53    4.61
   5  10   5   -1.03    1.27
  -5  10  -5    1.07    0.72
   5 -10   5    0.24    0.73
   5  10   6  236.49    7.65
   5 -10   6  228.56    7.17
  -5  10  -6  244.38    5.97
   5 -10   6  228.04    6.17
  -5 -10  -6  235.00    7.57
   5  10   7  132.74    5.63
  -5  10  -7  131.79    4.31
   5 -10   7  124.86    5.13
   5 -10   7  124.33    4.49
  -5 -10  -7  124.59    5.40
  -5  10  -8  320.79    7.68
   5 -10   8  316.13    8.73
   5 -10   8  325.38    8.10
  -5 -10  -8  320.25    9.26
  -5  10  -9   78.42    3.56
   5 -10   9   71.40    3.93
  -5 -10  -9   76.49    4.42
   5 -10  10   29.72    2.68
  -5  10 -10   30.44    2.34
  -5 -10 -10   26.75    2.78
   5 -10  11  174.26    6.36
  -5  10 -11  178.50    5.98
  -5 -10 -11  176.07    6.97
   5 -10  12  163.50    6.19
  -5  10 -12  174.74    6.10
  -5 -10 -12  169.53    6.98
   5 -10  13   12.46    1.94
  -5  10 -13   13.07    1.94
  -5 -10 -13   12.56    2.32
   5 -10  14    1.20    1.34
  -5  10 -14    1.42    1.24
  -5 -10 -14    1.27    1.65
   5 -10  15    2.43    1.43
  -5  10 -15    2.45    1.46
  -5 -10 -15    2.31    2.00
  -5  10 -16   97.04    5.15
  -5 -10 -16  100.94    5.71
  -5  10 -17    6.68    1.72
  -5  10 -18    3.52    1.62
  -5  10 -19    2.33    1.87
  -5  11  19   24.67    3.08
   5  11 -18  120.97    6.39
  -5  11  18  107.20    5.82
   5  11 -17   21.40    2.78
  -5  11  17   24.16    2.94
   5  11 -16   15.71    2.61
  -5  11  16   12.86    2.37
   5  11 -15    0.67    1.59
  -5  11  15    2.94    1.66
   5  11 -14  136.20    6.33
  -5  11  14  126.11    5.97
   5  11 -13    9.42    1.99
  -5  11  13    8.42    1.89
   5  11 -12  131.96    6.03
   5 -11 -12  131.76    3.55
  -5  11  12  127.90    5.80
   5  11 -11    2.39    1.60
   5 -11 -11    5.27    0.72
   5  11 -11    3.90    1.11
  -5  11  11    5.26    1.59
   5  11 -10  245.74    8.18
   5 -11 -10  244.73    4.78
  -5  11  10  243.89    7.95
   5  11 -10  228.35    6.33
   5  11  -9   41.65    3.36
   5 -11  -9   42.94    1.65
   5 -11  -9   43.69    1.55
  -5  11   9   41.32    3.15
   5  11  -9   42.34    2.43
   5  11  -8   90.42    4.61
   5 -11  -8   81.69    2.15
   5 -11  -8   85.11    2.15
  -5  11   8   80.85    4.32
   5  11  -8   80.86    3.16
   5  11  -7    0.11    1.17
   5 -11  -7    1.76    0.38
   5 -11  -7    0.52    0.34
   5  11  -7    1.43    0.66
  -5  11   7    0.82    1.27
   5  11  -6  169.43    6.34
   5 -11  -6  156.05    3.12
   5 -11  -6  161.17    3.12
   5  11  -6  156.33    4.09
  -5  11   6  157.29    5.96
   5  11  -5  137.07    5.59
   5 -11  -5  125.42    2.73
   5 -11  -5  133.34    2.75
   5  11  -5  122.49    3.30
  -5  11   5  128.00    5.28
   5  11  -4  108.13    4.95
   5 -11  -4   98.81    2.44
   5  11  -4  104.15    2.64
   5 -11  -4  107.50    2.47
  -5  11   4  107.87    4.84
   5  11  -3  194.53    6.73
   5 -11  -3  196.19    3.89
   5  11  -3  179.78    3.34
  -5  11   3  190.60    6.59
  -5  11   2    5.30    1.41
   5  11  -2    7.06    1.66
   5 -11  -2    6.72    0.75
  -5  11   1   31.58    1.19
   5  11  -1   26.55    2.57
  -5  11   1   31.33    2.64
   5 -11  -1   31.65    1.54
   5  11   0   -0.93    1.31
  -5  11   0   -0.45    1.18
  -5  11   0    0.79    0.44
   5 -11   0    1.36    0.57
   5  11   1    1.66    1.35
  -5  11  -1    0.99    0.48
  -5  11  -1    0.48    1.38
   5 -11   1    0.33    0.61
   5  11   2   44.47    3.26
  -5  11  -2   43.65    3.16
  -5  11  -2   48.04    1.95
   5 -11   2   42.58    2.15
   5  11   3   11.93    1.78
  -5  11  -3   17.13    2.23
   5 -11   3   14.76    1.39
  -5  11  -3   11.65    1.13
   5  11   4    7.66    1.68
  -5  11  -4   15.34    2.19
   5 -11   4   11.71    1.37
  -5  11  -4   11.50    1.22
   5  11   5   45.39    3.31
  -5  11  -5   44.84    3.37
   5 -11   5   46.46    2.54
  -5  11  -5   47.05    2.33
   5  11   6    5.33    1.76
  -5  11  -6    2.94    0.95
   5 -11   6    1.24    0.78
   5  11   7   -0.25    1.35
  -5  11  -7   -0.46    0.81
   5 -11   7   -0.03    1.20
   5 -11   7    0.12    0.83
  -5 -11  -7    0.15    1.47
  -5  11  -8   18.91    1.92
   5 -11   8   19.52    2.28
  -5 -11  -8   19.88    2.52
   5 -11   9   22.56    2.43
  -5  11  -9   24.00    2.09
  -5 -11  -9   21.83    2.58
  -5  11 -10  187.70    6.03
   5 -11  10  180.31    6.54
  -5 -11 -10  186.58    7.18
  -5  11 -11  110.00    4.65
   5 -11  11  103.00    4.91
  -5 -11 -11  107.61    5.46
  -5  11 -12   51.99    3.30
   5 -11  12   50.59    3.56
  -5 -11 -12   47.38    3.78
   5 -11  13   19.83    2.36
  -5  11 -13   20.16    2.41
  -5 -11 -13   21.22    2.74
   5 -11  14   44.67    3.34
  -5  11 -14   49.59    3.47
  -5 -11 -14   44.08    3.86
   5 -11  15    1.92    1.50
  -5  11 -15    1.01    1.31
  -5 -11 -15   -1.01    1.47
  -5  11 -16   33.84    3.18
  -5  11 -17    8.18    2.02
  -5  11 -18   69.69    4.60
  -5  11 -19   50.06    4.17
  -5  12  19   15.15    2.70
  -5  12  18    7.23    2.01
   5  12 -17   27.79    3.25
  -5  12  17   22.85    2.86
   5  12 -16   41.93    3.88
  -5  12  16   36.36    3.46
   5  12 -15   60.67    4.44
  -5  12  15   59.71    4.27
   5  12 -14   34.83    3.41
  -5  12  14   36.10    3.35
   5  12 -13   54.13    4.14
  -5  12  13   45.12    3.56
   5  12 -12    6.32    1.68
  -5  12  12    7.52    1.88
   5  12 -11  126.15    6.02
  -5  12  11  128.23    5.85
   5  12 -10   62.26    4.15
  -5  12  10   66.31    4.12
   5  12 -10   58.78    3.01
   5  12  -9   38.79    3.31
   5 -12  -9   36.28    1.54
  -5  12   9   34.05    3.04
   5  12  -9   35.12    2.25
   5  12  -8    9.74    2.04
   5 -12  -8   10.90    0.85
  -5  12   8    7.18    1.50
   5  12  -8    8.86    1.16
   5  12  -7   50.56    3.65
   5 -12  -7   49.77    1.68
  -5  12   7   48.45    3.51
   5  12  -7   45.27    2.25
   5  12  -6  114.36    5.35
   5 -12  -6  117.62    2.78
   5 -12  -6  112.69    2.80
  -5  12   6  115.24    5.22
   5  12  -6  111.94    3.40
   5  12  -5    1.93    1.38
   5 -12  -5    1.00    0.44
  -5  12   5    3.45    1.55
   5  12  -5    2.49    0.60
   5 -12  -5    2.25    0.51
  -5  12   4    1.22    1.29
   5  12  -4    2.48    1.32
   5 -12  -4    2.88    0.56
   5  12  -4    3.17    0.55
   5  12  -3  140.90    5.83
   5  12  -3  138.60    2.62
   5 -12  -3  130.58    3.28
   5  12  -3  123.09    2.53
  -5  12   3  136.20    5.63
  -5  12   2   43.97    1.49
   5  12  -2   43.15    3.27
   5 -12  -2   38.97    1.75
  -5  12   2   41.79    3.20
  -5  12   1   60.11    1.89
  -5  12   1   58.74    3.68
   5  12  -1   58.75    3.81
   5 -12  -1   57.43    2.25
   5  12   0   31.99    2.86
  -5  12   0   37.31    2.99
  -5  12   0   34.35    1.51
   5 -12   0   31.48    1.72
   5  12   1    8.05    1.84
  -5  12  -1    6.78    0.83
  -5  12  -1    5.41    1.65
   5 -12   1    6.67    1.00
  -5  12  -2  321.91    6.40
   5  12   2  312.79    9.15
  -5  12  -2  315.58    9.18
   5 -12   2  297.76    6.82
   5  12   3  369.03   10.26
  -5  12  -3  387.99    7.60
  -5  12  -3  380.62   10.33
   5 -12   3  376.42    8.10
   5  12   4  162.63    6.43
  -5  12  -4  149.85    6.17
   5 -12   4  149.20    4.74
  -5  12  -4  157.24    4.44
   5  12   5  126.83    5.73
  -5  12  -5  131.38    5.70
   5 -12   5  128.04    4.48
  -5  12  -5  129.21    4.15
   5  12   6   38.30    3.21
  -5  12  -6   34.87    2.24
   5 -12   6   34.33    2.34
  -5  12  -7  210.33    5.95
   5  12   7  219.40    7.82
  -5 -12  -7  209.89    7.57
  -5  12  -8   68.48    3.34
   5 -12   8   70.20    4.09
  -5 -12  -8   61.53    4.13
   5 -12   9   72.68    4.16
  -5  12  -9   67.05    3.44
  -5 -12  -9   72.48    4.48
  -5  12 -10    1.72    1.16
   5 -12  10   -0.06    1.29
  -5 -12 -10    3.02    1.81
  -5  12 -11    1.56    1.12
   5 -12  11    0.89    1.41
  -5 -12 -11    4.12    1.71
  -5  12 -12   46.37    3.20
   5 -12  12   49.19    3.54
  -5 -12 -12   52.17    4.11
  -5  12 -13  151.06    5.98
   5 -12  13  146.39    6.14
  -5 -12 -13  156.38    7.04
  -5  12 -14   15.59    2.07
   5 -12  14   16.44    2.34
  -5 -12 -14   16.56    2.76
   5 -12  15    4.14    1.50
  -5  12 -15    5.75    1.76
   5 -12  16    4.04    1.54
  -5  12 -16    3.50    1.54
  -5  12 -17   51.52    3.97
  -5  12 -18    1.20    1.62
  -5  13  18   10.29    2.24
  -5  13  17    9.26    2.24
   5  13 -16   12.74    2.36
  -5  13  16   11.17    2.58
   5  13 -15   24.91    3.10
  -5  13  15   24.50    2.92
   5  13 -14    3.04    1.77
  -5  13  14    7.62    2.02
   5  13 -13   33.60    3.43
  -5  13  13   35.73    3.36
   5  13 -12   15.22    2.56
  -5  13  12   12.77    2.21
   5  13 -11   16.10    2.52
  -5  13  11   18.90    2.54
   5  13 -10    0.35    1.44
  -5  13  10   -1.29    1.59
   5  13  -9  154.69    6.62
  -5  13   9  147.19    6.25
   5  13  -8    2.00    1.51
  -5  13   8    2.42    1.68
   5  13  -7   13.29    2.21
  -5  13   7   12.02    2.09
   5  13  -6    1.72    3.01
  -5  13   6   -0.44    1.41
   5 -13  -6    1.50    0.50
   5  13  -5  186.89    7.36
  -5  13   5  197.98    7.13
   5 -13  -5  203.23    4.35
   5  13  -4   49.27    3.64
   5  13  -4   48.87    1.72
  -5  13   4   44.41    3.40
   5  13  -3  453.61   11.82
  -5  13   3  454.03   11.53
  -5  13   2    3.62    0.60
  -5  13   2    3.02    1.39
   5  13  -2    1.92    1.49
   5  13  -1   12.42    2.13
  -5  13   1   12.38    0.96
  -5  13   1    8.80    1.83
  -5  13   0    0.06    0.52
   5  13   0   -0.72    1.49
  -5  13   0    1.06    1.27
  -5  13  -1  487.26    8.67
   5  13   1  466.33   12.12
  -5  13  -1  480.43   12.02
  -5  13  -2   30.55    1.74
  -5  13  -2   29.24    2.91
   5  13   2   32.69    2.98
  -5  13  -3   14.57    1.37
   5  13   3   14.61    2.21
  -5  13  -3   11.70    1.88
  -5  13  -4  122.93    3.95
   5  13   4  116.86    5.60
  -5  13  -4  109.93    5.42
  -5  13  -5   78.13    3.25
   5  13   5   61.60    4.14
  -5  13  -5   70.82    4.34
  -5  13  -6    2.50    0.99
   5  13   6    1.23    1.46
  -5  13  -6    2.31    1.35
  -5  13  -7   17.05    1.78
   5  13   7   15.96    2.42
  -5 -13  -7   13.41    2.16
   5 -13   8    2.93    1.44
  -5  13  -8    0.98    0.96
  -5 -13  -8    4.72    1.82
  -5  13  -9   95.97    4.18
   5 -13   9   90.44    4.88
  -5 -13  -9   89.22    5.10
  -5  13 -10   29.23    2.43
   5 -13  10   23.74    2.72
  -5 -13 -10   24.68    2.93
   5 -13  11   47.73    3.63
  -5  13 -11   58.79    3.48
  -5 -13 -11   52.64    4.05
  -5  13 -12    4.47    1.66
   5 -13  12    2.77    1.52
  -5 -13 -12    1.49    1.54
   5 -13  13   73.05    4.44
  -5  13 -13   77.99    4.38
  -5 -13 -13   81.88    5.21
  -5  13 -14   -1.75    1.60
   5 -13  14    0.17    1.41
  -5  13 -15    2.63    1.54
   5 -13  15   -0.69    1.40
   5 -13  16   -0.19    1.51
  -5  13 -16    0.55    1.41
  -5  13 -17   10.98    2.20
  -5  14  16    4.84    1.91
  -5  14  15   47.77    3.95
   5  14 -14   55.87    4.39
  -5  14  14   52.46    4.20
   5  14 -13   94.03    5.48
  -5  14  13   81.42    4.98
   5  14 -12   10.47    2.32
  -5  14  12   14.95    2.42
   5  14 -11  133.67    6.41
  -5  14  11  116.70    5.83
   5  14 -10   12.37    2.48
  -5  14  10   16.53    2.40
   5  14  -9   31.64    3.22
  -5  14   9   32.18    3.13
   5  14  -8   23.79    2.83
  -5  14   8   21.59    2.70
   5  14  -7  215.58    8.04
  -5  14   7  214.19    7.73
   5  14  -6    4.05    1.72
  -5  14   6    0.98    1.39
   5  14  -5   27.03    2.89
  -5  14   5   28.31    2.85
   5  14  -4   58.50    4.15
  -5  14   4   60.11    3.96
   5  14  -3  118.65    5.79
  -5  14   3  120.37    5.61
   5  14  -2   71.33    4.45
  -5  14   2   76.70    4.45
   5  14  -1   94.67    5.10
  -5  14   1   89.66    4.84
  -5  14   0   61.58    2.35
   5  14   0   61.87    4.19
  -5  14   0   55.74    3.87
   5  14   1    1.07    1.34
  -5  14  -1    1.65    0.65
  -5  14  -1    3.50    1.62
  -5  14  -2   15.97    1.38
  -5  14  -2   14.40    2.29
   5  14   2   16.09    2.39
   5  14   3  177.69    7.12
  -5  14  -3  165.37    6.78
  -5  14  -3  168.11    4.74
   5  14   4   33.34    3.19
  -5  14  -4   41.10    2.31
  -5  14  -4   36.67    3.29
  -5  14  -5   35.13    2.24
   5  14   5   36.01    3.31
  -5  14  -5   34.23    3.22
  -5  14  -6    4.14    1.15
   5  14   6    1.99    1.50
  -5  14  -6    1.35    1.43
  -5  14  -7  180.23    5.66
   5  14   7  180.56    7.46
  -5  14  -7  174.07    7.24
  -5 -14  -7  171.96    7.21
  -5  14  -8    3.87    1.14
  -5 -14  -8    6.12    2.11
  -5  14  -9   25.48    2.36
   5 -14   9   21.59    2.66
  -5 -14  -9   25.55    2.94
   5 -14  10    2.07    1.36
  -5  14 -10    4.62    1.31
  -5 -14 -10    5.17    1.82
  -5  14 -11   24.80    2.50
   5 -14  11   22.21    2.79
  -5 -14 -11   25.86    3.27
  -5  14 -12    7.92    1.70
   5 -14  12    8.53    1.92
   5 -14  13   66.94    4.42
  -5  14 -13   71.73    4.22
   5 -14  14    8.58    1.97
   5 -14  15   17.34    2.56
  -5  15  15    1.50    1.57
  -5  15  14    1.97    1.59
  -5  15  13   80.00    5.02
   5  15 -12   15.07    2.59
  -5  15  12   19.59    2.71
   5  15 -11    4.27    1.63
  -5  15  11    1.72    1.49
   5  15 -10   19.85    2.74
  -5  15  10   17.94    2.51
   5  15  -9   73.80    4.81
  -5  15   9   70.36    4.58
   5  15  -8   -0.37    1.52
  -5  15   8    0.11    1.41
   5  15  -7   16.19    2.52
  -5  15   7   10.76    1.90
   5  15  -6  102.08    5.46
  -5  15   6   90.95    5.05
   5  15  -5  189.75    7.63
  -5  15   5  186.91    7.25
   5  15  -4    0.26    1.46
  -5  15   4    3.26    1.71
  -5  15   3   30.44    3.03
   5  15  -3   33.33    3.15
  -5  15   2    0.23    1.43
   5  15  -2    2.78    1.82
   5  15  -1   23.88    2.84
  -5  15   1   28.73    2.86
   5  15   0   18.59    2.52
  -5  15   0   17.87    2.52
  -5  15  -1   39.86    3.39
   5  15   1   37.92    3.46
  -5  15  -2    3.43    1.49
   5  15   2    5.77    1.80
   5  15   3   -0.08    1.47
  -5  15  -3    1.48    1.43
   5  15   4   14.06    2.33
  -5  15  -4   13.64    2.26
   5  15   5   56.44    4.23
  -5  15  -5   49.45    3.91
   5  15   6   45.30    3.82
  -5  15  -6   40.32    3.70
   5  15   7   -0.92    1.63
  -5  15  -7    1.74    1.57
  -5 -15  -7    2.73    1.71
  -5  15  -8    4.17    1.75
  -5 -15  -8    0.78    1.78
   5 -15   9   34.48    3.28
  -5 -15  -9   39.42    3.75
   5 -15  10   12.62    2.32
   5 -15  11  178.76    7.25
   5 -15  12   26.58    3.08
   5 -15  13    5.26    1.84
   5 -15  14   18.93    2.62
  -5  16  13   11.06    2.22
  -5  16  12   43.20    3.85
  -5  16  11    4.94    1.88
   5  16 -10   40.20    3.76
  -5  16  10   46.06    3.80
   5  16  -9   13.40    2.22
  -5  16   9   11.27    2.15
   5  16  -8    5.04    1.85
  -5  16   8    5.87    1.78
   5  16  -7   48.02    4.02
  -5  16   7   39.47    3.57
   5  16  -6   18.60    2.63
  -5  16   6   21.09    2.83
   5  16  -5   16.42    2.53
  -5  16   5   18.05    2.57
   5  16  -4    0.53    1.50
  -5  16   4   -0.26    1.50
  -5  16   3   34.88    3.35
   5  16  -3   36.52    3.52
   5  16  -2  191.72    7.82
  -5  16   2  180.25    7.31
   5  16  -1   61.64    4.37
  -5  16   1   59.08    4.19
   5  16   0   -2.26    1.71
  -5  16   0   -2.04    1.72
  -5  16  -1   40.37    3.58
   5  16   1   33.77    3.38
  -5  16  -2    8.29    2.08
   5  16   2    8.25    1.82
   5  16   3  115.61    6.01
  -5  16  -3  119.91    6.07
  -5  16  -4   46.48    3.93
   5  16   4   41.68    3.64
   5  16   5    1.71    1.74
  -5  16  -5    2.99    1.66
   5  16   6   33.03    3.46
  -5  16  -6   45.45    3.95
   5  16   7  114.05    6.19
  -5  16  -7  115.67    6.22
  -5 -16  -7  105.82    5.93
   5 -16   9    1.37    1.61
   5 -16  10    6.18    2.01
   5 -16  11   37.66    3.51
   5 -16  12   11.70    2.25
   5 -16  13    1.14    1.49
  -5  17  11    3.05    1.67
  -5  17  10   11.56    2.14
  -5  17   9  102.05    5.67
  -5  17   8   21.09    2.81
   5  17  -7   30.22    3.35
  -5  17   7   31.72    3.31
   5  17  -6   24.06    3.09
  -5  17   6   23.32    2.83
   5  17  -5   80.76    5.19
  -5  17   5   64.61    4.56
   5  17  -4   85.34    5.47
  -5  17   4   87.28    5.16
   5  17  -3    3.97    1.82
  -5  17   3    3.94    1.76
   5  17  -2    4.50    1.93
  -5  17   2    4.05    1.74
   5  17  -1    0.35    1.58
  -5  17   1   -0.23    1.87
   5  17   0  161.71    7.37
  -5  17   0  170.46    7.31
  -5  17  -1    2.41    1.49
   5  17   1    8.62    2.05
  -5  17  -2    6.19    2.01
   5  17   2    6.23    1.95
   5  17   3   -0.67    1.74
  -5  17  -3    1.94    1.44
   5  17   4   54.41    4.48
  -5  17  -4   57.73    4.38
  -5  17  -5    8.54    2.23
  -5  18   8   33.40    3.54
  -5  18   7   -1.58    1.53
  -5  18   6   31.89    3.29
  -5  18   5   -0.29    1.56
  -5  18   4   40.58    3.73
  -5  18   3    4.39    1.73
  -5  18   2  162.77    7.30
  -5  18   1    2.02    1.56
  -5  18   0   12.05    2.33
  -5  18  -1   -2.51    1.76
   6   0 -25   -3.67    1.82
   6   0 -24  168.69    7.18
   6   0 -23   -0.82    1.56
   6   0 -22  386.25   10.92
   6   0 -21    0.04    1.27
   6   0 -20  276.39    8.49
   6   0 -19    0.69    1.39
   6   0 -18   90.21    4.35
   6   0 -17    0.42    1.03
   6   0 -16    0.17    0.94
  -6   0  16   -1.56    1.00
   6   0 -15    1.22    0.98
  -6   0  15   -0.93    0.92
  -6   0  15    0.93    1.28
   6   0 -14  325.22    7.97
  -6   0  14  337.00    7.61
  -6   0  14  311.64    8.68
   6   0 -13   -1.15    0.95
  -6   0  13    0.41    0.90
  -6   0  13    1.19    1.11
   6   0 -12  157.05    4.85
  -6   0  12  163.00    4.57
  -6   0  12  152.03    5.38
   6   0 -11   -0.36    0.67
  -6   0  11   -0.02    0.71
  -6   0  11   -0.65    0.98
   6   0 -11   -0.24    0.86
   6   0 -10  419.23    8.46
  -6   0  10  409.90    7.96
  -6   0  10  420.33    9.41
   6   0 -10  417.44    9.42
   6   0  -9   -0.19    0.65
  -6   0   9   -0.71    0.56
  -6   0   9   -0.93    1.09
   6   0  -9    0.12    0.84
   6   0  -8   85.45    3.03
  -6   0   8   90.44    2.86
  -6   0   8   90.54    3.64
   6   0  -8   87.97    3.64
   6   0  -7   -0.55    0.79
   6   0  -7   -0.99    0.71
  -6   0   7    0.09    0.51
  -6   0   7    0.14    0.85
  -6   0   6  393.82    7.48
   6   0  -6  387.58    7.48
   6   0  -6  402.19    8.46
  -6   0   6  399.78    8.43
  -6   0   5    0.65    0.54
   6   0  -5    1.29    0.61
   6   0  -5   -0.28    0.66
  -6   0   5    0.76    0.82
  -6   0   4   10.19    0.92
   6   0  -4   11.89    1.29
   6   0  -4   10.87    1.00
  -6   0   4   12.44    1.32
  -6   0   3   -0.13    0.78
  -6   0   3   -1.21    0.66
   6   0  -3   -0.14    0.58
   6   0  -3   -0.41    0.59
  -6   0   3   -0.63    0.76
  -6   0   2  237.14    5.15
  -6   0   2  236.35    6.04
   6   0  -2  239.41    5.16
  -6   0   2  233.66    5.64
  -6   0   1   -0.46    0.75
  -6   0   1    1.27    0.66
   6   0  -1   -0.48    0.57
  -6   0   1   -0.92    0.75
  -6   0   1    0.06    0.61
  -6   0   0   48.01    2.54
   6   0   0   46.67    2.03
  -6   0   0   44.96    2.05
  -6   0   0   47.25    2.24
  -6   0   0   50.24    2.14
  -6   0  -1    0.36    1.84
  -6   0  -1    0.09    0.55
  -6   0  -1    0.82    0.78
  -6   0  -1    0.65    0.61
  -6   0  -2    4.84    1.11
  -6   0  -2    3.32    0.73
  -6   0  -2    3.32    0.81
  -6   0  -2    4.04    0.85
  -6   0  -3    0.38    0.59
  -6   0  -3   -0.56    0.69
  -6   0  -3    1.08    0.80
  -6   0  -3   -0.91    0.82
  -6   0  -4  706.98   12.42
  -6   0  -4  673.30   12.10
  -6   0  -4  699.16   12.36
  -6   0  -4  698.89   13.27
  -6   0  -5    0.42    0.65
  -6   0  -5   -0.41    0.89
  -6   0  -5    0.42    0.91
  -6   0  -6  345.24    7.82
  -6   0  -6  323.56    7.66
  -6   0  -7    0.23    0.89
  -6   0  -7    0.21    0.94
  -6   0  -8   17.08    1.69
  -6   0  -8   15.93    1.75
  -6   0  -9    0.01    0.87
  -6   0  -9    0.83    1.16
  -6   0 -10   52.91    3.18
  -6   0 -11   -1.87    1.31
  -6   0 -12  492.03   11.53
  -6   0 -13    0.40    1.23
  -6   0 -14  229.30    7.69
  -6   0 -15   -0.12    1.47
  -6   0 -16   33.63    3.18
  -6   0 -17    0.22    1.47
  -6   0 -18   78.03    4.96
  -6   0 -19   -1.71    1.78
   6  -1 -26   -1.42    1.55
   6   1 -25   71.95    4.92
   6  -1 -25   76.86    4.90
   6   1 -24    7.18    2.09
   6  -1 -24    7.27    1.96
   6   1 -23    2.38    1.65
   6  -1 -23    2.73    1.53
   6   1 -22   -1.01    1.54
   6  -1 -22    2.16    1.48
   6   1 -21  181.91    7.09
   6  -1 -21  196.56    7.03
   6   1 -20  104.39    5.16
   6  -1 -20  105.75    4.96
   6   1 -19    3.50    1.42
   6  -1 -19    4.25    1.47
   6   1 -18   22.42    2.35
   6  -1 -18   22.20    2.21
   6  -1 -17    6.59    1.39
   6   1 -17    4.18    1.22
  -6   1  17    6.90    1.28
   6   1 -16  365.79    9.19
   6  -1 -16  354.37    8.76
  -6  -1  16  361.79    8.70
  -6   1  16  370.26    8.39
  -6   1  16  361.89    9.88
   6  -1 -15    1.02    0.63
   6   1 -15    0.87    1.24
   6  -1 -15   -0.07    0.95
  -6   1  15   -0.26    0.74
  -6  -1  15    0.51    0.83
  -6   1  15    0.27    1.37
   6  -1 -14  214.38    4.89
   6  -1 -14  213.22    5.98
   6   1 -14  205.09    6.23
  -6  -1  14  217.08    5.98
  -6   1  14  221.21    5.67
  -6  -1  14  213.63    6.88
  -6   1  14  213.62    6.91
   6   1 -13    0.20    0.96
   6  -1 -13    2.66    0.79
   6  -1 -13    3.35    1.12
  -6  -1  13    1.97    0.90
  -6   1  13    2.13    0.77
  -6   1  13    2.72    1.21
  -6  -1  13    1.81    1.11
   6  -1 -12  131.71    3.77
   6   1 -12  133.87    4.52
   6  -1 -12  130.16    4.19
  -6   1  12  127.84    3.85
  -6  -1  12  130.60    4.21
  -6  -1  12  128.11    4.86
  -6   1  12  125.10    4.93
   6  -1 -11   28.74    1.72
   6   1 -11   24.24    1.85
   6  -1 -11   25.34    1.74
  -6   1  11   26.83    1.66
  -6  -1  11   28.39    1.90
   6   1 -11   26.89    2.18
  -6   1  11   27.31    2.27
  -6  -1  11   29.53    2.25
   6  -1 -10   26.05    1.69
   6   1 -10   26.32    1.89
   6  -1 -10   24.00    1.66
  -6  -1  10   25.62    1.69
  -6   1  10   25.20    1.50
   6  -1 -10   26.11    2.13
  -6  -1  10   23.00    1.99
   6   1 -10   27.16    2.15
  -6   1  10   24.44    2.19
   6  -1  -9    2.65    0.93
   6  -1  -9    3.70    0.83
   6   1  -9    4.10    0.95
   6  -1  -9    3.98    0.80
  -6   1   9    5.33    0.77
  -6  -1   9    4.52    0.86
  -6  -1   9    3.72    1.10
   6   1  -9    3.00    0.88
  -6   1   9    2.70    1.04
   6  -1  -8  299.66    6.59
   6   1  -8  293.78    6.63
   6  -1  -8  290.39    6.08
  -6  -1   8  301.40    6.36
  -6   1   8  291.88    5.68
   6  -1  -8  300.82    7.45
  -6  -1   8  300.95    7.12
   6   1  -8  294.27    7.11
  -6   1   8  293.16    7.31
   6  -1  -7   17.07    1.22
   6  -1  -7   16.44    1.63
   6  -1  -7   20.26    1.62
   6   1  -7   17.96    1.41
  -6  -1   7   18.35    1.41
  -6   1   7   16.30    1.06
  -6   1   7   19.85    1.80
  -6  -1   7   17.94    1.65
   6   1  -7   18.75    1.70
   6  -1  -6 1224.80   18.46
   6  -1  -6 1233.46   20.27
   6   1  -6 1236.53   19.27
   6  -1  -6 1289.20   19.79
  -6  -1   6 1265.88   19.30
  -6   1   6 1252.24   18.07
  -6  -1   6 1310.78   19.97
  -6   1   6 1273.58   20.32
   6   1  -6 1251.19   19.84
  -6  -1   5  123.60    3.72
   6  -1  -5  136.76    4.21
  -6   1   5  134.09    3.33
  -6  -1   5  127.99    3.99
   6   1  -5  133.96    4.07
   6  -1  -5  125.50    3.27
   6  -1  -5  135.93    4.32
   6   1  -5  129.75    3.78
  -6  -1   5  142.00    4.16
  -6   1   5  138.34    4.36
   6  -1  -4   99.06    3.60
  -6   1   4   97.26    2.71
  -6  -1   4  106.57    3.57
  -6  -1   4   93.03    3.12
   6   1  -4   95.73    3.18
   6   1  -4   97.62    3.34
   6  -1  -4   99.27    3.63
   6  -1  -4   98.82    2.76
  -6   1   4  103.88    3.68
  -6  -1   4  102.77    3.43
   6  -1  -3   32.24    2.11
  -6  -1   3   35.39    1.84
  -6  -1   3   34.21    2.09
  -6   1   3   32.27    1.48
   6  -1  -3   36.01    1.57
   6   1  -3   35.37    1.94
   6  -1  -3   32.33    2.00
   6   1  -3   38.41    1.92
  -6   1   3   34.22    2.07
  -6  -1   3   34.43    1.92
  -6  -1   2   34.23    1.82
  -6   1   2   37.01    1.61
  -6  -1   2   35.66    2.17
   6  -1  -2   36.93    2.29
   6  -1  -2   34.80    1.59
   6   1  -2   39.14    1.95
   6   1  -2   35.04    1.86
  -6   1   2   37.55    1.58
  -6   1   2   37.91    2.15
  -6  -1   2   34.67    1.90
  -6  -1   1    3.38    0.87
  -6   1   1    3.78    0.71
  -6  -1   1    1.78    0.59
   6  -1  -1    3.52    0.65
  -6   1   1    3.64    0.96
   6   1  -1    2.72    0.76
  -6  -1   1    3.58    0.85
  -6   1   1    3.98    0.71
  -6  -1   0    2.69    0.99
  -6   1   0    1.09    0.68
  -6  -1   0    2.31    0.70
   6   1   0    2.04    0.71
  -6  -1   0    1.70    0.61
  -6   1   0    1.96    0.63
  -6   1   0    2.48    0.89
  -6   1   0    1.83    0.69
  -6  -1   0    1.31    0.68
   6   1   1    7.05    1.05
  -6   1  -1    7.01    0.86
  -6  -1  -1    6.67    0.87
  -6  -1  -1    5.80    0.92
  -6   1  -1    5.97    1.08
  -6  -1  -1    5.58    1.10
  -6   1  -1    6.29    1.15
  -6   1  -1    4.61    0.73
  -6  -1  -1    6.68    0.92
  -6  -1  -2  476.11    9.35
  -6   1  -2  483.66    9.48
  -6  -1  -2  473.54    8.86
  -6   1  -2  480.11    8.91
  -6  -1  -2  497.27    9.38
  -6   1  -2  498.28    8.95
  -6  -1  -2  523.35   10.38
  -6   1  -2  485.47   10.16
  -6   1  -3  314.07    6.69
  -6  -1  -3  311.23    6.60
  -6   1  -3  310.15    7.05
  -6  -1  -3  321.91    7.19
  -6  -1  -3  320.56    7.76
  -6   1  -3  320.07    7.73
  -6  -1  -3  314.35    7.05
  -6   1  -3  315.83    6.76
  -6  -1  -4   19.32    1.62
  -6   1  -4   20.02    1.53
  -6  -1  -4   19.28    1.45
  -6   1  -4   15.43    1.48
  -6   1  -4   23.19    1.93
  -6  -1  -4   19.21    1.87
  -6   1  -4   18.75    1.50
  -6  -1  -4   18.83    1.64
  -6  -1  -5    9.63    1.20
  -6   1  -5    9.92    1.16
  -6  -1  -5   11.93    1.46
  -6   1  -5   11.44    1.33
  -6   1  -5   12.07    1.55
  -6  -1  -5   15.72    1.70
  -6   1  -6   27.62    1.89
  -6  -1  -6   26.23    2.04
  -6  -1  -6   25.28    2.03
  -6   1  -6   30.69    2.07
  -6   1  -7  205.95    5.70
  -6  -1  -7  197.73    5.91
  -6  -1  -7  189.52    5.76
  -6   1  -7  196.96    5.66
  -6   1  -8  501.49   10.47
  -6  -1  -8  507.12   10.78
  -6  -1  -8  495.22   10.64
  -6   1  -8  480.83   10.31
   6  -1   8  476.23   10.40
  -6   1  -9   64.77    3.34
  -6  -1  -9   68.25    3.53
  -6   1  -9   76.19    3.58
  -6   1 -10    9.28    1.59
  -6  -1 -10   11.13    1.73
  -6  -1 -11   -0.45    1.19
  -6   1 -11    0.71    1.18
  -6   1 -12  318.84    8.69
  -6  -1 -12  305.38    8.69
  -6  -1 -13   -0.66    1.38
  -6   1 -13    1.84    1.31
  -6   1 -14  136.52    5.75
  -6  -1 -14  134.21    5.81
  -6   1 -15  109.92    5.31
  -6  -1 -15  114.32    5.46
  -6   1 -16  142.83    6.24
  -6  -1 -16  137.44    6.19
  -6   1 -17   17.61    2.77
  -6  -1 -17   20.57    2.72
  -6   1 -18   38.48    3.63
  -6  -1 -18   35.18    3.50
  -6   1 -19    3.29    1.69
  -6  -1 -19    0.56    1.51
   6  -2 -26   17.54    2.65
   6   2 -25   37.02    3.64
   6  -2 -25   36.20    3.40
   6   2 -24    0.04    1.60
   6  -2 -24    1.62    1.57
   6   2 -23    0.12    1.37
   6  -2 -23   -0.83    1.50
   6   2 -22   29.87    3.01
   6  -2 -22   32.39    2.98
   6   2 -21   60.49    4.11
   6  -2 -21   57.98    3.74
   6   2 -20   -1.26    1.39
   6  -2 -20   -0.68    1.22
   6   2 -19   31.40    2.91
   6  -2 -19   27.26    2.45
   6   2 -18   70.39    4.17
   6  -2 -18   72.67    2.41
   6  -2 -18   63.67    3.55
  -6   2  18   72.53    4.39
   6   2 -17  236.98    7.48
   6  -2 -17  256.92    5.38
   6  -2 -17  229.85    6.86
  -6   2  17  241.00    6.51
  -6   2  17  246.59    8.13
   6  -2 -16   76.99    2.68
   6  -2 -16   69.04    3.43
   6   2 -16   74.89    3.90
  -6   2  16   71.85    3.16
  -6   2  16   75.34    4.25
   6   2 -15   13.52    1.80
   6  -2 -15   15.27    1.60
   6  -2 -15   16.00    1.32
  -6  -2  15   13.88    1.64
  -6   2  15   14.83    1.48
  -6   2  15   13.39    2.00
   6  -2 -14  125.43    4.29
   6  -2 -14  124.39    3.69
   6   2 -14  122.83    4.76
  -6   2  14  118.39    3.84
  -6  -2  14  119.15    4.41
  -6   2  14  126.39    5.28
   6  -2 -13   71.63    3.03
   6  -2 -13   72.57    2.80
   6   2 -13   70.97    3.46
  -6   2  13   73.58    2.81
  -6  -2  13   75.68    3.35
  -6   2  13   69.36    3.79
   6  -2 -12   86.53    3.11
   6   2 -12   85.96    3.73
   6  -2 -12   88.81    3.29
  -6   2  12   88.66    2.92
  -6  -2  12   87.61    3.53
  -6   2  12   88.45    4.17
  -6  -2  12   82.92    3.83
   6  -2 -11   10.65    1.19
   6  -2 -11    9.40    1.04
   6   2 -11   10.26    1.41
  -6  -2  11   10.28    1.33
  -6   2  11   11.23    1.05
  -6   2  11   12.34    1.73
  -6  -2  11   11.47    1.59
   6   2 -11   12.06    1.54
   6  -2 -10  164.59    4.54
   6   2 -10  157.35    4.88
   6  -2 -10  154.35    4.14
  -6   2  10  156.12    3.77
  -6  -2  10  165.75    4.78
  -6   2  10  161.66    5.42
   6   2 -10  158.93    5.13
   6  -2 -10  160.82    5.51
  -6  -2  10  160.78    5.09
   6  -2  -9  207.87    5.28
   6   2  -9  193.62    5.48
   6  -2  -9  200.43    4.67
  -6   2   9  204.20    4.26
  -6  -2   9  204.86    5.31
   6  -2  -9  205.65    6.16
  -6   2   9  202.27    6.09
   6   2  -9  206.59    5.77
  -6  -2   9  196.71    5.61
   6   2  -8  141.90    4.41
  -6  -2   8  144.30    4.41
   6  -2  -8  133.17    3.52
   6  -2  -8  144.28    4.29
  -6   2   8  143.93    3.19
   6  -2  -8  148.81    4.93
  -6   2   8  141.82    4.88
   6   2  -8  138.09    4.49
  -6  -2   8  146.86    4.56
   6  -2  -7   29.89    2.15
   6   2  -7   31.45    1.99
   6  -2  -7   29.61    1.44
  -6  -2   7   30.38    1.94
   6  -2  -7   30.26    1.99
  -6  -2   7   29.14    1.71
  -6   2   7   29.56    1.21
  -6  -2   7   32.52    2.04
   6   2  -7   29.20    1.93
  -6   2   7   30.84    2.23
   6  -2  -6  138.17    4.62
   6   2  -6  137.44    4.17
   6  -2  -6  135.78    3.21
  -6  -2   6  131.28    4.09
   6  -2  -6  142.63    4.35
  -6  -2   6  139.99    4.07
  -6   2   6  140.93    2.92
  -6  -2   6  139.38    4.15
  -6   2   6  132.68    4.53
   6   2  -6  135.97    4.17
   6  -2  -5  266.70    6.63
   6   2  -5  248.04    5.99
   6  -2  -5  265.63    4.89
   6  -2  -5  270.35    6.42
  -6  -2   5  251.59    6.06
  -6  -2   5  262.88    6.11
  -6   2   5  256.21    4.50
   6   2  -5  254.51    5.93
  -6   2   5  267.84    6.65
  -6  -2   5  266.68    6.01
   6  -2  -4  228.34    5.87
  -6   2   4  217.34    4.24
  -6  -2   4  224.43    5.64
  -6  -2   4  222.85    5.46
   6   2  -4  216.83    5.41
   6  -2  -4  227.13    4.29
   6   2  -4  209.75    5.19
   6  -2  -4  232.08    6.02
  -6  -2   4  218.86    5.24
  -6   2   4  225.49    5.96
  -6   2   4  229.25    4.06
  -6  -2   3    1.38    0.94
  -6   2   3    1.69    0.49
   6  -2  -3    2.34    0.89
  -6  -2   3    0.42    0.61
   6  -2  -3    0.85    0.41
   6   2  -3    0.05    0.77
   6   2  -3    0.68    0.54
   6  -2  -3    0.14    0.74
  -6   2   3    0.79    0.37
  -6  -2   3    0.61    0.61
  -6   2   3    0.99    0.82
   6   2  -2   51.34    2.37
   6   2  -2   45.69    2.06
   6  -2  -2   51.36    2.69
  -6  -2   2   53.24    2.62
  -6  -2   2   52.22    2.38
  -6   2   2   50.16    1.70
  -6   2   2   53.27    1.69
  -6   2   2   51.12    2.59
  -6  -2   2   52.41    2.19
  -6  -2   1  597.52   10.99
   6   2  -1  595.54   10.94
  -6   2   1  594.11    9.64
   6  -2  -1  614.92   11.68
  -6  -2   1  629.23   11.65
  -6   2   1  621.12    9.64
  -6   2   1  606.04   11.35
  -6  -2   1  623.15   10.34
   6   2   0  422.18    8.68
  -6   2   0  439.37    9.03
  -6  -2   0  438.89    8.78
  -6   2   0  437.11    7.62
   6  -2   0  441.95    9.36
  -6  -2   0  454.80    9.45
  -6   2   0  452.05    7.69
  -6  -2   0  452.73    8.02
  -6   2  -1    3.30    0.62
   6   2   1    3.41    0.91
  -6  -2  -1    3.83    0.73
  -6  -2  -1    5.23    0.96
  -6   2  -1    4.33    1.03
   6  -2   1    3.49    1.09
  -6  -2  -1    4.28    1.01
  -6   2  -1    5.36    0.80
  -6  -2  -1    2.68    0.81
  -6  -2  -2   23.55    1.44
  -6  -2  -2   25.01    1.81
  -6   2  -2   24.36    1.93
  -6   2  -2   26.59    1.49
   6   2   2   25.31    1.83
   6  -2   2   24.33    2.09
  -6  -2  -2   25.26    1.97
  -6   2  -2   22.96    1.43
  -6  -2  -2   27.88    1.92
  -6   2  -3    5.54    0.85
  -6  -2  -3    7.32    1.16
  -6  -2  -3    5.57    0.83
  -6   2  -3    4.51    1.05
  -6  -2  -3    6.26    1.17
  -6   2  -3    5.91    0.91
  -6  -2  -3    6.90    1.09
  -6   2  -4   73.17    2.77
  -6  -2  -4   71.71    2.57
  -6  -2  -4   71.54    3.17
  -6   2  -4   63.78    2.98
  -6  -2  -4   64.62    3.24
  -6   2  -4   66.13    2.72
  -6  -2  -4   65.34    3.03
  -6  -2  -5    7.22    1.18
  -6   2  -5    7.25    1.04
  -6   2  -5    5.35    1.17
  -6   2  -5    5.19    1.07
  -6  -2  -5    4.69    1.16
  -6  -2  -6  786.54   14.38
  -6   2  -6  767.16   13.55
  -6  -2  -6  765.36   14.22
  -6   2  -6  766.65   13.60
   6  -2   6  758.07   13.61
  -6   2  -7   80.38    3.33
  -6  -2  -7   80.26    3.67
  -6   2  -7   73.71    3.33
  -6  -2  -7   78.71    3.67
   6  -2   7   77.62    3.35
  -6   2  -8   17.24    1.73
  -6  -2  -8   12.70    1.59
  -6   2  -8   14.34    1.65
   6  -2   8   13.62    1.61
  -6   2  -9  105.16    4.17
  -6  -2  -9   95.85    4.29
  -6   2  -9  107.31    4.25
   6  -2   9  102.95    4.21
  -6  -2 -10  447.27   10.59
  -6   2 -10  460.03   10.34
  -6   2 -11   29.43    2.46
  -6  -2 -11   34.48    2.90
  -6   2 -12   72.34    3.93
  -6  -2 -12   74.33    4.11
  -6   2 -13  125.86    5.34
  -6  -2 -13  136.49    5.71
  -6   2 -14   89.03    4.60
  -6  -2 -14   93.32    4.87
  -6   2 -15  141.31    6.02
  -6  -2 -15  150.08    6.32
  -6   2 -16  132.29    5.96
  -6  -2 -16  124.91    5.93
  -6   2 -17   22.54    2.66
  -6  -2 -17   18.93    2.72
  -6  -2 -18   66.31    4.62
  -6   2 -18   53.63    4.11
  -6  -2 -19  191.64    8.00
  -6   2 -19  206.09    8.17
   6  -3 -25   74.86    4.81
   6  -3 -24    6.63    1.93
   6   3 -24    0.60    1.52
   6   3 -23   32.47    3.31
   6  -3 -23   27.38    2.81
   6   3 -22   78.89    4.75
   6  -3 -22   72.31    4.24
   6   3 -21  123.44    5.95
   6  -3 -21  118.85    5.33
   6   3 -20   63.87    4.27
   6  -3 -20   61.58    3.69
   6   3 -19   38.72    3.23
   6  -3 -19   35.73    2.70
  -6   3  19   34.44    3.21
   6  -3 -18   71.33    3.66
   6  -3 -18   81.68    2.88
   6   3 -18   72.40    4.21
  -6   3  18   73.52    4.45
   6  -3 -17   76.90    3.67
   6  -3 -17   79.65    2.92
   6   3 -17   74.67    4.22
  -6   3  17   79.52    3.40
  -6   3  17   83.99    4.61
   6  -3 -16   49.93    2.80
   6  -3 -16   51.46    2.38
   6   3 -16   50.51    3.29
  -6   3  16   49.71    2.56
  -6   3  16   49.24    3.49
   6  -3 -15   44.17    2.55
   6  -3 -15   44.89    2.22
   6   3 -15   47.78    3.17
  -6   3  15   47.27    2.39
  -6   3  15   44.80    3.28
   6   3 -14   24.73    2.21
   6  -3 -14   26.64    1.93
   6  -3 -14   26.07    1.74
  -6   3  14   27.34    1.70
  -6   3  14   24.59    2.48
   6  -3 -13   83.57    3.22
   6   3 -13   76.59    3.73
   6  -3 -13   83.58    3.15
  -6   3  13   82.13    2.85
  -6  -3  13   83.35    3.67
  -6   3  13   85.36    4.23
   6  -3 -12   41.64    2.12
   6   3 -12   39.64    2.64
   6  -3 -12   45.89    2.31
  -6   3  12   39.19    1.82
  -6  -3  12   40.91    2.56
  -6   3  12   42.55    2.95
   6   3 -12   40.84    2.66
   6   3 -11  128.25    4.65
   6  -3 -11  127.97    4.04
   6  -3 -11  121.20    3.63
  -6  -3  11  126.55    4.41
  -6   3  11  128.39    3.24
  -6   3  11  127.66    4.99
   6   3 -11  127.65    4.60
   6   3 -10   69.83    3.30
   6  -3 -10   69.14    2.94
   6  -3 -10   68.20    2.46
  -6  -3  10   71.82    3.18
  -6   3  10   71.74    2.13
   6   3 -10   72.68    3.28
  -6   3  10   68.01    3.54
  -6  -3  10   73.00    3.35
   6  -3  -9   -0.15    0.91
   6  -3  -9   -0.35    0.84
  -6  -3   9   -0.40    0.59
   6   3  -9   -1.60    1.01
   6  -3  -9    0.39    0.52
  -6  -3   9    0.40    0.73
  -6   3   9    0.44    0.38
  -6  -3   9    0.86    0.91
   6   3  -9    0.15    0.74
  -6  -3   9    0.11    0.82
  -6   3   9   -0.30    1.05
   6   3  -8   55.62    2.79
  -6  -3   8   51.47    2.67
   6  -3  -8   53.54    1.89
   6  -3  -8   58.33    2.71
  -6  -3   8   52.60    2.31
  -6   3   8   55.75    1.53
   6  -3  -8   54.16    3.03
   6   3  -8   56.59    2.71
  -6   3   8   52.82    3.00
  -6  -3   8   52.86    2.60
   6  -3  -7  347.75    8.37
   6  -3  -7  344.90    5.96
   6   3  -7  345.46    7.80
  -6  -3   7  345.57    7.76
  -6  -3   7  345.45    7.20
   6  -3  -7  351.46    7.71
  -6   3   7  349.83    5.31
   6   3  -7  344.11    7.46
  -6   3   7  354.34    8.38
  -6  -3   7  349.75    7.46
   6  -3  -6  687.33   10.03
   6  -3  -6  695.49   13.07
   6   3  -6  668.51   12.33
  -6  -3   6  712.51   12.44
  -6  -3   6  690.36   11.92
   6  -3  -6  687.90   12.40
  -6   3   6  654.89    9.29
  -6   3   6  676.71   12.90
   6   3  -6  658.93   11.76
  -6  -3   6  731.77   11.98
  -6  -3   5  256.40    6.11
   6  -3  -5  266.76    6.55
  -6  -3   5  264.13    6.37
   6  -3  -5  266.03    4.41
   6  -3  -5  267.73    6.86
   6   3  -5  253.86    6.31
  -6  -3   5  265.26    5.85
  -6   3   5  254.32    6.71
   6   3  -5  252.59    5.79
   6  -3  -4  171.05    3.01
   6   3  -4  157.84    4.16
   6   3  -4  165.14    4.74
   6  -3  -4  172.43    5.16
  -6  -3   4  168.54    4.75
   6  -3  -4  172.53    5.04
  -6  -3   4  164.98    4.75
  -6   3   4  166.04    2.68
  -6   3   4  153.11    2.63
  -6  -3   4  169.77    4.25
  -6   3   4  162.80    5.05
  -6   3   3   11.11    1.46
   6   3  -3    9.41    0.94
   6   3  -3   10.56    1.33
   6  -3  -3   13.13    1.48
   6  -3  -3    9.03    1.34
  -6   3   3   10.42    0.62
  -6  -3   3   11.53    1.37
  -6  -3   3    8.16    1.11
  -6   3   3    9.99    0.56
  -6  -3   3   11.14    1.02
   6   3  -2   45.32    2.40
   6   3  -2   45.94    1.94
  -6  -3   2   47.00    2.51
   6  -3  -2   48.12    2.68
  -6  -3   2   47.90    2.42
  -6   3   2   46.62    1.41
  -6   3   2   49.27    1.44
  -6   3   2   46.28    2.60
  -6  -3   2   45.99    1.90
  -6  -3   1  574.39   10.90
   6   3  -1  572.30   10.83
  -6  -3   1  586.24   11.20
   6  -3  -1  575.16   11.34
  -6   3   1  568.93    8.82
  -6   3   1  579.52    8.89
  -6   3   1  571.90   11.17
  -6  -3   1  581.30    9.57
   6   3   0  417.39    8.73
  -6   3   0  427.02    9.03
  -6   3   0  416.18    7.04
  -6  -3   0  433.91    8.89
  -6  -3   0  432.69    9.15
   6  -3   0  436.99    9.32
  -6   3   0  408.14    7.13
  -6  -3   0  437.79    7.49
  -6   3  -1   -2.20    1.06
   6   3   1   -0.07    0.85
  -6   3  -1    0.60    0.47
  -6  -3  -1    1.05    0.86
  -6  -3  -1    0.37    0.69
   6  -3   1    1.40    1.03
  -6   3  -1   -0.86    0.61
  -6  -3  -1    0.05    0.45
   6   3   2  249.73    6.45
  -6   3  -2  255.73    5.29
  -6  -3  -2  259.30    6.54
  -6   3  -2  257.71    6.62
   6  -3   2  254.67    6.83
  -6  -3  -2  276.05    6.95
  -6   3  -2  253.78    5.40
  -6  -3  -2  256.17    5.14
  -6  -3  -2  268.32    6.52
  -6  -3  -3  239.85    6.39
  -6   3  -3  245.09    5.34
  -6  -3  -3  248.69    5.05
  -6   3  -3  245.91    6.49
   6   3   3  225.39    6.21
   6  -3   3  245.00    6.72
  -6  -3  -3  257.35    6.76
  -6   3  -3  252.83    5.57
  -6  -3  -3  246.34    6.36
  -6  -3  -4   45.62    2.64
  -6   3  -4   37.88    1.94
  -6  -3  -4   43.42    1.84
  -6   3  -4   39.19    2.47
   6  -3   4   46.31    2.81
  -6  -3  -4   41.82    2.64
  -6   3  -4   41.73    2.14
  -6  -3  -4   40.57    2.48
   6  -3   4   40.27    2.08
  -6   3  -5   14.57    1.32
  -6  -3  -5   17.32    1.75
  -6  -3  -5   14.80    1.18
  -6   3  -5   14.28    1.45
   6  -3   5   14.16    1.36
  -6  -3  -5   13.85    1.66
  -6   3  -6    6.99    0.99
  -6  -3  -6    9.23    1.44
  -6   3  -6    5.70    1.10
  -6  -3  -6    5.73    1.30
   6  -3   6    6.13    1.06
  -6   3  -7  710.82   13.04
  -6   3  -7  724.62   13.18
  -6  -3  -7  731.32   14.02
   6  -3   7  711.97   13.16
  -6   3  -8   17.70    1.63
  -6  -3  -8   17.90    1.99
  -6   3  -8   19.09    1.81
   6  -3   8   17.74    1.79
  -6   3  -9   56.55    3.14
  -6  -3  -9   57.40    3.33
   6  -3   9   56.16    3.10
  -6   3 -10    4.29    1.28
  -6  -3 -10    5.29    1.34
  -6   3 -11   46.69    3.02
  -6  -3 -11   43.41    3.10
  -6   3 -12    9.83    1.68
  -6  -3 -12   11.97    1.99
  -6   3 -13   25.54    2.51
  -6  -3 -13   32.70    2.99
  -6   3 -14    4.47    1.65
  -6  -3 -14    3.66    1.55
  -6  -3 -15   94.74    5.12
  -6   3 -15   91.09    4.77
  -6  -3 -16    1.91    1.43
  -6   3 -16    0.54    1.38
  -6  -3 -17  137.61    6.44
  -6   3 -17  133.58    6.22
  -6   3 -18    0.29    1.60
  -6  -3 -18    0.85    1.76
  -6   3 -19   -0.66    1.68
  -6  -3 -19   -2.06    1.86
   6  -4 -25   10.69    2.13
   6   4 -24    7.10    2.23
   6  -4 -24    9.54    2.03
   6   4 -23  167.11    7.40
   6  -4 -23  160.86    6.54
   6   4 -22    6.63    2.06
   6  -4 -22    5.42    1.71
   6  -4 -21   59.20    3.69
   6   4 -21   61.21    4.28
   6   4 -20    8.95    1.99
   6  -4 -20    6.60    1.48
   6  -4 -19  137.74    5.30
   6   4 -19  138.41    6.08
  -6   4  19  131.96    6.24
   6  -4 -18    0.12    0.76
   6   4 -18   -1.06    1.33
   6  -4 -18    0.42    0.91
  -6   4  18   -0.77    1.38
   6  -4 -17   99.82    3.52
   6  -4 -17   88.65    3.90
   6   4 -17   91.15    4.67
  -6   4  17   91.09    3.58
  -6   4  17   88.85    4.86
   6   4 -16    8.28    1.75
   6  -4 -16    9.66    1.33
  -6   4  16    9.88    1.28
  -6   4  16    7.66    1.79
   6   4 -15    0.38    1.16
   6  -4 -15    0.18    0.77
  -6   4  15    1.18    0.74
  -6   4  15    0.32    1.35
   6  -4 -14   61.35    2.79
   6   4 -14   61.03    3.48
  -6   4  14   58.05    2.41
  -6   4  14   60.28    3.75
   6  -4 -13  336.08    7.21
   6   4 -13  322.67    8.57
  -6   4  13  348.04    6.68
  -6   4  13  329.54    9.15
   6  -4 -12   34.98    1.90
   6   4 -12   45.02    2.88
  -6   4  12   41.75    1.75
  -6  -4  12   44.12    2.68
  -6   4  12   39.36    2.96
   6   4 -12   38.91    2.63
   6  -4 -11   12.25    1.12
   6   4 -11   11.66    1.53
  -6  -4  11   12.51    1.53
  -6   4  11   12.15    0.90
   6   4 -11   13.50    1.58
  -6   4  11   12.23    1.78
   6   4 -10  157.37    5.23
   6  -4 -10  147.63    3.66
  -6  -4  10  147.22    3.91
  -6   4  10  156.78    3.14
  -6  -4  10  155.16    5.00
  -6   4  10  150.12    5.46
   6   4 -10  149.66    4.85
   6  -4  -9  347.19    7.78
   6   4  -9  333.01    8.16
  -6  -4   9  342.60    8.19
  -6  -4   9  339.39    6.90
   6  -4  -9  332.44    6.10
  -6   4   9  356.97    5.35
   6   4  -9  337.98    7.75
  -6   4   9  346.76    8.74
   6  -4  -8   53.13    2.69
  -6  -4   8   50.16    2.73
  -6  -4   8   52.00    2.30
   6  -4  -8   49.55    1.60
   6   4  -8   47.93    2.74
   6   4  -8   50.42    2.57
  -6   4   8   53.50    3.06
  -6  -4   7  173.18    5.24
  -6  -4   7  166.39    4.58
   6  -4  -7  168.68    5.07
   6  -4  -7  181.36    5.69
   6   4  -7  172.81    5.28
   6  -4  -7  175.70    3.18
   6   4  -7  172.22    4.75
  -6  -4   7  170.57    4.69
  -6   4   7  169.79    5.55
  -6  -4   6   26.59    1.95
  -6  -4   6   21.29    1.60
   6   4  -6   25.23    1.99
   6  -4  -6   25.77    1.98
   6  -4  -6   26.02    2.05
   6   4  -6   22.39    1.54
  -6   4   6   25.02    2.10
  -6  -4   6   25.06    1.62
  -6  -4   5   47.93    2.38
   6  -4  -5   50.33    2.68
  -6  -4   5   48.34    2.61
   6  -4  -5   48.54    2.77
   6   4  -5   48.11    2.64
  -6   4   5   47.96    2.81
  -6  -4   5   50.09    2.15
   6   4  -5   50.02    2.15
  -6  -4   4   17.88    1.62
   6  -4  -4   18.00    1.77
  -6  -4   4   18.64    1.60
   6   4  -4   17.47    1.25
   6   4  -4   18.79    1.71
   6  -4  -4   18.13    1.92
  -6   4   4   17.45    1.71
  -6  -4   4   17.96    1.30
  -6  -4   3  496.43   10.04
   6  -4  -3  493.64   10.23
  -6  -4   3  512.10    9.95
   6   4  -3  490.38   10.03
   6   4  -3  488.75    8.58
  -6  -4   3  514.59    8.63
  -6   4   3  503.35   10.41
   6   4  -2  396.39    7.20
   6   4  -2  411.92    8.86
  -6  -4   2  418.15    8.91
   6  -4  -2  414.36    9.10
  -6   4   2  416.25    5.96
  -6  -4   2  426.27    7.28
  -6   4   2  413.64    9.14
  -6   4   1  155.10    4.95
   6   4  -1  151.16    4.74
  -6  -4   1  148.59    4.75
  -6   4   1  149.16    2.75
   6  -4  -1  149.78    4.97
  -6   4   1  149.59    2.93
  -6  -4   1  158.90    3.49
  -6   4   0   21.31    1.90
  -6   4   0   22.26    0.99
   6   4   0   23.14    1.83
   6  -4   0   24.31    2.07
  -6  -4   0   19.82    1.69
  -6   4   0   19.49    1.00
  -6  -4   0   23.10    1.19
   6   4   1  362.96    8.25
  -6  -4  -1  372.13    8.40
  -6   4  -1  359.05    8.39
  -6   4  -1  370.07    6.34
   6  -4   1  369.78    8.62
  -6   4  -1  373.75    6.53
  -6  -4  -1  361.15    6.26
   6   4   2   92.05    3.70
  -6   4  -2   95.79    2.70
  -6   4  -2   96.18    3.88
  -6  -4  -2   93.18    3.79
   6  -4   2   96.41    4.00
  -6   4  -2   94.62    2.80
  -6  -4  -2   93.77    2.44
   6   4   3   16.80    1.76
  -6   4  -3   14.99    1.12
  -6  -4  -3   18.24    1.73
  -6   4  -3   13.84    1.62
   6  -4   3   14.27    1.72
  -6   4  -3   13.67    1.20
  -6  -4  -3   15.38    0.97
  -6  -4  -3   14.21    1.67
   6  -4   3   13.36    1.15
  -6  -4  -4   10.86    1.44
  -6   4  -4   10.03    1.07
  -6  -4  -4   11.47    0.89
  -6   4  -4   10.69    1.52
   6  -4   4   10.21    1.49
  -6   4  -4   12.02    1.20
  -6  -4  -4   12.18    1.50
   6  -4   4   11.01    1.12
  -6  -4  -5  418.46    9.57
  -6   4  -5  414.95    8.17
  -6  -4  -5  420.80    7.28
   6  -4   5  405.73    9.51
  -6   4  -5  413.17    8.34
  -6  -4  -5  407.22    9.35
   6  -4   5  402.45    8.28
  -6   4  -6   51.26    2.43
   6  -4   6   52.78    3.06
  -6   4  -6   55.53    2.68
  -6  -4  -6   48.85    2.93
   6  -4   6   53.07    2.59
  -6   4  -7  397.54    8.68
   6  -4   7  396.69    8.68
  -6  -4  -7  406.07    9.60
  -6   4  -8    1.02    1.03
   6  -4   8   -0.46    0.90
  -6  -4  -8   -0.02    1.15
  -6   4  -9    4.35    1.19
  -6  -4  -9    5.10    1.48
   6  -4   9    5.21    1.16
  -6   4 -10   23.28    2.15
  -6  -4 -10   23.54    2.43
  -6   4 -11   19.47    2.15
  -6  -4 -11   20.77    2.34
  -6   4 -12    4.20    1.46
  -6  -4 -12    2.17    1.51
  -6  -4 -13  125.12    5.55
  -6   4 -13  114.89    5.09
  -6   4 -14    0.02    1.41
  -6  -4 -14    9.53    2.17
  -6   4 -15  104.77    5.21
  -6  -4 -15  113.43    5.64
  -6  -4 -16   38.10    3.48
  -6   4 -16   43.67    3.56
  -6   4 -17    1.46    1.46
  -6  -4 -17    0.41    1.54
  -6   4 -18    8.21    2.09
  -6  -4 -18   10.76    2.24
  -6   4 -19   13.85    2.44
   6   5 -23    2.76    1.76
   6  -5 -23    2.02    1.24
   6   5 -22    0.75    1.46
   6  -5 -22    0.03    1.10
   6  -5 -21   78.00    4.20
   6   5 -21   82.47    5.03
   6   5 -20    8.74    2.10
   6  -5 -20    6.25    1.55
  -6   5  20    8.06    2.04
   6  -5 -19   82.90    3.97
   6   5 -19   87.19    4.95
  -6   5  19   84.98    5.02
   6   5 -18    9.00    1.90
   6  -5 -18   11.98    1.66
  -6   5  18   12.25    2.25
   6   5 -17    7.31    1.70
   6  -5 -17    4.50    1.11
  -6   5  17    4.84    1.60
   6   5 -16   13.70    2.17
   6  -5 -16   12.60    1.53
  -6   5  16   17.22    3.38
  -6   5  16   12.25    1.35
   6  -5 -15  345.52    7.83
   6   5 -15  344.76    9.50
  -6   5  15  367.11    7.36
  -6   5  15  365.29   10.13
   6  -5 -14   27.76    1.83
   6   5 -14   25.10    2.39
  -6   5  14   29.23    1.66
  -6   5  14   29.45    2.72
   6  -5 -13    7.97    1.04
   6   5 -13    8.74    1.80
  -6   5  13    6.80    1.61
  -6   5  13   10.16    0.95
   6  -5 -12   48.46    2.15
   6   5 -12   51.21    3.22
  -6   5  12   53.91    3.48
  -6   5  12   51.32    1.82
   6   5 -12   51.63    3.00
   6  -5 -11  190.37    4.41
   6   5 -11  196.67    6.27
  -6  -5  11  195.38    4.56
  -6  -5  11  203.34    6.17
  -6   5  11  203.38    6.65
  -6   5  11  213.01    3.88
   6   5 -11  189.54    5.81
   6  -5 -10    0.31    0.42
  -6  -5  10    0.65    0.58
   6   5 -10    0.60    0.97
  -6  -5  10    2.03    1.17
  -6   5  10   -0.27    1.19
   6   5 -10    1.04    0.83
   6   5  -9   -0.59    1.06
  -6  -5   9    1.15    0.97
  -6  -5   9    1.95    0.71
   6  -5  -9    1.76    0.44
  -6   5   9    1.88    1.16
   6   5  -9    0.40    1.06
  -6  -5   8   13.18    1.21
   6   5  -8   12.98    1.91
  -6  -5   8   15.30    1.68
   6  -5  -8   14.61    0.67
  -6   5   8   14.72    1.87
   6   5  -8   12.70    1.32
  -6  -5   7  955.96   15.54
  -6  -5   7  989.73   16.93
   6   5  -7  917.07   16.74
  -6   5   7  961.89   17.33
   6   5  -7  927.72   15.42
  -6  -5   6   13.47    1.36
  -6  -5   6   13.57    1.58
   6   5  -6   12.47    1.58
   6  -5  -6   13.10    1.68
   6   5  -6   13.51    1.24
  -6   5   6   11.55    1.67
   6  -5  -5  228.18    6.22
  -6  -5   5  229.55    6.27
   6  -5  -5  230.13    6.55
   6   5  -5  211.65    6.11
  -6   5   5  214.51    6.38
   6   5  -5  214.59    4.98
  -6  -5   4   56.10    2.90
   6  -5  -4   61.04    3.09
   6   5  -4   61.57    3.05
   6  -5  -4   60.78    3.18
  -6   5   4   55.49    3.05
  -6  -5   4   59.54    2.16
   6   5  -4   55.74    2.10
  -6  -5   3  234.36    6.34
   6  -5  -3  237.36    6.44
   6   5  -3  225.88    6.29
   6   5  -3  230.80    4.70
  -6  -5   3  236.13    4.73
  -6   5   3  234.32    6.59
   6  -5  -2   24.69    2.11
  -6  -5   2   24.52    1.99
  -6   5   2   25.59    2.12
   6   5  -2   23.78    2.02
   6   5  -2   25.87    1.23
  -6  -5   2   28.41    1.26
  -6  -5   1  266.44    6.87
   6  -5  -1  250.75    6.83
  -6   5   1  244.93    6.77
   6   5  -1  245.79    6.64
  -6  -5   1  260.11    4.63
  -6  -5   0  123.68    4.52
   6   5   0  126.05    4.56
  -6   5   0  130.94    4.71
  -6   5   0  139.33    2.54
   6  -5   0  131.80    4.76
  -6   5   0  133.67    2.86
  -6  -5   0  136.44    2.80
  -6   5  -1    0.04    0.36
   6   5   1   -0.28    0.90
  -6   5  -1    1.41    1.06
   6  -5   1   -0.97    0.97
  -6  -5  -1   -0.28    0.91
  -6   5  -1    1.51    0.54
  -6  -5  -1    0.35    0.32
   6   5   2    0.91    0.96
  -6   5  -2    0.95    0.47
  -6  -5  -2   -0.81    0.93
  -6   5  -2    0.40    1.03
   6  -5   2    1.11    1.06
  -6   5  -2    0.03    0.48
  -6  -5  -2    0.01    0.30
   6  -5   2    0.83    0.51
   6   5   3  170.31    5.55
  -6   5  -3  168.29    4.05
  -6  -5  -3  188.99    5.81
  -6   5  -3  167.57    5.56
   6  -5   3  182.57    5.80
  -6   5  -3  179.47    4.36
  -6  -5  -3  183.85    3.34
   6  -5   3  173.79    4.30
  -6  -5  -3  181.33    5.64
  -6   5  -4   53.69    2.19
   6   5   4   51.55    3.00
  -6  -5  -4   55.17    3.06
  -6   5  -4   53.42    3.00
   6  -5   4   53.62    3.13
  -6   5  -4   55.68    2.38
   6  -5   4   52.54    2.32
  -6  -5  -4   55.15    3.08
  -6  -5  -4   54.80    1.61
  -6  -5  -5   19.39    1.00
   6  -5   5   18.65    2.02
   6  -5   5   18.14    1.51
  -6   5  -5   22.60    1.64
  -6  -5  -5   18.68    2.02
  -6  -5  -6    0.26    0.46
   6  -5   6   -0.55    1.14
  -6   5  -6    0.43    0.74
   6  -5   6    0.33    0.76
  -6  -5  -6   -0.96    1.12
   6  -5   7   90.39    4.19
   6  -5   7   99.82    3.78
  -6   5  -7   97.17    3.72
  -6  -5  -7   90.37    4.15
   6  -5   8    0.55    1.07
  -6   5  -8   -0.18    0.92
  -6  -5  -8    2.51    1.35
   6  -5   8   -1.04    0.83
   6  -5   9   26.84    2.12
  -6   5  -9   26.88    2.25
  -6  -5  -9   24.72    2.36
  -6   5 -10    4.58    1.25
  -6  -5 -10    2.24    1.35
  -6   5 -11   10.97    1.72
  -6  -5 -11   10.05    1.77
  -6  -5 -11   11.48    1.30
  -6   5 -12   34.56    2.71
  -6  -5 -12   34.78    3.00
  -6  -5 -12   35.58    2.12
  -6  -5 -13  167.25    6.66
  -6   5 -13  159.61    6.05
  -6  -5 -14   -1.36    1.58
  -6   5 -14    0.90    1.32
  -6   5 -15   38.39    3.23
  -6  -5 -15   38.39    3.44
  -6   5 -16    7.65    1.96
  -6  -5 -16    8.09    2.08
  -6   5 -17  265.89    9.07
  -6  -5 -17  292.47    9.85
  -6  -5 -18   -1.11    1.58
  -6   5 -18   -1.03    1.46
  -6   5 -19    3.17    1.83
   6   6 -22   17.60    2.70
   6   6 -21    2.92    1.92
  -6   6  21    4.17    1.88
   6   6 -20   18.74    2.69
  -6   6  20    6.88    1.73
   6   6 -19   55.62    4.07
  -6   6  19   55.23    4.15
   6   6 -18  206.77    7.65
   6  -6 -18  209.78    5.79
  -6   6  18  198.71    7.76
   6   6 -17    5.93    1.71
   6  -6 -17    4.63    1.07
   6  -6 -17    7.15    1.09
  -6   6  17    7.57    1.76
   6   6 -16   20.72    2.48
   6  -6 -16   22.29    1.79
  -6   6  16   22.91    2.66
   6  -6 -15    8.71    1.17
   6   6 -15    7.97    1.81
  -6   6  15    7.75    1.77
  -6   6  15    9.09    1.04
   6  -6 -14  145.46    4.22
   6   6 -14  137.18    5.62
  -6   6  14  128.85    5.70
   6  -6 -13  100.59    3.29
   6   6 -13  106.22    4.75
  -6   6  13   99.12    4.79
   6  -6 -12  111.83    3.23
   6   6 -12  117.15    4.96
  -6  -6  12  110.32    3.11
   6   6 -12  115.00    4.48
  -6   6  12  107.38    4.97
   6  -6 -11  134.13    3.34
  -6  -6  11  137.51    3.71
   6   6 -11  131.41    5.29
   6   6 -11  131.67    4.67
  -6   6  11  141.68    5.56
  -6  -6  10   88.92    3.01
   6   6 -10   82.30    4.04
   6  -6 -10   83.47    2.26
   6  -6 -10   90.80    2.29
  -6   6  10   89.45    4.37
   6   6 -10   84.47    3.56
  -6  -6   9  346.63    7.24
   6   6  -9  347.91    8.86
   6  -6  -9  348.15    5.50
   6  -6  -9  360.91    5.50
   6   6  -9  351.56    7.86
  -6   6   9  366.87    9.25
  -6  -6   8  299.43    6.61
   6   6  -8  296.95    7.91
   6   6  -8  289.25    6.68
  -6   6   8  299.00    8.11
  -6  -6   7   44.09    2.75
   6   6  -7   44.91    2.85
   6   6  -7   39.15    2.07
  -6   6   7   43.38    2.94
  -6  -6   6   38.88    2.56
   6   6  -6   37.52    2.57
   6   6  -6   41.27    1.97
  -6   6   6   38.53    2.69
  -6  -6   5   91.05    3.89
   6   6  -5   81.23    3.73
   6   6  -5   83.39    2.68
  -6   6   5   84.95    3.93
  -6  -6   4   16.17    1.76
  -6   6   4   14.61    1.71
   6   6  -4   12.03    1.58
   6   6  -4   12.83    0.99
  -6  -6   3  621.43   12.34
   6   6  -3  604.47   12.24
   6   6  -3  611.06    9.58
  -6   6   3  610.67   12.51
   6  -6  -2   45.55    2.80
  -6  -6   2   40.95    2.65
   6   6  -2   43.34    2.73
  -6   6   2   43.39    2.82
   6  -6  -1    1.83    1.19
  -6  -6   1    2.08    0.98
   6   6  -1    1.13    1.06
  -6   6   1    1.11    1.02
   6  -6   0   53.81    3.04
  -6   6   0   54.20    3.11
   6   6   0   54.80    3.03
  -6  -6   0   52.20    2.99
  -6  -6  -1  518.75   11.11
   6   6   1  503.26   10.99
  -6   6  -1  526.16    7.86
  -6   6  -1  497.04   11.05
  -6   6  -1  527.79    7.83
   6  -6   1  500.22   11.03
  -6   6  -1  536.15    8.44
   6  -6   1  502.87    8.35
  -6   6  -2   27.37    1.26
  -6  -6  -2   27.23    2.26
   6   6   2   25.28    2.18
  -6   6  -2   23.90    2.14
   6  -6   2   27.49    2.32
  -6   6  -2   28.66    1.47
   6  -6   2   26.38    1.42
  -6   6  -3   27.39    1.41
   6   6   3   28.52    2.35
  -6   6  -3   26.15    2.25
   6  -6   3   25.48    2.29
   6  -6   3   25.74    1.51
  -6   6  -3   28.59    1.60
   6   6   4    0.71    1.09
  -6   6  -4    1.02    1.12
   6  -6   4   -0.71    1.08
  -6   6  -4    0.24    0.66
   6  -6   4    3.37    0.81
  -6  -6  -4    0.62    1.08
   6   6   5  295.44    7.99
   6  -6   5  300.10    8.02
  -6   6  -5  306.26    6.70
   6  -6   5  288.62    6.59
  -6  -6  -5  285.56    7.84
  -6  -6  -5  308.03    4.61
  -6  -6  -5  284.55    4.50
  -6  -6  -6    3.67    0.47
   6  -6   6    0.36    1.13
  -6   6  -6    1.97    0.85
  -6  -6  -6    2.88    0.45
   6  -6   6    3.21    0.92
  -6  -6  -6    1.32    1.14
  -6  -6  -7  233.63    4.40
   6  -6   7  222.23    6.96
   6  -6   7  228.73    6.13
  -6  -6  -7  223.23    7.06
  -6   6  -7  231.16    6.15
  -6  -6  -7  241.68    4.44
   6  -6   8   -0.80    1.21
  -6   6  -8    0.43    0.95
  -6  -6  -8    0.20    0.45
   6  -6   8   -0.14    0.78
  -6  -6  -8   -1.27    1.33
   6  -6   9   65.90    3.69
   6  -6   9   60.90    3.20
  -6   6  -9   61.14    3.20
  -6  -6  -9   66.74    3.80
  -6  -6  -9   63.05    2.26
  -6   6 -10    8.77    1.48
  -6  -6 -10   10.63    1.97
  -6  -6 -10   12.43    1.12
  -6  -6 -11   24.75    2.63
  -6   6 -11   27.67    2.43
  -6  -6 -11   26.13    1.66
  -6  -6 -12   21.27    2.56
  -6   6 -12   23.68    2.36
  -6  -6 -13  111.40    5.50
  -6   6 -13  107.49    4.94
  -6  -6 -14   35.40    3.28
  -6   6 -14   30.42    2.83
  -6  -6 -15   28.00    3.15
  -6   6 -15   26.53    2.82
  -6  -6 -16    5.75    1.74
  -6   6 -16    8.36    1.94
  -6  -6 -17   26.39    3.22
  -6   6 -17   19.09    2.66
  -6   6 -18   78.49    4.94
  -6   6 -19  111.91    6.04
   6   7 -22   39.55    3.86
   6   7 -21   27.08    3.17
  -6   7  21   30.44    3.45
   6   7 -20   44.50    3.76
  -6   7  20   45.21    4.07
   6   7 -19    8.69    1.97
  -6   7  19    4.90    1.79
   6   7 -18   -1.45    1.53
  -6   7  18   -0.10    1.61
   6   7 -17    3.35    1.41
   6  -7 -17    2.34    0.81
  -6   7  17    3.40    1.70
   6   7 -16  119.76    5.64
   6  -7 -16  113.94    3.62
  -6   7  16  109.49    5.59
   6   7 -15   44.46    3.41
   6  -7 -15   47.57    2.12
  -6   7  15   54.31    3.86
   6   7 -14    4.19    1.49
   6  -7 -14    4.36    0.82
   6  -7 -14    3.73    0.79
  -6   7  14    5.42    1.71
  -6  -7  13    6.29    0.78
   6   7 -13    8.32    1.72
   6  -7 -13    6.66    0.89
   6  -7 -13    8.20    0.98
  -6   7  13    8.60    1.92
   6  -7 -12    1.73    0.58
   6   7 -12   -0.38    1.23
  -6  -7  12    2.59    0.60
   6  -7 -12    3.06    0.61
  -6   7  12    4.99    1.64
   6   7 -12    0.80    0.97
  -6  -7  11    0.48    0.58
   6  -7 -11    0.79    0.44
   6   7 -11    0.15    1.14
   6  -7 -11    1.99    0.53
  -6   7  11    2.78    1.63
   6   7 -11    2.17    0.88
   6   7 -10  150.27    5.70
   6  -7 -10  145.00    2.98
  -6  -7  10  149.61    4.19
   6  -7 -10  151.22    2.99
   6   7 -10  149.07    4.78
  -6   7  10  157.15    5.93
   6   7  -9   37.27    2.83
   6   7  -9   33.47    2.09
  -6   7   9   34.52    2.84
   6   7  -8   16.70    1.97
   6   7  -8   17.67    1.49
  -6   7   8   15.67    2.02
   6   7  -7  156.89    5.56
  -6   7   7  154.18    5.67
   6   7  -7  154.13    4.25
   6   7  -6  185.77    6.10
   6   7  -6  183.51    4.51
  -6   7   6  198.40    6.33
   6   7  -5   40.95    2.79
  -6   7   5   41.26    2.86
   6   7  -5   44.57    1.86
   6   7  -4   87.81    4.02
   6   7  -4   92.35    2.52
  -6   7   4   89.94    4.16
   6   7  -3  491.33   10.83
   6   7  -3  488.75    7.69
  -6   7   3  497.70   11.02
   6   7  -2  380.13    9.29
  -6   7   2  396.34    9.51
  -6   7   1  402.74    9.68
   6   7  -1  407.51    9.59
   6  -7   0   99.86    4.27
  -6   7   0  100.69    4.37
   6   7   0   92.46    4.18
   6  -7   0  100.20    2.27
  -6   7  -1   91.54    1.96
   6   7   1   88.94    4.07
  -6   7  -1   91.78    4.20
   6  -7   1   85.47    2.40
  -6   7  -1   93.77    1.95
   6  -7   1   91.07    4.07
  -6   7  -2  308.69    5.41
   6   7   2  292.49    8.04
  -6   7  -2  294.48    8.11
   6  -7   2  304.17    5.89
  -6   7  -2  312.03    5.41
   6  -7   2  292.78    8.01
   6   7   3   87.80    4.19
  -6   7  -3   98.34    4.38
  -6   7  -3  100.45    3.07
   6  -7   3   95.40    3.01
  -6   7  -3   96.07    2.70
   6  -7   3   96.28    4.29
   6   7   4  347.86    9.11
  -6   7  -4  357.58    9.19
   6  -7   4  358.77    9.12
   6  -7   4  365.34    7.37
  -6   7  -4  373.44    7.41
   6   7   5   24.19    2.37
   6  -7   5   24.86    2.35
   6  -7   5   25.32    1.77
  -6   7  -5   28.35    1.81
  -6  -7  -5   25.56    2.33
   6  -7   6  422.53   10.16
   6  -7   6  401.55    8.63
  -6   7  -6  423.60    8.74
  -6  -7  -6  424.46   10.29
   6  -7   7  149.05    5.63
  -6   7  -7  157.51    4.88
   6  -7   7  147.51    4.76
  -6  -7  -7  155.86    5.89
  -6  -7  -7  153.40    2.59
  -6  -7  -7  146.68    2.52
  -6  -7  -8  418.33    6.59
   6  -7   8  401.87   10.11
  -6  -7  -8  395.11   10.34
  -6   7  -8  396.51    9.14
   6  -7   8  409.26    9.20
  -6  -7  -8  426.19    6.64
   6  -7   9    4.87    1.43
   6  -7   9    7.95    1.30
  -6   7  -9    6.67    1.26
  -6  -7  -9    6.81    1.75
  -6  -7  -9    7.08    0.72
   6  -7  10    3.48    1.35
  -6   7 -10   -0.67    1.15
  -6  -7 -10    2.47    1.29
   6  -7  11   58.04    3.55
  -6  -7 -11   58.30    3.91
  -6   7 -11   61.18    3.51
  -6   7 -12  132.97    5.45
  -6  -7 -12  135.21    5.97
  -6  -7 -13   29.47    3.08
  -6   7 -13   27.18    2.68
  -6  -7 -14    0.58    1.52
  -6   7 -14   -0.40    1.21
  -6  -7 -15   43.88    3.78
  -6   7 -15   45.32    3.55
  -6   7 -16   27.26    2.94
  -6  -7 -16   29.82    3.15
  -6  -7 -17   12.65    2.59
  -6   7 -17   16.84    2.65
  -6   7 -18   11.77    2.37
  -6   7 -19    8.51    2.14
   6   8 -21   16.13    2.62
   6   8 -20    0.25    1.49
  -6   8  20    0.05    1.60
   6   8 -19   -1.69    1.76
  -6   8  19    1.99    1.71
   6   8 -18  148.18    6.69
  -6   8  18  148.08    6.75
   6   8 -17   35.18    3.40
  -6   8  17   35.21    3.33
   6   8 -16   21.87    2.68
  -6   8  16   22.87    2.73
   6   8 -15    6.45    1.94
  -6   8  15    4.30    1.53
   6   8 -14   98.12    5.01
   6  -8 -14   92.10    2.68
  -6   8  14   94.20    4.97
   6   8 -13  144.56    5.98
   6  -8 -13  132.71    3.66
  -6   8  13  141.05    5.96
  -6  -8  12   74.26    2.69
   6   8 -12   70.46    4.17
   6  -8 -12   68.12    2.27
   6  -8 -12   72.38    2.31
   6   8 -12   70.72    3.49
  -6   8  12   67.92    4.08
   6  -8 -11  285.10    5.15
   6   8 -11  292.91    8.66
   6  -8 -11  294.57    5.20
   6   8 -11  279.93    7.26
  -6   8  11  283.78    8.60
   6   8 -10  169.99    6.24
   6  -8 -10  161.06    2.95
   6  -8 -10  170.42    2.97
   6   8 -10  158.04    4.97
  -6   8  10  166.46    6.28
   6   8  -9  220.58    7.08
   6   8  -9  205.80    5.58
  -6   8   9  216.47    7.14
   6   8  -8  510.38   11.64
  -6   8   8  492.60   11.64
   6   8  -8  484.30    9.46
   6   8  -7   11.91    1.85
   6   8  -7    8.37    1.06
  -6   8   7    5.34    1.45
   6   8  -6   64.21    3.62
   6   8  -6   59.45    2.30
  -6   8   6   66.62    3.73
   6   8  -5    3.33    1.39
   6   8  -5    5.41    0.69
  -6   8   5    5.40    1.38
   6   8  -4  231.95    7.09
  -6   8   4  244.74    7.34
   6   8  -4  242.01    4.58
   6   8  -3   50.07    3.18
   6   8  -3   51.07    1.40
  -6   8   3   42.91    2.98
  -6   8   2   -1.16    1.09
   6   8  -2    0.72    1.21
  -6   8   1  122.00    4.96
   6   8  -1  116.28    4.84
  -6   8   0  210.33    6.66
   6   8   0  200.04    6.56
   6  -8   0  207.67    3.83
  -6   8  -1   14.42    0.66
  -6   8  -1   14.29    0.63
  -6   8  -1   16.32    2.07
   6   8   1    9.91    1.84
   6  -8   1   13.87    0.95
   6  -8   1   10.53    1.63
   6   8   2    3.51    1.35
  -6   8  -2    3.89    1.18
   6  -8   2    6.01    0.76
  -6   8  -2    5.64    0.62
   6  -8   2    2.80    1.26
   6   8   3   -0.51    1.17
  -6   8  -3   -0.14    1.17
   6  -8   3    0.76    0.56
  -6   8  -3    0.64    0.50
   6  -8   3   -1.67    1.38
   6   8   4   84.24    4.27
  -6   8  -4   86.00    4.27
  -6   8  -4   88.29    2.83
   6  -8   4   87.57    4.24
   6  -8   4   89.24    3.10
   6   8   5   28.07    2.56
  -6   8  -5   28.14    2.57
  -6   8  -5   29.78    1.76
   6  -8   5   29.53    2.57
   6  -8   5   26.86    1.79
  -6  -8  -5   29.49    2.67
   6   8   6   72.77    4.03
   6  -8   6   69.19    3.85
  -6   8  -6   75.80    2.94
  -6   8  -6   78.12    3.23
   6  -8   6   76.19    3.19
  -6  -8  -6   73.30    4.05
   6  -8   7   93.42    4.50
  -6   8  -7   92.58    3.73
   6  -8   7   95.10    3.73
  -6  -8  -7   92.14    4.58
   6  -8   8    1.85    1.34
   6  -8   8   -0.13    0.76
  -6   8  -8    0.02    1.02
  -6  -8  -8    0.42    1.24
  -6  -8  -9    6.39    0.48
   6  -8   9    4.91    1.50
  -6   8  -9    6.96    1.34
  -6  -8  -9    8.22    1.77
   6  -8  10  101.47    4.80
  -6  -8 -10   95.35    4.93
  -6   8 -10  103.93    4.41
   6  -8  11   -0.74    1.34
  -6   8 -11   -2.27    1.23
  -6  -8 -11    0.33    1.34
   6  -8  12    1.20    1.22
  -6  -8 -12    2.77    1.51
  -6   8 -12    2.53    1.34
  -6   8 -13    0.14    1.23
  -6  -8 -13    1.69    1.77
  -6   8 -14  186.42    6.91
  -6  -8 -14  190.90    7.72
  -6  -8 -15   97.91    5.59
  -6   8 -15  105.11    5.26
  -6  -8 -16   15.05    2.64
  -6   8 -16   15.06    2.33
  -6   8 -17    5.52    1.87
  -6   8 -18   68.49    4.78
   6   9 -20   59.35    4.48
  -6   9  20   62.75    4.70
   6   9 -19    8.29    2.09
  -6   9  19    5.59    1.98
   6   9 -18    1.20    1.46
  -6   9  18    0.37    1.60
   6   9 -17    0.39    1.41
  -6   9  17    2.69    1.86
   6   9 -16  183.01    7.33
  -6   9  16  174.83    7.28
   6   9 -15   50.59    3.83
  -6   9  15   44.61    3.70
   6   9 -14    8.85    1.83
  -6   9  14    8.95    2.04
   6   9 -13   71.16    4.41
  -6   9  13   63.95    4.15
   6   9 -12  113.23    5.34
   6  -9 -12  108.90    2.88
   6   9 -12  113.67    4.46
  -6   9  12  112.37    5.37
   6  -9 -11   89.01    2.21
   6   9 -11   98.71    4.93
   6   9 -11   89.73    3.79
  -6   9  11  102.42    5.04
   6   9 -10    8.62    1.90
  -6   9  10    6.48    1.64
   6   9 -10    6.10    1.16
   6   9  -9   53.02    3.53
   6   9  -9   51.90    2.57
  -6   9   9   53.45    3.57
   6   9  -8  188.24    6.64
  -6   9   8  186.56    6.62
   6   9  -8  177.35    4.84
   6   9  -7    7.42    1.66
   6   9  -7    6.90    0.93
  -6   9   7    3.83    1.38
   6   9  -6  289.47    8.29
  -6   9   6  269.22    8.11
   6   9  -6  273.53    5.69
   6   9  -5   11.45    1.69
   6   9  -5   12.74    0.97
  -6   9   5    8.06    1.56
   6   9  -4    0.40    0.34
  -6   9   4   -2.05    1.52
   6   9  -4   -0.32    1.20
  -6   9   3   25.43    2.40
   6   9  -3   25.19    2.38
   6   9  -2   65.48    3.73
  -6   9   2   64.15    3.70
  -6   9   1  393.47    9.86
   6   9  -1  382.11    9.71
   6  -9  -1  373.24    5.62
  -6   9   0   58.97    3.59
   6   9   0   61.93    3.63
   6  -9   0   61.85    1.80
  -6   9  -1   35.33    2.88
  -6   9  -1   31.24    0.99
   6   9   1   32.40    2.65
  -6   9  -1   33.48    1.02
   6  -9   1   35.22    1.53
   6   9   2  122.55    5.23
  -6   9  -2  124.96    5.30
   6  -9   2  131.30    3.50
   6  -9   2  129.40    5.23
  -6   9  -2  134.08    2.94
   6   9   3   25.31    2.53
  -6   9  -3   20.55    2.28
   6  -9   3   21.34    1.48
  -6   9  -3   23.19    1.31
   6  -9   3   21.31    2.35
   6   9   4  204.85    7.00
  -6   9  -4  206.33    7.06
   6  -9   4  209.26    6.91
  -6   9  -4  216.64    4.87
   6  -9   4  213.77    5.29
   6   9   5   -1.14    1.38
  -6   9  -5   -0.61    1.28
   6  -9   5    0.00    1.23
  -6   9  -5   -0.12    0.61
   6  -9   5    0.46    0.77
  -6  -9  -5    1.93    1.31
   6   9   6   77.77    4.34
  -6   9  -6   93.70    3.28
   6  -9   6   74.30    4.09
   6  -9   6   82.36    3.41
  -6  -9  -6   81.05    4.36
  -6   9  -7   35.06    2.13
   6  -9   7   38.79    3.01
   6  -9   7   26.06    2.05
  -6  -9  -7   32.25    2.86
   6  -9   8    6.91    1.73
  -6   9  -8    6.07    1.15
   6  -9   8    7.64    1.31
  -6  -9  -8    7.71    1.90
  -6   9  -9   -0.73    1.05
   6  -9   9    0.50    1.25
  -6   9  -9    0.87    0.95
  -6  -9  -9   -2.17    1.68
   6  -9  10   15.41    2.11
  -6   9 -10   13.94    1.66
  -6   9 -10   13.87    1.87
  -6  -9 -10   15.56    2.40
   6  -9  11    7.40    1.70
  -6   9 -11    5.85    1.35
  -6   9 -11    5.94    1.42
  -6  -9 -11    4.74    1.94
   6  -9  12   61.10    3.87
  -6   9 -12   57.44    3.50
  -6  -9 -12   61.72    4.33
  -6   9 -12   62.23    3.70
   6  -9  13   18.80    2.24
  -6   9 -13   18.05    2.19
  -6  -9 -13   20.06    2.64
  -6  -9 -14    4.74    1.74
  -6   9 -14    4.95    1.43
  -6   9 -15   -0.54    1.54
  -6  -9 -15   -1.95    1.82
  -6   9 -16  138.96    6.36
  -6   9 -17   38.66    3.57
  -6   9 -18   85.07    5.24
   6  10 -19   22.67    3.14
  -6  10  19   26.80    3.25
   6  10 -18   57.36    4.53
  -6  10  18   56.79    4.35
   6  10 -17    0.08    1.56
  -6  10  17    1.51    1.63
   6  10 -16    6.28    1.85
  -6  10  16    4.73    1.85
   6  10 -15   -0.10    1.47
  -6  10  15   -1.65    1.73
   6  10 -14   26.67    2.86
  -6  10  14   25.95    2.96
   6  10 -13    6.27    1.89
  -6  10  13    4.43    1.82
   6  10 -12  161.42    6.69
  -6  10  12  162.81    6.71
   6  10 -11   39.15    3.31
   6  10 -11   31.08    2.26
  -6  10  11   36.74    3.24
   6  10 -10   10.80    1.99
  -6  10  10    8.74    1.80
   6  10 -10    8.53    1.65
   6  10  -9    4.15    1.62
  -6  10   9    2.03    1.32
   6  10  -9    3.78    0.90
   6  10  -8  411.72   10.78
  -6  10   8  393.28   10.59
   6  10  -8  406.57    8.23
   6  10  -7   12.70    1.97
   6  10  -7   12.32    1.18
  -6  10   7   13.93    1.97
   6  10  -6    7.40    1.65
   6  10  -6    6.02    0.79
  -6  10   6    7.01    1.65
   6  10  -5    4.47    1.46
  -6  10   5    6.20    1.59
   6  10  -5    6.45    0.71
   6  10  -4  221.47    7.24
   6  10  -4  208.02    3.75
  -6  10   4  210.10    7.10
  -6  10   3    1.91    1.15
   6  10  -3    4.65    1.44
   6  10  -2  319.79    9.06
  -6  10   2  322.41    9.03
   6  10  -1    0.12    1.20
  -6  10   1    1.05    1.21
   6 -10  -1    1.08    0.35
  -6  10   0  218.15    7.23
   6  10   0  221.46    7.24
   6 -10   0  214.10    4.24
  -6  10  -1   25.48    0.90
  -6  10  -1   24.46    2.48
   6  10   1   25.72    2.48
   6 -10   1   24.00    1.33
   6  10   2   70.90    4.06
  -6  10  -2   66.68    3.93
  -6  10  -2   70.94    2.03
   6 -10   2   68.00    2.46
   6  10   3  195.32    6.95
  -6  10  -3  187.12    6.79
   6 -10   3  186.65    4.77
  -6  10  -3  195.52    4.27
   6  10   4  413.73   10.78
  -6  10  -4  413.16   10.82
   6 -10   4  398.47    8.28
  -6  10  -4  424.33    7.76
   6 -10   4  416.66   10.58
   6  10   5  204.35    7.27
  -6  10  -5  200.36    7.18
   6 -10   5  190.25    6.78
  -6  10  -5  214.47    5.11
   6 -10   5  196.59    5.39
   6  10   6  185.54    6.92
  -6  10  -6  187.89    6.98
  -6  10  -6  196.11    5.09
   6 -10   6  180.59    6.60
   6 -10   6  173.10    5.28
  -6 -10  -6  186.08    6.88
  -6  10  -7   62.49    2.85
   6 -10   7   57.45    3.72
   6 -10   7   57.33    3.03
  -6 -10  -7   58.00    3.81
   6 -10   8   16.49    2.30
  -6  10  -8   12.79    1.50
  -6 -10  -8   12.69    2.06
   6 -10   9   28.02    2.71
  -6  10  -9   33.00    2.32
  -6 -10  -9   30.79    3.02
   6 -10  10  129.55    5.71
  -6  10 -10  136.81    4.96
  -6 -10 -10  141.93    6.30
   6 -10  11   13.86    2.15
  -6  10 -11   11.35    1.68
  -6 -10 -11   14.10    2.40
   6 -10  12   10.67    1.89
  -6  10 -12   13.43    1.79
  -6 -10 -12    8.14    2.01
   6 -10  13   13.64    2.21
  -6  10 -13   16.38    2.11
  -6 -10 -13    8.29    2.05
  -6  10 -14   88.19    4.56
   6 -10  14   90.22    4.81
  -6 -10 -14   83.83    5.23
  -6  10 -15    6.20    1.65
  -6  10 -15    5.45    1.72
  -6  10 -16    3.52    1.55
  -6  10 -16    1.08    1.57
  -6  10 -17    0.91    1.38
  -6  10 -17    2.91    1.54
  -6  10 -18    9.76    2.12
   6  11 -18    7.78    2.28
  -6  11  18    6.67    2.06
   6  11 -17   59.17    4.51
  -6  11  17   61.99    4.55
   6  11 -16  180.98    7.75
  -6  11  16  183.62    7.67
   6  11 -15  104.47    5.82
  -6  11  15  117.90    5.98
   6  11 -14  142.46    6.64
  -6  11  14  130.86    6.24
   6  11 -13    1.93    1.44
  -6  11  13    1.51    1.43
   6  11 -12   58.78    4.15
  -6  11  12   66.59    4.38
   6  11 -11  106.50    5.46
  -6  11  11  104.11    5.31
   6  11 -10  116.79    5.59
  -6  11  10  115.67    5.59
   6  11  -9   38.33    3.34
  -6  11   9   28.64    2.87
   6  11  -8   55.29    3.88
  -6  11   8   51.02    3.69
   6  11  -7  115.19    5.48
   6  11  -7  107.70    3.37
  -6  11   7  102.54    5.12
   6  11  -6  197.97    7.15
   6  11  -6  186.45    4.32
  -6  11   6  191.60    7.00
   6  11  -5  111.91    5.26
   6  11  -5  108.51    2.72
  -6  11   5  113.83    5.23
  -6  11   4   -1.05    1.42
   6  11  -4   -1.53    1.56
   6  11  -3   50.55    3.56
  -6  11   3   51.87    3.52
  -6  11   2    7.86    1.77
   6  11  -2    6.04    1.70
   6 -11  -2    5.23    0.41
  -6  11   1   66.63    4.03
   6  11  -1   62.74    3.96
   6 -11  -1   73.82    1.99
   6  11   0    1.38    1.38
  -6  11   0    2.16    1.53
   6 -11   0    3.37    0.66
  -6  11  -1   16.67    2.15
  -6  11  -1   19.69    0.85
   6  11   1   17.23    2.24
   6 -11   1   17.38    1.20
  -6  11  -2   40.06    1.53
   6  11   2   32.59    3.01
  -6  11  -2   37.96    3.07
   6 -11   2   38.21    1.93
   6  11   3   82.63    4.52
  -6  11  -3   79.31    4.46
  -6  11  -3   79.41    2.53
   6 -11   3   74.45    2.90
   6  11   4   40.79    3.31
  -6  11  -4   41.74    3.35
   6 -11   4   43.28    2.32
   6 -11   4   41.98    3.29
  -6  11  -4   43.49    2.00
   6  11   5   -0.66    1.38
  -6  11  -5    4.03    2.92
   6 -11   5    3.45    1.50
  -6  11  -5    2.73    0.82
   6 -11   5    3.90    1.05
  -6  11  -6    6.03    1.06
   6 -11   6    6.19    1.70
   6  11   6    3.54    1.55
  -6  11  -6    7.79    1.84
  -6 -11  -6    6.31    1.78
   6 -11   7    2.68    1.51
  -6  11  -7    3.07    0.97
   6  11   7    1.48    1.48
  -6 -11  -7    2.00    1.64
  -6  11  -8   87.44    3.61
   6 -11   8   78.46    4.53
  -6 -11  -8   74.02    4.51
  -6  11  -9   26.34    2.19
   6 -11   9   23.95    2.70
  -6 -11  -9   25.16    2.88
   6 -11  10   14.70    2.13
  -6  11 -10   15.58    1.75
  -6 -11 -10   14.04    2.53
  -6  11 -11   58.09    3.37
   6 -11  11   55.65    3.87
  -6 -11 -11   64.48    4.40
   6 -11  12   95.12    5.03
  -6  11 -12   94.89    4.44
  -6 -11 -12   82.23    5.07
   6 -11  13   -1.11    1.40
  -6  11 -13    0.75    1.26
  -6 -11 -13   -0.98    1.67
   6 -11  14  113.42    5.53
  -6  11 -14  121.28    5.37
  -6  11 -15   45.07    3.55
  -6  11 -16   25.23    2.84
  -6  11 -17   33.91    3.34
  -6  12  17   75.65    5.01
   6  12 -16   12.51    2.40
  -6  12  16    6.15    1.90
   6  12 -15    0.67    1.46
  -6  12  15    0.15    1.49
   6  12 -14   58.38    4.31
  -6  12  14   49.92    3.99
   6  12 -13   10.39    2.23
  -6  12  13    9.59    2.05
   6  12 -12   63.70    4.39
  -6  12  12   66.03    4.45
   6  12 -11   23.22    2.86
  -6  12  11   18.04    2.59
   6  12 -10   59.72    4.22
  -6  12  10   68.37    4.34
   6  12  -9  338.04   10.24
  -6  12   9  337.12   10.05
   6  12  -8   39.83    3.48
  -6  12   8   44.11    3.45
   6  12  -7    2.82    1.55
  -6  12   7    7.38    1.90
   6  12  -6    9.46    1.85
  -6  12   6    3.62    1.60
   6  12  -5  201.46    7.47
  -6  12   5  209.56    7.41
   6  12  -4   45.36    3.48
  -6  12   4   48.68    3.55
  -6  12   3   28.75    2.87
   6  12  -3   33.47    3.18
  -6  12   2   -1.13    1.55
   6  12  -2    0.91    1.36
   6  12  -1    9.25    2.03
  -6  12   1    7.32    1.74
  -6  12   0   45.32    3.47
   6  12   0   47.59    3.59
   6  12   1   52.67    3.71
  -6  12  -1   53.28    3.76
  -6  12  -2   37.61    1.56
   6  12   2   39.00    3.29
  -6  12  -2   33.99    3.01
  -6  12  -3   11.84    1.06
   6  12   3   10.33    1.96
  -6  12  -3   12.84    2.11
  -6  12  -4   69.15    2.62
   6  12   4   67.24    4.26
  -6  12  -4   76.07    4.55
   6 -12   5  119.03    5.57
  -6  12  -5  129.24    3.94
   6  12   5  125.55    5.94
  -6  12  -5  130.46    6.08
  -6  12  -6  242.74    6.01
   6 -12   6  222.46    7.85
   6  12   6  238.99    8.42
  -6  12  -6  233.80    8.29
  -6 -12  -6  223.61    8.12
  -6  12  -7   15.98    1.62
   6 -12   7   14.01    2.16
   6  12   7   13.39    2.29
  -6  12  -7   17.24    2.55
  -6 -12  -7   11.84    2.17
   6 -12   8   29.68    2.91
  -6  12  -8   30.39    2.28
  -6 -12  -8   26.00    2.96
  -6  12  -9    4.37    1.16
   6 -12   9    4.52    1.74
  -6 -12  -9    3.19    1.81
   6 -12  10   43.63    3.52
  -6  12 -10   50.86    3.06
  -6 -12 -10   42.34    3.71
  -6  12 -11   95.13    4.36
   6 -12  11   89.10    5.03
  -6 -12 -11   87.67    5.33
  -6  12 -12    1.14    1.18
   6 -12  12   -0.32    1.42
  -6 -12 -12   -2.09    1.71
  -6  12 -13    0.78    1.36
   6 -12  13    1.79    1.60
   6 -12  14   21.45    2.61
  -6  12 -14   24.34    2.70
   6 -12  15   45.50    3.73
  -6  13  16   10.12    2.23
   6  13 -15   44.30    4.11
  -6  13  15   47.83    4.10
   6  13 -14   13.12    2.55
  -6  13  14   15.78    2.65
   6  13 -13   30.74    3.32
  -6  13  13   24.33    2.84
   6  13 -12    4.22    1.83
  -6  13  12    5.06    1.79
   6  13 -11   44.58    3.76
  -6  13  11   42.57    3.68
   6  13 -10    3.35    1.65
  -6  13  10    3.16    1.61
   6  13  -9   30.31    3.16
  -6  13   9   28.06    2.99
   6  13  -8    1.03    1.39
  -6  13   8   -1.16    1.47
   6  13  -7   34.98    3.29
  -6  13   7   31.43    3.12
   6  13  -6   99.31    5.33
  -6  13   6   91.97    4.98
   6  13  -5  296.73    9.44
  -6  13   5  278.63    9.01
   6  13  -4    6.30    1.92
  -6  13   4    7.20    1.56
   6  13  -3   82.93    4.80
  -6  13   3   86.60    4.86
   6  13  -2   -1.14    1.57
  -6  13   2   -0.94    1.34
   6  13  -1  169.32    6.94
  -6  13   1  178.23    7.01
   6  13   0   30.36    3.03
  -6  13   0   29.45    2.92
  -6  13  -1   16.02    2.28
   6  13   1   12.21    1.99
   6  13   2   22.88    2.74
  -6  13  -2   20.63    2.64
   6  13   3  267.89    8.97
  -6  13  -3  258.78    8.82
   6  13   4    3.48    1.56
  -6  13  -4    4.31    1.78
   6  13   5  120.10    5.98
  -6  13  -5  116.54    5.83
   6 -13   6   -0.65    1.37
   6  13   6   -0.37    1.77
  -6  13  -6   -1.36    1.52
  -6 -13  -6    1.10    1.53
   6 -13   7   40.24    3.44
  -6  13  -7   46.63    3.86
   6  13   7   47.38    3.92
  -6 -13  -7   42.41    3.70
   6 -13   8   -1.88    1.58
  -6  13  -8   -0.31    1.57
  -6 -13  -8   -0.18    1.58
   6 -13   9   30.53    3.14
  -6 -13  -9   23.85    2.89
   6 -13  10    2.48    1.61
  -6 -13 -10    3.41    1.85
   6 -13  11    6.11    1.85
  -6 -13 -11    7.01    2.11
   6 -13  12    7.57    2.02
   6 -13  13   16.43    2.53
   6 -13  14    2.43    1.60
   6 -13  15   12.89    2.28
  -6  14  14    1.92    1.69
   6  14 -13   46.29    4.14
  -6  14  13   38.16    4.29
   6  14 -12    7.14    2.03
  -6  14  12    4.34    1.65
   6  14 -11    0.47    1.56
  -6  14  11    4.42    1.95
   6  14 -10    2.04    1.65
  -6  14  10   -1.85    1.70
   6  14  -9  251.33    9.15
  -6  14   9  252.94    8.88
   6  14  -8    0.83    1.48
  -6  14   8    3.49    1.61
   6  14  -7   16.28    2.57
  -6  14   7   15.28    2.43
   6  14  -6    8.22    2.01
  -6  14   6   13.47    2.29
   6  14  -5   93.53    5.36
  -6  14   5   86.87    4.95
   6  14  -4  112.66    5.78
  -6  14   4  117.72    5.79
   6  14  -3  121.45    5.98
  -6  14   3  117.35    5.80
   6  14  -2   31.05    3.18
  -6  14   2   37.69    3.43
   6  14  -1    2.70    1.82
  -6  14   1    0.10    1.43
   6  14   0   18.48    2.54
  -6  14   0   19.70    2.64
   6  14   1  143.36    6.61
  -6  14  -1  136.74    6.34
   6  14   2    4.07    1.80
  -6  14  -2    0.78    1.65
   6  14   3    0.71    1.55
  -6  14  -3    0.66    1.58
   6  14   4   -0.42    1.67
  -6  14  -4    1.45    1.56
   6  14   5  193.32    7.89
  -6  14  -5  195.26    7.83
   6 -14   6    2.39    1.38
   6  14   6    0.80    1.48
  -6  14  -6   -0.39    1.34
  -6 -14  -6    3.14    1.91
   6 -14   7   12.28    2.21
   6  14   7   15.58    2.61
  -6  14  -7   18.53    2.77
  -6 -14  -7   20.78    2.89
   6 -14   8    1.02    1.37
  -6  14  -8   -0.57    1.41
  -6 -14  -8    0.73    1.65
   6 -14   9    5.26    1.83
  -6  14  -9    7.62    2.08
  -6 -14  -9    7.59    2.21
   6 -14  10   30.94    3.27
   6 -14  11  112.60    5.82
   6 -14  12    0.65    1.42
   6 -14  13    4.39    1.79
   6 -14  14    1.84    1.59
  -6  15  12   12.71    2.35
  -6  15  11   49.62    4.07
   6  15 -10   16.85    2.79
  -6  15  10   11.58    2.23
   6  15  -9   16.36    2.68
  -6  15   9   17.10    2.57
   6  15  -8   50.12    4.15
  -6  15   8   46.12    3.81
   6  15  -7   90.69    5.41
  -6  15   7  103.14    5.59
   6  15  -6   15.18    2.60
  -6  15   6   17.00    2.58
   6  15  -5   13.46    2.33
  -6  15   5    9.55    2.06
  -6  15   4    3.39    1.58
   6  15  -4    4.58    1.76
  -6  15   3   22.94    2.91
   6  15  -3   19.71    2.84
   6  15  -2   32.63    3.43
  -6  15   2   30.91    3.29
   6  15  -1    1.38    1.68
  -6  15   1    6.18    2.16
  -6  15   0   10.51    2.18
   6  15   0   10.06    2.15
  -6  15  -1    7.55    2.01
   6  15   1    7.01    2.02
  -6  15  -2    1.66    1.63
   6  15   2    1.27    1.58
   6  15   3   34.40    3.43
  -6  15  -3   34.28    3.45
   6  15   4   39.88    3.65
  -6  15  -4   40.10    3.77
   6  15   5   47.32    3.92
  -6  15  -5   44.47    3.86
   6  15   6    0.93    1.68
  -6  15  -6    0.34    1.54
  -6 -15  -6    4.91    1.86
   6 -15   7   15.98    2.59
   6  15   7   23.60    3.19
  -6  15  -7   25.66    3.22
   6 -15   8    0.19    1.42
   6 -15   9   24.13    2.87
   6 -15  10   17.82    2.74
   6 -15  11    5.32    2.01
  -6  16  10   11.88    2.45
  -6  16   9   16.52    2.52
  -6  16   8   50.65    4.12
   6  16  -7    3.65    1.55
  -6  16   7    3.98    1.89
   6  16  -6    3.67    1.71
  -6  16   6    5.71    2.56
   6  16  -5   30.69    3.42
  -6  16   5   20.98    3.37
   6  16  -4   83.27    5.36
  -6  16   4   70.56    4.75
   6  16  -3   77.01    5.18
  -6  16   3   74.69    4.82
   6  16  -2   32.28    3.48
  -6  16   2   31.71    3.39
   6  16  -1    6.16    2.02
  -6  16   1    5.95    1.88
  -6  16   0   21.00    2.93
   6  16   0   22.04    2.90
   6  16   1  149.68    7.08
  -6  16  -1  137.98    6.65
  -6  16  -2   15.79    2.59
   6  16   2   15.42    2.50
   6  16   3    1.50    1.55
  -6  16  -3    3.17    1.67
  -6  16  -4   15.09    2.46
  -6  17   5    1.78    1.82
  -6  17   4   13.04    2.43
  -6  17   3   35.51    3.56
  -6  17   2   77.23    5.09
  -6  17   1    2.64    1.76
   7   0 -25    2.99    1.77
   7   0 -24    4.57    1.76
   7   0 -23    0.91    1.34
   7   0 -22   40.36    3.35
   7   0 -21   -0.42    1.24
   7   0 -20   27.80    2.72
   7   0 -19    1.39    1.23
   7   0 -18    7.58    1.50
   7   0 -17   -0.89    1.11
   7   0 -16   92.56    4.17
  -7   0  16   94.12    3.86
  -7   0  16   92.23    4.77
   7   0 -15    0.41    0.96
  -7   0  15    0.06    0.88
  -7   0  15   -0.46    1.22
   7   0 -14    4.25    1.09
  -7   0  14    7.07    1.20
  -7   0  14    6.64    1.65
   7   0 -13    0.02    0.89
  -7   0  13    0.11    0.75
  -7   0  13    0.67    1.25
   7   0 -12    1.75    0.99
  -7   0  12    0.82    0.78
  -7   0  12    1.82    1.27
   7   0 -11   -0.12    0.70
  -7   0  11   -0.04    0.70
  -7   0  11    0.47    1.13
   7   0 -10  172.27    4.96
  -7   0  10  181.28    4.65
  -7   0  10  184.22    5.87
   7   0  -9   -1.42    0.92
   7   0  -9    0.46    0.70
  -7   0   9   -0.06    0.62
  -7   0   9    0.19    0.98
   7   0  -8  298.25    6.65
  -7   0   8  307.35    6.34
  -7   0   8  310.29    7.68
   7   0  -8  306.00    7.68
  -7   0   7    0.64    0.65
   7   0  -7    0.43    0.61
   7   0  -7    0.49    0.73
  -7   0   7    0.14    0.93
  -7   0   6  181.25    4.60
   7   0  -6  183.35    4.66
   7   0  -6  189.53    5.49
  -7   0   6  180.69    5.40
  -7   0   5   -0.48    0.64
   7   0  -5    0.25    0.59
   7   0  -5   -0.46    0.83
  -7   0   5    1.25    0.91
  -7   0   4  437.65    8.36
   7   0  -4  453.56    8.45
   7   0  -4  454.26    9.37
  -7   0   4  462.73    9.37
  -7   0   3   -1.53    0.84
   7   0  -3   -0.84    0.72
   7   0  -3   -0.16    0.65
  -7   0   3   -0.24    0.86
  -7   0   2  534.86   10.92
  -7   0   2  522.88    9.61
   7   0  -2  535.15    9.62
  -7   0   2  550.00    9.55
  -7   0   2  525.49   10.29
  -7   0   1   -0.04    0.77
  -7   0   1    0.12    0.61
   7   0  -1   -0.46    0.60
  -7   0   1   -0.05    0.77
  -7   0   1   -0.89    0.67
  -7   0   0  230.45    5.61
  -7   0   0  246.95    6.71
  -7   0   0  242.85    5.61
  -7   0   0  235.71    5.93
  -7   0  -1    0.56    0.85
  -7   0  -1    0.31    0.62
  -7   0  -1    0.58    0.64
  -7   0  -2  547.33   10.39
  -7   0  -2  529.08   10.22
  -7   0  -2  548.73   10.28
  -7   0  -3    0.02    0.65
  -7   0  -3   -0.27    0.79
  -7   0  -3    1.56    0.93
  -7   0  -4  517.11   10.23
  -7   0  -4  524.52   10.45
  -7   0  -4  524.34   10.40
  -7   0  -5    0.24    0.72
  -7   0  -5    0.07    0.79
  -7   0  -5    0.01    1.02
  -7   0  -6  659.22   12.78
  -7   0  -6  646.45   12.34
  -7   0  -6  673.18   12.87
  -7   0  -7   -0.89    0.96
  -7   0  -7   -0.50    1.04
  -7   0  -8  417.12    9.75
  -7   0  -9    0.57    1.03
  -7   0 -10  296.82    8.27
  -7   0 -11    2.94    1.31
  -7   0 -12  238.78    7.71
  -7   0 -13   -0.52    1.37
  -7   0 -14    1.56    1.50
  -7   0 -15   -0.10    1.38
  -7   0 -16   71.42    4.61
  -7   0 -17    0.44    1.71
  -7   0 -18   23.59    2.99
   7   1 -25    8.59    2.16
   7  -1 -25    8.66    2.04
   7   1 -24    5.27    1.79
   7  -1 -24    3.47    1.65
   7   1 -23    6.22    1.92
   7  -1 -23    3.59    1.51
   7  -1 -22  176.72    6.97
   7   1 -22  182.10    7.25
   7   1 -21   17.09    2.37
   7  -1 -21   15.94    2.20
   7   1 -20    4.57    1.59
   7  -1 -20    3.32    1.30
   7   1 -19    3.64    1.38
   7  -1 -19    1.23    1.00
   7   1 -18    0.00    1.08
   7  -1 -18    3.34    1.22
   7   1 -17    2.94    1.08
   7  -1 -17    5.93    1.30
  -7   1  17    6.43    1.69
   7   1 -16   15.06    1.88
   7  -1 -16   13.30    1.73
  -7   1  16   13.98    1.57
  -7   1  16    8.73    1.86
   7   1 -15   -0.29    0.96
   7  -1 -15    0.68    0.91
  -7  -1  15    0.75    0.89
  -7   1  15    0.25    0.83
  -7   1  15   -0.52    1.27
  -7  -1  15    1.14    1.19
   7   1 -14  335.51    8.54
   7  -1 -14  342.03    8.12
  -7   1  14  355.45    7.64
  -7  -1  14  354.69    8.14
  -7  -1  14  358.61    9.38
  -7   1  14  350.64    9.53
   7   1 -13   61.08    3.23
   7  -1 -13   65.85    3.06
  -7   1  13   66.60    2.78
  -7  -1  13   69.48    3.12
  -7  -1  13   67.06    3.73
  -7   1  13   71.26    3.91
   7   1 -12  170.43    5.39
   7  -1 -12  169.17    5.00
   7  -1 -12  190.82    5.04
  -7   1  12  178.80    4.65
  -7  -1  12  181.27    5.13
  -7   1  12  172.86    6.18
  -7  -1  12  183.55    6.05
   7  -1 -11    8.02    1.19
   7   1 -11    8.86    1.38
   7  -1 -11    8.54    1.20
  -7   1  11   10.01    1.09
  -7  -1  11    8.02    1.14
  -7  -1  11    8.80    1.61
  -7   1  11    8.38    1.57
   7   1 -10  234.85    6.23
   7  -1 -10  239.35    5.78
   7  -1 -10  239.64    6.04
  -7  -1  10  249.27    5.97
  -7   1  10  247.37    5.37
  -7   1  10  249.29    7.14
   7   1 -10  234.19    6.82
  -7  -1  10  252.77    6.93
   7   1  -9    1.38    0.93
   7  -1  -9    1.33    0.95
   7  -1  -9   -0.23    0.63
   7   1  -9    1.09    0.77
  -7  -1   9    0.06    0.70
  -7   1   9    0.66    0.52
  -7  -1   9    0.54    0.97
  -7   1   9    1.60    1.17
   7  -1  -8  143.06    5.08
   7  -1  -8  147.06    4.01
   7   1  -8  142.22    4.43
  -7  -1   8  146.66    4.46
   7  -1  -8  155.57    4.71
  -7  -1   8  149.57    4.23
  -7   1   8  158.38    3.77
  -7  -1   8  152.32    4.96
  -7   1   8  151.46    5.15
   7   1  -8  151.15    4.99
   7   1  -7   53.06    2.52
   7  -1  -7   51.24    2.86
   7  -1  -7   49.70    2.12
  -7  -1   7   51.08    2.45
   7  -1  -7   53.90    2.75
  -7   1   7   50.61    1.94
  -7  -1   7   49.15    2.68
  -7   1   7   48.81    2.84
   7   1  -7   47.88    2.60
   7  -1  -6    0.86    0.90
  -7  -1   6    1.27    0.68
  -7   1   6    2.65    0.75
   7  -1  -6    0.38    0.51
   7   1  -6    1.55    0.84
   7  -1  -6    2.31    0.87
   7   1  -6    0.69    0.64
  -7   1   6    3.75    1.26
  -7  -1   6    3.19    1.04
  -7  -1   5   38.12    2.07
  -7  -1   5   39.14    2.37
  -7   1   5   38.55    1.75
   7   1  -5   34.55    1.97
   7   1  -5   39.15    2.25
   7  -1  -5   40.43    2.48
   7  -1  -5   39.36    1.79
  -7  -1   5   39.56    2.27
  -7   1   5   39.30    2.46
  -7   1   4  148.53    3.76
  -7  -1   4  149.29    4.28
  -7  -1   4  149.33    4.81
   7  -1  -4  149.90    3.77
   7   1  -4  144.91    4.50
   7   1  -4  148.58    4.27
   7  -1  -4  146.05    4.79
  -7   1   4  153.79    4.85
  -7  -1   4  149.60    4.53
  -7  -1   3  142.15    4.21
  -7   1   3  146.21    3.73
  -7  -1   3  145.54    4.81
   7  -1  -3  149.46    3.76
   7   1  -3  143.68    4.20
   7   1  -3  139.72    4.32
  -7   1   3  153.40    3.67
  -7   1   3  149.21    4.73
  -7  -1   3  153.55    4.46
  -7  -1   2    4.00    1.06
  -7  -1   2    2.68    0.72
  -7   1   2    3.40    0.77
   7  -1  -2    3.61    0.74
   7   1  -2    2.44    0.76
  -7  -1   2    4.89    1.01
  -7   1   2    3.15    1.00
  -7   1   2    3.32    0.64
  -7  -1   1    0.37    0.68
  -7   1   1    1.97    0.61
  -7  -1   1    0.00    0.86
  -7   1   1    0.91    0.84
   7   1  -1    0.49    0.68
  -7  -1   1    1.93    0.75
  -7   1   1    1.34    0.60
  -7  -1   1    2.08    0.80
   7   1   0  264.55    6.24
  -7  -1   0  252.79    6.18
  -7   1   0  259.53    5.76
  -7  -1   0  278.47    7.18
  -7   1   0  269.92    5.75
  -7   1   0  270.12    6.59
  -7  -1   0  262.61    6.09
  -7  -1   0  253.13    6.09
  -7  -1  -1  190.00    5.22
  -7   1  -1  194.45    5.46
  -7   1  -1  193.08    4.85
  -7   1  -1  191.06    4.79
  -7  -1  -1  193.12    5.18
  -7  -1  -1  191.85    4.99
  -7  -1  -2    9.43    1.18
  -7   1  -2    7.01    1.02
  -7  -1  -2    8.95    1.11
  -7   1  -2   10.27    1.37
  -7   1  -2    7.63    0.95
  -7  -1  -2    8.21    1.19
  -7  -1  -3    0.79    0.67
  -7  -1  -3    0.31    0.63
  -7   1  -3    1.88    0.84
  -7   1  -3    0.59    0.84
  -7   1  -3   -0.24    0.78
  -7  -1  -3    0.85    0.81
  -7  -1  -4   47.15    2.35
  -7   1  -4   38.26    2.38
  -7   1  -4   40.19    2.27
  -7  -1  -4   42.31    2.50
  -7   1  -4   44.76    2.41
  -7  -1  -4   40.55    2.48
  -7   1  -5    7.93    1.14
  -7  -1  -5   10.49    1.44
  -7  -1  -5   12.08    1.31
  -7   1  -5   11.34    1.43
  -7   1  -5    8.23    1.20
  -7  -1  -5   11.59    1.50
  -7   1  -6   93.08    3.76
  -7  -1  -6  103.89    4.18
  -7  -1  -6   99.55    3.63
  -7  -1  -6  109.61    4.24
  -7   1  -6   93.76    3.85
  -7   1  -7   34.42    2.34
  -7  -1  -7   30.99    2.41
  -7   1  -7   33.03    2.39
  -7   1  -8   25.53    2.10
  -7  -1  -8   23.69    2.28
  -7   1  -8   19.71    1.97
  -7  -1  -9  207.43    6.66
  -7   1  -9  200.20    6.36
  -7   1 -10  429.05   10.36
  -7  -1 -10  433.16   10.54
  -7  -1 -11    5.85    1.65
  -7   1 -11    4.48    1.41
  -7  -1 -12   -1.10    1.27
  -7   1 -12    0.84    1.32
  -7  -1 -13   30.29    2.93
  -7   1 -13   29.67    2.87
  -7   1 -14  216.46    7.61
  -7  -1 -14  207.69    7.55
  -7   1 -15    2.58    1.52
  -7  -1 -15    0.78    1.52
  -7   1 -16   98.61    5.37
  -7  -1 -16  105.59    5.55
  -7   1 -17   21.47    2.76
  -7  -1 -17   24.91    3.08
  -7   1 -18   21.86    2.87
  -7  -1 -18   21.22    2.92
   7  -2 -24   68.42    4.45
   7   2 -24   76.86    4.97
   7   2 -23   17.22    2.68
   7  -2 -23   18.62    2.41
   7   2 -22    2.65    1.48
   7  -2 -22    5.42    1.62
   7   2 -21   26.70    2.87
   7  -2 -21   22.92    2.46
   7  -2 -20   72.63    4.02
   7   2 -20   70.68    4.31
   7  -2 -19   42.40    2.97
   7   2 -19   39.68    3.17
   7   2 -18    3.11    1.40
   7  -2 -18    1.99    1.10
  -7   2  18    2.18    1.64
   7   2 -17   -0.94    1.13
   7  -2 -17   -0.53    0.70
   7  -2 -17    0.84    1.06
  -7   2  17   -1.22    1.35
   7  -2 -16  110.83    3.57
   7   2 -16   98.69    4.59
   7  -2 -16   98.80    4.12
  -7   2  16  100.20    3.77
  -7   2  16  113.39    5.33
   7  -2 -15   75.73    2.97
   7   2 -15   67.91    3.68
   7  -2 -15   69.01    3.24
  -7   2  15   76.69    3.09
  -7   2  15   67.76    4.10
   7  -2 -14   83.17    3.22
   7   2 -14   79.73    3.92
   7  -2 -14   83.26    3.46
  -7   2  14   80.87    3.04
  -7  -2  14   85.77    3.73
  -7   2  14   82.52    4.36
   7  -2 -13   12.23    1.36
   7  -2 -13   12.70    1.38
   7   2 -13   11.56    1.58
  -7  -2  13   11.36    1.45
  -7   2  13   11.13    1.16
  -7   2  13   12.27    1.82
  -7  -2  13   10.66    1.66
   7  -2 -12  194.46    5.34
   7   2 -12  181.70    5.77
   7  -2 -12  180.30    4.99
  -7   2  12  193.54    4.60
  -7  -2  12  201.24    5.65
  -7   2  12  189.76    6.49
  -7  -2  12  189.44    6.16
   7  -2 -11  210.89    5.67
   7   2 -11  197.62    5.95
   7  -2 -11  197.59    5.11
  -7   2  11  213.68    4.67
  -7  -2  11  203.53    5.69
  -7   2  11  208.74    6.71
  -7  -2  11  217.39    6.43
   7  -2 -10  199.45    5.50
   7   2 -10  185.90    5.57
   7  -2 -10  183.92    4.68
  -7   2  10  190.85    4.22
  -7  -2  10  193.49    5.35
  -7   2  10  197.44    6.36
  -7  -2  10  189.97    5.83
   7   2 -10  186.36    5.81
   7   2  -9   85.00    3.53
   7  -2  -9   80.80    2.76
   7  -2  -9   87.12    3.51
  -7   2   9   85.62    2.43
  -7  -2   9   87.68    3.33
   7   2  -9   85.50    3.66
  -7   2   9   78.98    3.85
  -7  -2   9   85.48    3.63
   7   2  -8   -0.08    0.79
   7  -2  -8    0.75    0.51
   7   2  -8    0.36    0.76
   7  -2  -8    1.10    0.90
  -7  -2   8    0.62    0.72
  -7   2   8    0.57    0.42
  -7   2   8   -0.34    1.11
  -7  -2   8    0.28    0.96
   7   2  -7  106.10    3.84
   7  -2  -7  108.63    2.96
   7  -2  -7  110.07    4.38
  -7  -2   7  107.70    3.84
   7  -2  -7  113.09    4.10
  -7  -2   7  105.81    3.79
  -7   2   7  107.35    2.60
  -7  -2   7  107.39    3.92
   7   2  -7  101.86    3.83
  -7   2   7  105.84    4.33
   7   2  -6  294.48    7.05
   7  -2  -6  308.17    7.87
   7   2  -6  307.74    7.13
   7  -2  -6  314.71    5.86
  -7  -2   6  311.84    7.12
   7  -2  -6  306.02    7.47
  -7  -2   6  319.04    7.30
  -7   2   6  307.98    5.39
  -7  -2   6  313.80    7.17
  -7   2   6  312.80    7.78
  -7  -2   5    3.36    0.98
  -7  -2   5    2.80    0.84
   7  -2  -5    4.33    1.17
  -7   2   5    4.05    0.58
   7   2  -5    3.97    0.93
   7   2  -5    4.86    0.97
   7  -2  -5    3.05    0.55
   7  -2  -5    5.22    1.16
  -7   2   5    3.47    1.10
  -7   2   5    3.84    0.57
  -7  -2   5    4.33    1.01
  -7  -2   4    8.52    1.25
   7  -2  -4    4.42    1.17
  -7   2   4    6.59    0.66
  -7  -2   4    7.41    1.23
   7  -2  -4    6.16    0.70
   7   2  -4    6.36    1.09
   7   2  -4    6.98    1.03
   7  -2  -4    5.44    1.12
  -7  -2   4    6.64    1.05
  -7   2   4    8.07    0.72
  -7   2   4    7.76    1.35
   7   2  -3   36.35    2.15
   7   2  -3   32.47    1.89
   7  -2  -3   37.85    1.57
   7  -2  -3   32.72    2.38
  -7  -2   3   35.56    2.33
  -7  -2   3   36.98    2.15
  -7   2   3   38.90    1.60
  -7   2   3   36.05    1.47
  -7  -2   3   37.84    2.08
  -7   2   3   34.86    2.34
   7   2  -2  116.13    3.90
   7  -2  -2  114.42    4.37
  -7  -2   2  116.87    4.30
  -7  -2   2  109.90    3.85
  -7   2   2  112.86    3.02
  -7   2   2  117.92    3.00
  -7   2   2  119.17    4.28
  -7  -2   2  118.72    3.65
   7   2  -1   24.22    1.80
  -7   2   1   23.42    1.93
  -7  -2   1   22.54    1.99
   7  -2  -1   22.58    2.08
  -7  -2   1   22.20    1.70
  -7   2   1   23.37    1.36
  -7   2   1   24.02    1.38
  -7  -2   1   22.15    1.53
   7   2   0   17.86    1.64
  -7   2   0   19.33    1.79
  -7   2   0   18.87    1.29
  -7  -2   0   18.69    1.59
  -7  -2   0   18.58    1.83
  -7   2   0   19.52    1.32
  -7  -2   0   19.20    1.64
  -7  -2   0   19.00    1.43
   7   2   1    3.20    1.01
  -7  -2  -1    4.79    0.87
  -7   2  -1    2.10    0.65
  -7   2  -1    3.32    1.04
  -7  -2  -1    3.82    1.00
  -7   2  -1    3.12    0.79
  -7  -2  -1    1.92    0.89
  -7   2  -2  108.19    3.43
  -7   2  -2  115.55    4.19
  -7  -2  -2  109.69    4.04
  -7   2  -2  109.14    3.42
  -7  -2  -2  105.58    3.94
  -7  -2  -2  112.20    3.46
  -7   2  -3  152.90    4.94
  -7  -2  -3  147.97    4.11
  -7  -2  -3  142.04    4.75
  -7   2  -3  141.69    4.18
  -7  -2  -3  140.51    4.72
  -7   2  -3  142.10    4.24
  -7  -2  -4  236.68    6.49
  -7  -2  -4  231.09    5.51
  -7   2  -4  225.72    5.70
  -7   2  -4  236.77    6.46
  -7  -2  -4  215.76    6.22
  -7   2  -4  232.92    5.81
  -7   2  -5  205.42    5.56
  -7  -2  -5  211.58    5.31
  -7   2  -5  205.30    6.07
  -7  -2  -5  215.80    6.30
  -7  -2  -5  200.09    6.06
  -7   2  -5  215.21    5.73
  -7   2  -6  204.55    5.74
  -7  -2  -6  207.95    5.34
  -7  -2  -6  202.86    6.19
  -7   2  -6  207.75    5.83
  -7   2  -7    0.00    0.74
  -7   2  -7   -0.41    0.92
  -7  -2  -7    0.11    1.00
  -7   2  -8    5.45    1.07
  -7  -2  -8    4.14    1.10
  -7   2  -8    6.82    1.43
  -7  -2  -9   99.08    4.56
  -7   2  -9   97.66    4.24
  -7  -2 -10   46.02    3.25
  -7   2 -10   53.95    3.29
  -7   2 -11   12.03    1.73
  -7  -2 -11   15.07    2.18
  -7   2 -12  254.73    7.90
  -7  -2 -12  259.02    8.21
  -7   2 -13  173.50    6.53
  -7  -2 -13  166.24    6.59
  -7   2 -14  114.91    5.47
  -7  -2 -14  126.81    5.85
  -7  -2 -15   16.65    2.62
  -7   2 -15   18.80    2.56
  -7   2 -16   22.38    2.72
  -7  -2 -16   24.17    2.87
  -7   2 -17   74.88    4.77
  -7  -2 -17   78.31    5.00
  -7   2 -18   15.41    2.51
  -7  -2 -18   20.02    2.92
   7   3 -24   -2.05    1.72
   7  -3 -23   77.57    4.50
   7   3 -23   70.68    4.75
   7   3 -22   39.90    3.55
   7  -3 -22   35.60    2.97
   7   3 -21   13.44    2.19
   7  -3 -21   17.58    2.20
   7  -3 -20   56.38    3.48
   7   3 -20   46.72    3.61
   7   3 -19    9.06    1.91
   7  -3 -19    4.74    1.24
  -7   3  19    8.41    2.04
   7   3 -18    0.19    1.32
   7  -3 -18    1.90    0.91
  -7   3  18    0.57    1.47
   7  -3 -17   34.64    2.43
   7  -3 -17   38.92    2.20
   7   3 -17   41.32    3.16
  -7   3  17   35.37    3.25
   7  -3 -16   -0.81    0.92
   7  -3 -16    0.01    0.83
   7   3 -16    0.26    1.17
  -7   3  16   -0.33    1.32
   7  -3 -15    5.77    1.09
   7   3 -15    7.15    1.62
   7  -3 -15    5.92    1.10
  -7   3  15    5.83    0.97
  -7   3  15    6.81    1.75
   7  -3 -14  143.33    4.48
   7   3 -14  134.25    5.26
   7  -3 -14  130.04    4.27
  -7   3  14  131.52    3.81
  -7   3  14  140.39    5.82
   7  -3 -13  175.45    5.11
   7   3 -13  173.87    5.86
   7  -3 -13  156.75    4.63
  -7   3  13  171.93    4.18
  -7  -3  13  167.63    5.46
  -7   3  13  176.00    6.45
   7  -3 -12   47.47    2.60
   7   3 -12   45.89    2.97
   7  -3 -12   46.97    2.27
  -7  -3  12   51.73    2.92
  -7   3  12   51.12    1.94
  -7   3  12   50.66    3.40
   7  -3 -11   99.50    3.81
   7   3 -11   94.99    4.13
   7  -3 -11   95.27    3.12
  -7  -3  11  104.82    4.00
  -7   3  11  102.48    2.70
  -7   3  11  100.93    4.60
   7   3 -11   93.85    4.08
  -7  -3  11  103.15    4.27
   7   3 -10   46.75    2.82
   7  -3 -10   49.18    2.69
   7  -3 -10   43.52    1.95
  -7  -3  10   53.78    2.77
  -7   3  10   49.07    1.63
  -7   3  10   49.27    3.18
   7   3 -10   46.48    2.80
  -7  -3  10   49.33    2.81
   7  -3  -9   32.28    1.52
   7   3  -9   31.76    2.33
   7  -3  -9   27.69    2.12
  -7  -3   9   29.92    2.18
  -7   3   9   31.91    1.18
  -7   3   9   29.93    2.43
   7   3  -9   27.76    2.07
  -7  -3   9   31.44    2.26
   7  -3  -8  203.88    4.20
   7   3  -8  195.86    5.79
   7  -3  -8  196.10    5.75
  -7  -3   8  200.40    5.79
  -7  -3   8  201.92    5.37
  -7   3   8  200.59    3.47
   7   3  -8  185.63    5.51
  -7   3   8  204.45    6.40
  -7  -3   8  211.93    5.71
   7   3  -7   63.25    3.11
   7  -3  -7   64.48    1.93
  -7  -3   7   60.45    2.95
   7  -3  -7   61.36    3.06
  -7  -3   7   58.33    2.77
  -7   3   7   60.78    1.39
   7   3  -7   58.61    2.78
  -7   3   7   61.98    1.40
  -7   3   7   63.37    3.36
  -7  -3   7   58.93    2.79
   7  -3  -6   75.30    1.97
   7  -3  -6   71.77    3.58
   7   3  -6   65.91    3.11
  -7  -3   6   73.45    3.19
   7  -3  -6   76.94    3.48
  -7  -3   6   74.40    3.17
  -7   3   6   69.34    1.46
  -7   3   6   66.35    1.41
  -7  -3   6   71.60    2.94
  -7   3   6   73.06    3.56
   7   3  -6   68.64    2.94
   7  -3  -5   29.89    1.14
   7   3  -5   31.67    2.19
   7   3  -5   30.81    1.89
   7  -3  -5   30.99    2.30
   7  -3  -5   28.74    2.25
  -7  -3   5   29.39    2.06
  -7  -3   5   30.24    2.07
  -7   3   5   29.63    0.89
  -7   3   5   27.42    0.86
  -7  -3   5   31.92    1.93
  -7   3   5   27.73    2.24
   7   3  -4   75.32    2.91
   7  -3  -4   79.20    3.66
   7   3  -4   75.89    3.27
   7  -3  -4   81.62    3.64
  -7  -3   4   76.05    3.39
  -7  -3   4   78.89    3.31
  -7   3   4   80.08    1.77
  -7  -3   4   79.14    2.95
  -7   3   4   74.69    3.55
   7   3  -3  222.52    5.99
   7   3  -3  219.91    5.30
  -7   3   3  229.02    4.20
   7  -3  -3  232.23    6.56
  -7  -3   3  235.46    6.37
  -7  -3   3  225.10    6.04
  -7   3   3  233.61    4.08
  -7   3   3  223.86    6.38
  -7  -3   3  227.04    5.34
   7   3  -2   72.69    3.20
   7  -3  -2   74.39    3.59
  -7  -3   2   79.70    3.56
  -7  -3   2   69.86    3.16
  -7   3   2   72.71    2.03
  -7   3   2   73.88    2.05
  -7  -3   2   70.73    2.62
  -7   3   2   71.08    3.41
   7   3  -1   53.14    2.75
   7  -3  -1   58.91    3.22
  -7  -3   1   58.18    3.10
  -7  -3   1   60.46    2.92
  -7   3   1   59.83    1.95
  -7   3   1   58.30    1.96
  -7  -3   1   57.37    2.26
  -7   3   1   57.09    3.05
   7   3   0  373.98    8.48
  -7   3   0  380.96    8.76
  -7   3   0  374.79    6.77
  -7  -3   0  368.65    8.45
   7  -3   0  375.76    9.06
  -7   3   0  385.19    6.91
  -7  -3   0  389.07    7.29
   7   3   1  838.52   15.26
  -7   3  -1  856.83   15.59
  -7   3  -1  841.38   13.42
  -7  -3  -1  865.84   15.44
   7  -3   1  862.41   16.02
  -7   3  -1  884.84   13.65
  -7  -3  -1  866.33   15.27
  -7  -3  -1  876.19   13.70
   7   3   2  178.62    5.46
  -7   3  -2  171.38    4.32
  -7   3  -2  176.44    5.55
  -7  -3  -2  185.78    5.59
   7  -3   2  184.20    5.95
  -7   3  -2  175.32    4.44
  -7  -3  -2  177.63    4.32
  -7  -3  -2  182.21    5.47
  -7  -3  -3    0.17    1.01
  -7   3  -3    1.84    0.65
  -7  -3  -3    1.25    0.59
  -7   3  -3    1.22    1.03
  -7   3  -3    2.23    0.87
  -7  -3  -3    1.80    0.93
  -7   3  -4   13.49    1.29
  -7  -3  -4   14.58    1.65
  -7  -3  -4   15.83    1.25
  -7   3  -4    9.11    1.43
  -7   3  -4   18.43    1.57
  -7  -3  -4   13.20    1.70
  -7   3  -5  158.17    4.63
  -7  -3  -5  162.42    4.27
  -7   3  -5  151.42    5.27
  -7  -3  -5  160.87    5.42
  -7   3  -5  162.81    4.80
  -7   3  -6  108.38    3.93
  -7  -3  -6  117.21    3.59
  -7   3  -6  116.62    4.09
  -7  -3  -6  108.78    4.51
  -7   3  -7   44.67    2.60
  -7  -3  -7   44.83    2.25
  -7  -3  -7   44.19    2.93
  -7   3  -7   43.46    2.60
   7  -3   7   36.93    2.42
  -7   3  -8   17.20    1.77
  -7   3  -8   18.99    1.96
  -7  -3  -8   23.17    2.29
   7  -3   8   17.80    1.83
  -7   3  -9  540.33   11.50
  -7  -3  -9  521.86   12.07
  -7   3 -10  272.05    7.69
  -7  -3 -10  274.44    8.28
  -7   3 -11   39.16    2.94
  -7  -3 -11   43.75    3.30
  -7   3 -12   19.33    2.29
  -7  -3 -12   13.77    2.09
  -7   3 -13   52.73    3.59
  -7  -3 -13   52.66    3.79
  -7   3 -14   13.89    2.15
  -7  -3 -14   19.36    2.48
  -7  -3 -15  105.15    5.52
  -7   3 -15  102.13    5.21
  -7  -3 -16   71.36    4.65
  -7   3 -16   67.14    4.41
  -7  -3 -17    3.82    1.72
  -7   3 -17   -0.02    1.59
  -7   3 -18    3.10    1.77
   7   4 -23    4.61    1.76
   7   4 -22    0.51    1.44
   7  -4 -21  126.66    5.30
   7   4 -21  121.55    6.05
   7   4 -20   32.19    3.22
   7  -4 -20   31.96    2.64
  -7   4  20   40.44    3.72
   7  -4 -19   74.25    3.73
   7   4 -19   75.52    4.57
  -7   4  19   73.40    4.74
   7   4 -18    9.10    1.82
   7  -4 -18   10.62    1.40
   7  -4 -18    9.56    1.53
  -7   4  18   10.99    2.07
   7  -4 -17   22.25    1.94
   7  -4 -17   24.60    1.89
   7   4 -17   25.88    2.58
  -7   4  17   26.67    2.89
   7  -4 -16   13.92    1.49
   7  -4 -16   12.64    1.54
   7   4 -16   14.91    2.07
  -7   4  16   13.46    2.10
   7  -4 -15    3.19    0.93
   7  -4 -15    3.35    1.08
   7   4 -15    5.48    1.47
  -7   4  15    2.16    1.36
   7   4 -14   66.93    3.80
   7  -4 -14   70.41    3.18
   7  -4 -14   64.90    2.83
  -7   4  14   71.55    2.51
  -7   4  14   71.21    4.21
   7   4 -13  110.17    4.79
   7  -4 -13  119.90    4.27
   7  -4 -13  111.29    3.63
  -7   4  13  123.65    3.17
  -7   4  13  117.41    5.27
   7  -4 -12   18.90    1.38
   7   4 -12   19.55    2.13
   7  -4 -12   17.55    1.76
  -7   4  12   19.63    1.09
  -7   4  12   16.00    2.17
   7   4 -11  133.90    5.06
   7  -4 -11  125.60    3.46
   7  -4 -11  134.76    4.61
  -7  -4  11  133.86    4.80
  -7   4  11  135.94    2.79
   7   4 -11  125.90    4.71
  -7   4  11  132.02    5.37
  -7  -4  10    6.91    1.03
   7   4 -10    6.38    1.39
   7  -4 -10    5.50    0.70
   7  -4 -10    6.96    1.36
  -7  -4  10    7.21    1.39
  -7   4  10    5.72    0.42
   7   4 -10    5.17    1.16
  -7   4  10    4.36    1.48
  -7  -4   9  128.91    4.75
   7  -4  -9  121.13    4.47
  -7  -4   9  127.20    4.03
   7  -4  -9  136.69    3.03
   7   4  -9  130.01    4.77
  -7   4   9  128.81    5.18
  -7  -4   9  128.74    4.46
   7   4  -9  124.26    4.39
  -7  -4   8   67.21    3.29
  -7  -4   8   62.55    2.84
   7  -4  -8   65.31    3.28
   7  -4  -8   66.47    1.75
   7   4  -8   65.20    3.32
   7   4  -8   62.80    2.95
  -7  -4   8   67.44    3.03
  -7   4   8   67.23    3.63
  -7  -4   7  215.98    6.18
  -7  -4   7  216.81    5.75
   7  -4  -7  217.00    6.21
   7   4  -7  212.68    6.20
   7  -4  -7  216.93    3.51
  -7  -4   7  223.68    5.65
   7   4  -7  193.10    5.42
  -7   4   7  204.26    6.52
  -7  -4   6   84.26    3.62
  -7  -4   6   84.27    3.41
   7  -4  -6   80.09    3.64
   7   4  -6   81.03    3.58
  -7   4   6   82.28    3.88
   7   4  -6   78.75    3.05
  -7  -4   6   78.15    3.02
  -7  -4   5  127.87    4.38
   7  -4  -5  121.43    4.56
  -7  -4   5  125.15    4.45
   7   4  -5  116.00    4.34
   7   4  -5  116.30    3.66
  -7   4   5  119.93    4.73
  -7  -4   5  125.05    3.77
  -7  -4   4    0.08    0.84
   7  -4  -4   -0.55    1.05
  -7  -4   4   -0.15    0.80
   7   4  -4    1.18    0.62
   7   4  -4   -0.17    0.87
  -7  -4   4    2.00    0.75
  -7   4   4    0.79    1.03
  -7  -4   3  189.34    5.69
   7  -4  -3  181.32    5.84
  -7  -4   3  191.04    5.65
   7   4  -3  186.49    5.58
   7   4  -3  182.24    4.50
  -7  -4   3  194.86    4.58
  -7   4   3  184.31    5.89
   7   4  -2    3.50    1.05
  -7   4   2    2.83    1.20
  -7  -4   2    4.53    1.22
  -7   4   2    4.18    0.40
  -7  -4   2    2.93    0.91
   7  -4  -2    3.74    1.33
  -7   4   2    4.32    0.42
  -7  -4   2    2.61    0.59
   7   4  -1  821.99   15.10
   7  -4  -1  850.31   15.77
  -7  -4   1  845.82   15.29
  -7   4   1  826.71   12.04
  -7   4   1  846.91   12.25
  -7  -4   1  847.72   13.14
  -7   4   1  825.54   15.48
  -7   4   0   68.59    2.01
   7   4   0   64.55    3.24
  -7   4   0   76.92    3.65
  -7  -4   0   68.75    3.39
   7  -4   0   68.72    3.56
  -7   4   0   74.98    2.18
  -7  -4   0   70.04    2.34
  -7   4  -1    1.05    0.51
   7   4   1    0.49    0.98
  -7   4  -1    2.57    1.07
  -7  -4  -1    1.65    0.95
   7  -4   1    0.71    1.15
  -7   4  -1   -0.35    0.57
  -7  -4  -1    0.91    0.49
   7   4   2    1.42    0.97
  -7   4  -2    0.67    0.52
  -7   4  -2   -0.91    1.03
  -7  -4  -2   -0.58    0.82
   7  -4   2   -0.04    1.15
  -7   4  -2    1.27    0.61
  -7  -4  -2    1.01    1.05
  -7  -4  -2    0.28    0.51
  -7   4  -3  595.04   10.47
  -7   4  -3  593.58   12.47
  -7  -4  -3  619.15   12.60
   7   4   3  596.91   12.35
   7  -4   3  625.04   12.90
  -7   4  -3  625.13   10.79
  -7  -4  -3  625.06   10.05
  -7  -4  -3  621.66   12.42
  -7  -4  -4    0.38    0.53
  -7   4  -4    0.87    0.62
  -7   4  -4    0.29    1.06
   7  -4   4    1.69    1.27
  -7   4  -4    0.14    0.70
  -7  -4  -4    1.92    1.14
  -7   4  -5  419.41    8.59
  -7  -4  -5  443.85    7.84
  -7   4  -5  416.01    9.95
   7  -4   5  431.30   10.35
  -7   4  -5  436.32    8.89
  -7  -4  -5  431.13   10.08
  -7   4  -6   33.56    2.10
  -7  -4  -6   36.97    1.83
  -7   4  -6   36.65    2.33
  -7  -4  -6   33.57    2.64
   7  -4   6   35.66    2.24
  -7   4  -7  508.70   10.36
  -7  -4  -7  518.03    9.26
  -7   4  -7  517.06   10.54
  -7  -4  -7  488.45   11.40
   7  -4   7  498.07   10.45
  -7   4  -8   43.91    2.56
  -7   4  -8   46.66    2.78
  -7  -4  -8   37.94    2.91
   7  -4   8   43.09    2.67
  -7   4  -9  121.96    4.65
  -7   4  -9  131.68    4.88
  -7  -4  -9  124.39    5.30
  -7  -4 -10   76.60    4.29
  -7   4 -10   74.59    3.81
  -7   4 -11   17.50    2.14
  -7  -4 -11   15.24    2.22
  -7  -4 -12   30.33    2.91
  -7   4 -12   36.46    2.96
  -7  -4 -13   87.45    4.89
  -7   4 -13   90.52    4.60
  -7  -4 -14   45.02    3.63
  -7   4 -14   47.65    3.51
  -7   4 -15   29.25    3.41
  -7  -4 -15   24.93    2.98
  -7   4 -16    1.92    1.45
  -7  -4 -16    1.73    1.82
  -7  -4 -17  153.47    7.14
  -7   4 -17  138.88    6.46
  -7   4 -18    6.20    2.07
   7   5 -22    7.50    1.96
   7   5 -21   18.79    2.73
  -7   5  21   22.30    3.01
   7   5 -20   19.98    2.59
  -7   5  20   15.70    2.65
   7   5 -19    5.59    1.75
   7  -5 -19    3.87    1.23
  -7   5  19    7.36    2.08
   7  -5 -18   20.58    1.78
   7  -5 -18   20.50    1.96
   7   5 -18   21.59    2.67
  -7   5  18   18.66    2.66
   7  -5 -17  194.83    5.73
   7   5 -17  190.92    7.16
   7  -5 -17  201.38    5.80
  -7   5  17  199.80    7.67
   7  -5 -16    3.85    0.96
   7  -5 -16    4.28    1.12
   7   5 -16    6.05    1.68
  -7   5  16    1.05    1.44
   7  -5 -15   26.98    1.82
   7   5 -15   21.04    2.31
   7  -5 -15   24.68    2.04
  -7   5  15   33.70    3.02
   7   5 -14  138.32    5.67
   7  -5 -14  142.94    4.91
   7  -5 -14  136.28    4.08
  -7   5  14  139.73    5.99
   7   5 -13  545.74   12.54
   7  -5 -13  526.16    9.82
   7  -5 -13  562.79   11.50
  -7   5  13  564.26   13.27
  -7   5  13  592.59    8.92
   7  -5 -12    2.64    1.19
   7   5 -12    2.95    1.26
   7  -5 -12    0.40    0.50
  -7   5  12    0.87    1.30
   7  -5 -11   -0.17    0.99
   7   5 -11    1.38    1.28
   7  -5 -11    0.29    0.44
  -7  -5  11   -1.35    0.69
   7   5 -11    0.35    0.79
  -7   5  11   -0.08    1.26
   7  -5 -10    5.68    0.62
   7   5 -10    7.76    1.63
  -7  -5  10    7.60    1.09
   7  -5 -10    8.94    1.48
  -7   5  10    7.54    1.79
   7   5 -10    5.83    1.20
  -7  -5   9  755.41   13.37
   7  -5  -9  766.72   14.48
   7  -5  -9  778.70   10.78
   7   5  -9  754.25   14.81
   7   5  -9  743.43   13.84
  -7   5   9  773.76   15.59
  -7  -5   8   97.26    3.62
   7  -5  -8   98.46    4.14
   7   5  -8   94.67    4.19
  -7   5   8   99.08    4.54
   7   5  -8   94.62    3.57
   7  -5  -7   15.48    1.81
  -7  -5   7   19.95    1.92
  -7  -5   7   19.42    1.72
   7   5  -7   17.18    1.46
   7   5  -7   18.77    2.01
  -7   5   7   21.23    2.18
   7  -5  -6    4.16    1.26
  -7  -5   6    1.79    0.92
  -7  -5   6    2.74    0.90
   7   5  -6    2.11    0.93
   7   5  -6    3.63    0.83
  -7   5   6    2.20    1.25
  -7  -5   5   73.42    3.35
   7  -5  -5   80.42    3.78
  -7  -5   5   74.79    3.57
   7   5  -5   73.65    3.54
   7   5  -5   71.20    2.70
  -7   5   5   75.33    3.80
  -7  -5   5   80.95    2.83
  -7  -5   4   19.36    1.84
  -7  -5   4   20.58    1.83
   7  -5  -4   17.73    1.98
   7   5  -4   20.36    1.36
   7   5  -4   19.25    1.93
  -7  -5   4   19.89    1.37
  -7   5   4   17.36    1.95
  -7  -5   3  237.13    6.60
   7  -5  -3  252.89    7.07
  -7  -5   3  243.46    6.81
   7   5  -3  235.02    5.09
   7   5  -3  240.72    6.77
  -7   5   3  240.49    7.05
  -7  -5   3  251.12    5.16
   7  -5  -2   49.54    3.05
  -7  -5   2   56.35    3.04
  -7  -5   2   58.28    3.10
   7   5  -2   49.60    2.92
  -7   5   2   55.75    3.26
  -7  -5   2   54.29    1.97
   7   5  -1  295.43    7.78
   7  -5  -1  306.17    8.17
  -7  -5   1  313.63    8.01
  -7   5   1  315.95    4.99
  -7  -5   1  322.58    5.78
  -7   5   1  291.34    7.99
  -7   5   0    0.88    1.08
   7   5   0    0.26    1.04
   7  -5   0   -0.62    1.04
  -7   5   0   -0.06    0.31
  -7  -5   0    0.42    0.89
  -7   5   0    1.41    0.52
  -7  -5   0    0.63    0.43
   7   5   1  328.27    8.36
  -7   5  -1  336.74    8.61
  -7   5  -1  338.17    5.88
   7  -5   1  345.76    8.83
  -7   5  -1  343.10    6.24
  -7  -5  -1  341.91    5.88
   7   5   2   25.39    2.27
  -7   5  -2   25.78    1.35
  -7   5  -2   20.53    2.08
   7  -5   2   25.03    2.43
  -7   5  -2   27.15    1.55
  -7  -5  -2   27.34    1.22
   7   5   3   14.74    1.89
  -7   5  -3   17.14    1.23
  -7   5  -3   21.18    2.17
   7  -5   3   21.37    2.34
  -7   5  -3   20.69    1.48
  -7  -5  -3   19.27    1.04
  -7  -5  -3   17.70    2.03
   7   5   4   20.29    2.15
  -7   5  -4   26.14    1.62
  -7   5  -4   24.71    2.30
   7  -5   4   25.04    2.38
  -7   5  -4   23.39    1.64
  -7  -5  -4   25.29    2.32
  -7  -5  -4   26.33    1.23
  -7   5  -5   55.78    2.52
  -7   5  -5   57.33    3.45
   7  -5   5   59.82    3.54
  -7   5  -5   61.56    2.77
  -7  -5  -5   60.80    3.46
  -7  -5  -5   61.28    2.00
   7  -5   5   57.59    2.69
  -7   5  -6  161.61    4.75
  -7  -5  -6  167.73    3.79
   7  -5   6  157.22    5.91
  -7  -5  -6  158.45    5.79
  -7   5  -6  169.06    5.00
   7  -5   6  161.11    4.91
  -7   5  -7  242.27    6.30
  -7  -5  -7  243.50    5.15
   7  -5   7  235.96    7.41
  -7  -5  -7  240.69    7.46
  -7   5  -7  244.06    6.47
   7  -5   7  233.51    6.39
  -7   5  -8   -0.13    0.89
  -7  -5  -8    0.13    0.59
  -7   5  -8    1.42    1.08
  -7  -5  -8    2.85    1.44
   7  -5   8    0.08    0.82
  -7   5  -9   67.70    3.34
  -7  -5  -9   67.22    3.97
  -7   5  -9   72.12    3.62
  -7   5 -10   91.12    4.24
  -7  -5 -10   89.24    4.69
  -7  -5 -11  163.54    6.51
  -7   5 -11  172.91    6.07
  -7   5 -12   24.26    2.48
  -7  -5 -12   23.19    2.69
  -7   5 -13   15.43    2.16
  -7  -5 -13   13.54    2.27
  -7   5 -14   21.74    2.56
  -7  -5 -14   24.24    2.91
  -7   5 -15  230.94    8.13
  -7  -5 -15  241.31    8.78
  -7   5 -16    4.21    1.71
  -7  -5 -16    7.16    2.25
  -7   5 -17    8.23    2.02
  -7   5 -18   13.11    2.58
   7   6 -22    1.83    1.48
   7   6 -21   98.18    5.72
   7   6 -20    4.28    1.68
  -7   6  20    5.88    1.83
   7   6 -19  103.02    5.53
  -7   6  19   95.77    5.60
   7  -6 -18    8.39    1.48
   7   6 -18    6.50    1.97
  -7   6  18    3.43    1.52
   7   6 -17   31.63    3.06
  -7   6  17   30.00    3.13
   7  -6 -16  156.09    4.70
   7   6 -16  159.90    6.58
  -7   6  16  170.07    7.01
   7  -6 -15   33.05    1.96
   7   6 -15   37.50    3.18
  -7   6  15   39.56    3.33
   7   6 -14   82.68    4.47
   7  -6 -14   78.81    2.86
  -7   6  14   93.66    4.95
   7   6 -13  116.18    5.37
   7  -6 -13  119.05    3.35
  -7   6  13  132.10    5.79
   7   6 -12  269.38    8.11
   7  -6 -12  261.76    5.18
  -7  -6  12  274.48    6.03
  -7   6  12  283.84    8.60
   7  -6 -11  109.31    2.53
  -7  -6  11  112.55    3.62
   7  -6 -11  103.47    2.48
   7   6 -11  104.89    4.78
   7   6 -11  112.21    4.31
  -7   6  11  109.96    5.07
  -7  -6  10  247.21    6.01
   7   6 -10  240.09    7.38
   7   6 -10  237.44    6.46
  -7   6  10  253.69    7.89
   7  -6  -9  105.83    4.34
  -7  -6   9   97.32    3.59
   7   6  -9   97.10    4.40
   7   6  -9   92.92    3.65
  -7   6   9  100.37    4.69
  -7  -6   8   -0.85    0.72
   7  -6  -8   -1.27    1.12
   7   6  -8    0.02    1.07
   7   6  -8    0.06    0.68
  -7   6   8    0.88    1.17
  -7  -6   7   58.74    2.85
   7  -6  -7   54.10    3.14
   7   6  -7   53.81    3.23
  -7   6   7   58.20    3.54
   7   6  -7   54.30    2.48
  -7  -6   6  177.06    5.35
   7  -6  -6  174.29    5.81
   7   6  -6  184.01    6.03
   7   6  -6  174.49    4.58
  -7   6   6  177.45    6.21
  -7  -6   5   14.17    1.57
   7  -6  -5   17.44    1.99
   7   6  -5   14.12    1.78
   7   6  -5   12.59    1.12
  -7   6   5   14.24    1.91
   7  -6  -4   54.33    3.16
   7   6  -4   44.46    2.87
   7   6  -4   50.18    1.99
  -7   6   4   49.85    3.15
   7  -6  -3  134.23    5.12
   7   6  -3  134.71    5.05
  -7   6   3  135.42    5.24
   7  -6  -2  156.82    5.55
   7   6  -2  152.86    5.39
  -7   6   2  141.95    5.40
   7  -6  -1  573.07   12.26
   7   6  -1  551.98   11.91
  -7   6   1  565.57   12.24
   7  -6   0  188.83    6.26
   7   6   0  177.75    5.94
  -7   6   0  181.39    6.12
  -7   6  -1    4.36    0.48
   7   6   1    4.00    1.25
  -7   6  -1    5.30    1.41
   7  -6   1    7.01    1.67
  -7   6  -1    4.48    0.65
  -7  -6  -1    2.84    0.30
   7   6   2   41.78    2.85
  -7   6  -2   49.18    3.17
  -7   6  -2   43.26    1.63
   7  -6   2   44.71    3.08
  -7   6  -2   50.11    1.99
   7   6   3  139.59    5.42
  -7   6  -3  147.81    3.66
  -7   6  -3  144.85    5.52
   7  -6   3  139.43    5.46
  -7   6  -3  151.07    3.99
   7  -6   3  145.70    3.93
  -7  -6  -3  147.69    5.44
   7   6   4  153.48    5.74
  -7   6  -4  169.46    4.24
  -7   6  -4  154.50    5.84
   7  -6   4  178.58    6.21
  -7   6  -4  167.03    4.49
  -7  -6  -4  154.87    2.71
   7  -6   4  163.92    4.46
  -7  -6  -4  174.08    5.99
  -7   6  -5    0.35    0.61
  -7   6  -5   -0.60    1.30
   7  -6   5    1.11    1.27
  -7   6  -5    1.86    0.89
  -7  -6  -5    0.49    0.31
  -7  -6  -5   -1.46    1.43
   7  -6   5    0.17    0.73
  -7   6  -6   82.33    3.23
  -7   6  -6   81.33    4.23
   7  -6   6   83.36    4.22
  -7   6  -6   90.34    3.55
  -7  -6  -6   87.20    4.36
   7  -6   6   83.16    3.41
  -7  -6  -6   90.33    2.15
  -7  -6  -7  572.74    8.84
  -7   6  -7  543.14   10.82
   7  -6   7  536.76   12.50
  -7  -6  -7  533.72   12.57
  -7   6  -7  556.14   11.20
   7  -6   7  547.53   11.15
  -7  -6  -7  577.03    8.90
  -7  -6  -8   23.50    1.32
   7  -6   8   21.76    2.40
  -7   6  -8   25.44    2.14
  -7  -6  -8   25.42    2.63
   7  -6   8   21.85    1.95
  -7  -6  -8   26.99    1.34
  -7  -6  -9   42.50    1.83
  -7  -6  -9   41.18    3.27
  -7   6  -9   37.99    2.63
  -7  -6 -10   87.40    4.80
  -7   6 -10   88.80    4.15
  -7   6 -11   82.61    4.17
  -7  -6 -11   89.10    4.88
  -7  -6 -12   76.51    4.61
  -7   6 -12   70.59    3.99
  -7  -6 -13   96.01    5.23
  -7   6 -13   95.10    4.81
  -7  -6 -14   49.88    3.93
  -7   6 -14   43.59    3.47
  -7   6 -15   18.59    2.54
  -7  -6 -15   20.19    2.80
  -7  -6 -16   43.00    3.92
  -7   6 -16   39.73    3.45
  -7   6 -17    8.31    1.96
  -7   6 -18   20.81    2.84
   7   7 -21   49.40    4.11
   7   7 -20    7.21    1.85
   7   7 -19    1.15    1.50
  -7   7  19    2.29    1.50
   7   7 -18   52.95    4.08
  -7   7  18   51.74    4.15
   7   7 -17   31.09    3.17
  -7   7  17   35.96    3.49
   7   7 -16   26.40    2.83
  -7   7  16   29.03    3.05
   7   7 -15    3.80    1.56
  -7   7  15    1.75    1.50
   7   7 -14    3.18    1.59
  -7   7  14   -0.06    1.41
   7   7 -13   75.42    4.35
   7  -7 -13   72.32    2.34
  -7   7  13   82.80    4.60
  -7  -7  12    8.31    1.10
   7   7 -12    9.20    1.86
   7  -7 -12    7.04    0.64
  -7   7  12    5.29    1.70
  -7  -7  11   68.52    2.86
   7   7 -11   65.52    3.92
  -7   7  11   68.32    4.09
   7   7 -11   66.41    3.26
   7   7 -10    4.47    1.36
  -7  -7  10    4.74    0.97
  -7   7  10    4.42    1.68
   7   7 -10    4.81    1.15
  -7  -7   9   87.49    3.44
   7   7  -9   93.69    4.49
   7   7  -9   81.53    3.35
  -7   7   9   85.26    4.42
  -7  -7   8   40.62    2.41
   7   7  -8   38.20    2.87
  -7   7   8   38.60    2.95
   7   7  -8   39.19    2.20
   7   7  -7    1.00    1.14
  -7   7   7    1.82    1.31
   7   7  -7    1.90    0.68
   7   7  -6    9.37    1.66
   7   7  -6    8.75    1.03
  -7   7   6    8.20    1.81
   7  -7  -5   10.77    1.70
   7   7  -5   10.02    1.63
   7   7  -5   11.08    0.96
  -7   7   5   11.54    1.82
   7  -7  -4  214.01    6.66
   7   7  -4  204.28    6.55
   7   7  -4  198.09    4.28
  -7   7   4  207.52    6.77
   7  -7  -3   24.56    2.36
  -7   7   3   23.61    2.35
   7   7  -3   23.38    2.27
   7  -7  -2    2.91    1.33
   7   7  -2    1.17    1.15
  -7   7   2    1.11    1.19
   7  -7  -1  353.09    9.02
   7   7  -1  325.68    8.74
  -7   7   1  325.23    8.91
   7  -7   0  233.43    7.14
   7   7   0  210.58    6.76
  -7   7   0  222.59    7.04
   7  -7   1   50.72    3.32
   7   7   1   44.92    3.04
  -7   7  -1   45.06    3.12
  -7   7  -2  394.82    6.40
   7  -7   2  377.65    9.79
   7   7   2  365.18    9.63
  -7   7  -2  383.99    9.87
  -7   7  -2  386.81    6.40
   7   7   3    0.67    1.13
  -7   7  -3    0.74    0.49
  -7   7  -3    0.69    1.18
   7  -7   3    0.59    1.24
  -7   7  -3    1.09    0.51
  -7   7  -3    1.35    0.75
   7  -7   3    0.48    0.58
   7   7   4  213.99    7.09
  -7   7  -4  216.87    4.92
  -7   7  -4  203.37    6.93
   7  -7   4  222.63    7.17
  -7   7  -4  221.88    5.35
   7  -7   4  206.83    5.19
  -7  -7  -4  212.22    6.99
   7   7   5    4.25    1.39
  -7   7  -5    5.88    0.91
  -7   7  -5    6.34    1.53
   7  -7   5    4.46    1.42
  -7   7  -5    5.44    1.08
   7  -7   5    4.56    0.88
  -7  -7  -5    3.98    1.37
  -7   7  -6   57.85    3.66
  -7   7  -6   54.29    2.53
   7  -7   6   56.08    3.63
   7  -7   6   57.50    2.79
  -7   7  -6   57.88    2.82
  -7  -7  -6   60.63    3.73
   7  -7   7   38.57    3.07
   7  -7   7   34.40    2.30
  -7   7  -7   33.74    2.27
  -7  -7  -7   34.46    2.98
   7  -7   8  213.50    7.23
  -7   7  -8  205.82    6.13
   7  -7   8  200.21    6.07
  -7  -7  -8  204.83    7.23
   7  -7   9   84.33    4.51
  -7   7  -9   95.79    4.18
  -7  -7  -9   87.43    4.70
  -7  -7 -10  148.53    6.34
  -7   7 -10  155.90    5.66
  -7  -7 -11   -0.09    1.49
  -7   7 -11    1.09    1.29
  -7  -7 -12   -1.36    1.56
  -7   7 -12   -0.97    1.16
  -7   7 -13   16.23    2.29
  -7  -7 -13   18.15    2.47
  -7  -7 -14   35.80    3.54
  -7   7 -14   32.53    3.06
  -7  -7 -15  123.54    6.36
  -7   7 -15  123.08    5.83
  -7   7 -16    0.45    1.55
  -7   7 -17    0.56    1.81
  -7   7 -18   -1.34    1.75
   7   8 -20  104.17    5.88
   7   8 -19   78.39    5.00
  -7   8  19   78.62    5.13
   7   8 -18   14.55    2.39
  -7   8  18    7.03    1.98
   7   8 -17   -0.50    1.52
  -7   8  17    1.77    1.55
   7   8 -16   56.28    4.15
  -7   8  16   61.08    4.32
   7   8 -15   32.25    3.12
  -7   8  15   34.88    3.28
   7   8 -14   35.54    3.18
  -7   8  14   32.21    3.21
   7   8 -13    7.35    1.78
  -7   8  13    7.23    1.92
   7   8 -12  299.28    9.09
  -7   8  12  302.12    9.35
  -7  -8  11   17.82    1.59
   7   8 -11   16.31    2.14
  -7   8  11   17.43    3.19
   7   8 -11   18.13    1.77
  -7  -8  10  257.18    6.44
   7   8 -10  261.51    8.15
  -7   8  10  262.35    8.36
   7   8 -10  247.65    6.54
   7   8  -9   30.65    2.83
  -7  -8   9   29.36    2.06
   7   8  -9   27.46    1.96
  -7   8   9   28.02    2.73
   7   8  -8    7.81    1.57
   7   8  -8   10.85    1.23
  -7   8   8    6.49    1.57
   7   8  -7   49.79    3.35
  -7   8   7   51.23    3.52
   7   8  -7   51.75    2.31
   7   8  -6  237.67    7.45
  -7   8   6  236.32    7.60
   7   8  -6  225.82    5.10
   7   8  -5   61.71    3.65
   7   8  -5   59.95    2.13
  -7   8   5   63.10    3.78
  -7   8   4   12.57    2.01
   7   8  -4   16.48    0.93
   7   8  -4   13.93    1.88
   7  -8  -3   19.95    2.25
  -7   8   3   28.27    2.57
   7   8  -3   23.43    2.39
   7  -8  -2   20.24    2.23
   7   8  -2   26.69    2.50
  -7   8   2   23.00    2.38
   7  -8  -1   39.63    2.98
   7   8  -1   39.28    3.00
  -7   8   1   43.08    3.12
   7  -8   0    8.70    1.77
  -7   8   0    7.58    1.68
   7   8   0    5.92    1.49
   7  -8   1   11.18    1.79
  -7   8  -1   10.39    1.86
   7   8   1    8.26    1.78
   7  -8   2   57.70    3.62
  -7   8  -2   66.42    1.69
   7   8   2   57.01    3.56
  -7   8  -2   66.20    1.72
  -7   8  -2   62.51    3.79
   7  -8   2   59.40    2.17
  -7   8  -3  107.68    2.76
   7  -8   3  110.14    5.04
   7   8   3   98.87    4.79
  -7   8  -3  111.15    2.83
  -7   8  -3  102.73    4.96
   7  -8   3  101.60    3.17
  -7   8  -4   24.89    1.43
   7   8   4   23.01    2.42
  -7   8  -4   20.38    2.31
   7  -8   4   22.79    2.41
  -7   8  -4   21.97    1.38
   7  -8   4   24.17    1.64
  -7  -8  -4   21.51    2.38
  -7   8  -5    1.42    0.66
   7   8   5   -0.48    1.35
  -7   8  -5    0.26    1.22
   7  -8   5    1.24    1.25
  -7   8  -5    0.55    0.69
  -7   8  -5    1.54    0.78
   7  -8   5    1.40    0.83
  -7  -8  -5    0.26    1.27
  -7   8  -6    0.34    1.38
   7  -8   6    1.02    1.29
  -7   8  -6   -0.03    0.66
  -7   8  -6    0.21    0.86
   7  -8   6    0.65    0.81
  -7  -8  -6    1.04    1.34
   7  -8   7    0.28    1.24
  -7   8  -7    0.79    0.94
   7  -8   7    0.96    0.85
  -7  -8  -7    0.98    1.29
   7  -8   8   11.03    1.93
  -7   8  -8    9.76    1.48
  -7  -8  -8   10.85    2.15
   7  -8   9    2.20    1.36
  -7   8  -9    1.15    1.05
  -7  -8  -9    0.35    1.42
   7  -8  10    0.60    1.35
  -7   8 -10    0.66    1.20
  -7  -8 -10    1.28    1.67
   7  -8  11   15.20    2.18
  -7   8 -11   18.46    2.18
  -7  -8 -11   17.27    2.58
  -7   8 -12  194.51    6.86
  -7  -8 -12  216.98    8.21
  -7  -8 -13    8.79    2.02
  -7   8 -13   10.93    1.83
  -7   8 -14   66.24    4.14
  -7  -8 -14   67.47    4.70
  -7   8 -15   13.75    2.21
  -7   8 -16  144.41    6.52
  -7   8 -17   22.59    2.94
   7   9 -19   -0.99    1.78
   7   9 -18  134.00    6.65
  -7   9  18  132.63    6.75
   7   9 -17    5.01    1.91
  -7   9  17    4.96    1.90
   7   9 -16   18.72    2.60
  -7   9  16   17.54    2.62
   7   9 -15    3.16    1.78
  -7   9  15   -0.82    1.37
   7   9 -14  138.58    6.31
  -7   9  14  141.10    6.47
   7   9 -13    3.54    1.72
  -7   9  13    6.85    1.93
   7   9 -12  202.02    7.47
  -7   9  12  209.69    7.81
   7   9 -11    0.71    1.42
  -7   9  11    2.58    1.70
   7   9 -11   -0.26    0.93
   7   9 -10   34.90    2.99
  -7   9  10   32.77    3.12
   7   9 -10   31.46    2.14
   7   9  -9    6.26    1.71
  -7   9   9    1.78    1.49
   7   9  -9    4.36    0.97
   7   9  -8   77.86    4.36
  -7   9   8   76.50    4.39
   7   9  -8   80.63    3.06
   7   9  -7   17.95    2.15
  -7   9   7   18.02    2.30
   7   9  -7   18.02    1.33
   7   9  -6    0.62    0.50
   7   9  -6    2.64    1.40
  -7   9   6    2.15    1.40
   7   9  -5    0.32    1.21
   7   9  -5    1.30    0.48
  -7   9   5    3.37    1.35
   7   9  -4   61.16    3.77
   7   9  -4   60.11    1.58
  -7   9   4   55.29    3.61
  -7   9   3   10.03    1.90
   7   9  -3    8.53    1.63
   7   9  -2    4.67    1.54
  -7   9   2    4.95    1.53
   7  -9  -1  133.16    5.54
   7   9  -1  128.33    5.46
  -7   9   1  129.99    5.56
   7  -9   0   92.34    4.62
  -7   9   0   90.16    4.67
   7   9   0   96.64    4.69
   7  -9   1  159.75    6.14
   7   9   1  154.82    6.08
  -7   9  -1  156.15    6.12
   7  -9   1  156.29    3.39
   7  -9   2   36.74    3.06
  -7   9  -2   44.22    1.19
   7   9   2   40.65    3.18
  -7   9  -2   42.76    1.21
  -7   9  -2   42.13    3.32
   7  -9   2   43.14    1.81
   7  -9   3    2.24    1.42
  -7   9  -3    1.29    0.50
  -7   9  -3    1.37    0.51
   7   9   3    4.51    1.61
  -7   9  -3    0.96    1.26
   7  -9   3    1.07    0.60
   7   9   4   67.92    4.09
  -7   9  -4   67.13    4.15
   7  -9   4   63.95    3.98
  -7   9  -4   67.40    2.33
   7  -9   4   68.30    2.72
   7  -9   5    5.55    1.84
  -7   9  -5    0.47    0.57
   7   9   5    0.30    1.28
  -7   9  -5    2.48    1.44
   7  -9   5    1.51    0.76
  -7  -9  -5    0.30    1.42
   7  -9   6    1.51    1.49
  -7   9  -6    2.28    0.80
  -7   9  -6    2.70    1.42
  -7  -9  -6    0.99    1.44
  -7   9  -7    6.01    1.07
   7  -9   7    4.30    1.44
  -7   9  -7    5.81    1.71
  -7  -9  -7    5.80    1.73
   7  -9   8   52.06    3.75
  -7   9  -8   56.23    2.81
  -7   9  -8   51.07    2.93
  -7  -9  -8   56.13    3.96
   7  -9   9  105.23    5.25
  -7   9  -9  101.94    4.02
  -7  -9  -9  100.55    5.36
  -7   9  -9  104.17    4.41
   7  -9  10  232.15    8.05
  -7   9 -10  251.25    6.96
  -7  -9 -10  240.21    8.56
  -7   9 -10  236.97    7.20
   7  -9  11   11.44    2.11
  -7   9 -11   13.71    1.78
  -7   9 -11   15.54    1.97
  -7  -9 -11   15.83    2.47
   7  -9  12    4.56    1.69
  -7  -9 -12   -0.01    1.69
  -7   9 -12    5.34    1.51
  -7  -9 -13   -2.02    1.94
  -7   9 -13   -0.73    1.53
  -7   9 -14  119.89    5.63
  -7   9 -15   14.65    2.46
  -7   9 -16   85.44    5.02
  -7   9 -17    9.36    2.36
   7  10 -18    4.93    2.00
   7  10 -17    1.98    1.92
  -7  10  17    2.95    1.84
   7  10 -16   27.02    3.20
  -7  10  16   28.07    3.15
   7  10 -15    3.05    1.59
  -7  10  15    3.06    1.66
   7  10 -14   13.95    2.47
  -7  10  14   19.09    2.76
   7  10 -13    2.24    1.40
  -7  10  13    5.88    1.75
   7  10 -12  180.60    7.23
  -7  10  12  177.14    7.25
   7  10 -11    2.10    1.42
  -7  10  11   -0.56    1.59
   7  10 -10   38.54    3.33
  -7  10  10   38.04    3.42
   7  10  -9   -0.40    1.35
  -7  10   9    0.56    1.44
   7  10  -8   41.03    3.36
  -7  10   8   37.55    3.33
   7  10  -7    1.48    1.42
  -7  10   7    0.51    1.45
   7  10  -6  220.60    7.60
  -7  10   6  220.99    7.68
   7  10  -5    8.17    1.75
  -7  10   5    6.35    1.77
  -7  10   4    7.02    1.71
   7  10  -4    9.90    2.00
  -7  10   3   26.35    2.68
   7  10  -3   25.89    2.68
   7  10  -2   77.41    4.36
  -7  10   2   75.42    4.32
   7  10  -1    2.65    1.37
  -7  10   1    7.43    1.75
   7 -10   0    1.90    1.62
  -7  10   0   -0.20    1.48
   7  10   0   -0.68    1.54
   7 -10   1    8.92    1.75
  -7  10  -1    6.93    1.85
   7  10   1    7.22    1.91
   7 -10   2  112.86    5.31
   7  10   2  117.54    5.45
  -7  10  -2  108.02    5.29
  -7  10  -3   84.60    2.25
   7 -10   3   85.08    4.62
   7  10   3   80.42    4.52
  -7  10  -3   87.05    4.69
   7 -10   4   98.38    5.04
  -7  10  -4   93.97    2.83
   7  10   4   98.11    5.10
  -7  10  -4  101.15    5.15
  -7  10  -5    8.85    0.99
   7 -10   5    7.66    1.87
   7  10   5    7.74    2.00
  -7  10  -5    8.51    1.89
  -7 -10  -5    7.38    1.83
  -7  10  -6   86.35    3.18
   7 -10   6   85.90    4.76
  -7  10  -6   87.61    4.95
   7  10   6   93.51    5.10
  -7 -10  -6   87.66    4.84
   7 -10   7    7.18    1.94
  -7  10  -7    8.72    1.23
  -7  10  -7    5.66    1.73
  -7 -10  -7    6.27    1.68
  -7  10  -8   66.43    3.08
   7 -10   8   61.80    4.07
  -7 -10  -8   64.96    4.34
   7 -10   9    6.02    1.78
  -7  10  -9    6.41    1.28
  -7 -10  -9    6.53    1.94
   7 -10  10   71.72    4.44
  -7  10 -10   71.39    3.55
  -7 -10 -10   64.67    4.45
   7 -10  11   26.80    2.89
  -7  10 -11   26.17    2.29
  -7 -10 -11   27.99    3.18
   7 -10  12  125.04    6.03
  -7  10 -12  141.66    5.43
  -7 -10 -12  123.78    6.44
  -7  10 -13    2.09    1.30
  -7  10 -14    1.83    1.54
  -7  10 -15    2.70    1.71
  -7  10 -16    9.90    2.15
  -7  10 -17   -0.64    1.60
   7  11 -16   16.79    2.55
  -7  11  16   20.39    2.91
   7  11 -15   57.70    4.38
  -7  11  15   58.93    4.46
   7  11 -14  399.96   11.91
  -7  11  14  376.62   11.49
   7  11 -13   31.34    3.23
  -7  11  13   22.65    2.86
   7  11 -12  279.12    9.42
  -7  11  12  267.23    9.29
   7  11 -11   -0.25    1.51
  -7  11  11    1.62    1.37
   7  11 -10   94.46    5.19
  -7  11  10   89.92    5.15
   7  11  -9   47.59    3.76
  -7  11   9   52.22    3.92
   7  11  -8   70.99    4.43
  -7  11   8   72.26    4.45
   7  11  -7   41.72    3.45
  -7  11   7   38.05    3.41
   7  11  -6   52.34    3.79
  -7  11   6   59.53    4.04
   7  11  -5   12.37    2.23
  -7  11   5    9.37    1.97
   7  11  -4   99.59    5.16
  -7  11   4  110.94    5.35
  -7  11   3    7.34    1.81
   7  11  -3    7.98    1.89
   7  11  -2   11.18    2.10
  -7  11   2   12.69    2.08
   7  11  -1    1.57    1.54
  -7  11   1    2.69    1.44
  -7  11   0   45.08    3.47
   7  11   0   42.20    3.51
   7 -11   1   16.98    2.44
  -7  11  -1   17.68    2.47
   7  11   1   15.65    2.43
   7 -11   2   25.66    2.81
   7  11   2   32.60    3.12
  -7  11  -2   28.89    2.96
   7 -11   3   34.50    3.14
   7  11   3   36.44    3.22
  -7  11  -3   34.44    3.17
   7 -11   4    1.34    1.34
   7  11   4    0.80    1.56
  -7  11  -4    3.20    1.61
   7 -11   5   32.28    3.10
   7  11   5   26.61    3.04
  -7  11  -5   31.46    3.16
  -7 -11  -5   32.97    3.24
   7 -11   6   -0.81    1.60
   7  11   6    2.28    1.62
  -7  11  -6    1.90    1.38
  -7 -11  -6    3.45    1.82
   7 -11   7   13.29    2.25
  -7  11  -7   14.46    2.28
  -7 -11  -7   13.34    2.29
   7 -11   8   13.44    2.24
  -7  11  -8   15.52    2.55
  -7 -11  -8   15.66    2.54
   7 -11   9   10.89    2.20
  -7 -11  -9    8.29    2.16
   7 -11  10   55.40    4.06
  -7 -11 -10   60.23    4.35
   7 -11  11   30.07    3.16
  -7 -11 -11   28.55    3.25
   7 -11  12   54.86    4.04
   7 -11  13   54.00    4.07
   7  12 -15  181.93    7.97
  -7  12  15  182.57    7.95
   7  12 -14    7.92    2.25
  -7  12  14   10.31    2.50
   7  12 -13   -0.73    1.56
  -7  12  13    3.82    2.18
   7  12 -12   -0.43    1.72
  -7  12  12    2.38    1.78
   7  12 -11  330.64   10.57
  -7  12  11  328.44   10.51
   7  12 -10   31.54    3.26
  -7  12  10   28.99    3.12
   7  12  -9    4.52    1.88
  -7  12   9    6.65    1.85
   7  12  -8    8.38    1.99
  -7  12   8    5.41    1.93
   7  12  -7  108.76    5.62
  -7  12   7  119.50    5.82
   7  12  -6   83.18    4.84
  -7  12   6   75.55    4.70
   7  12  -5   32.38    3.10
  -7  12   5   30.13    2.98
  -7  12   4   19.27    2.54
   7  12  -4   18.83    2.58
   7  12  -3   72.24    4.56
  -7  12   3   70.38    4.54
   7  12  -2   17.93    2.50
  -7  12   2   13.44    2.23
   7  12  -1    1.59    1.47
  -7  12   1    0.32    1.41
  -7  12   0   18.90    2.60
   7  12   0   19.26    2.48
  -7  12  -1    9.47    2.05
   7  12   1   12.67    2.34
   7 -12   2  132.34    6.12
   7  12   2  147.37    6.49
  -7  12  -2  144.37    6.44
   7 -12   3   59.44    4.11
   7  12   3   57.45    4.18
  -7  12  -3   53.81    4.06
   7 -12   4   86.45    4.94
   7  12   4   79.49    4.90
  -7  12  -4   89.93    5.18
   7 -12   5    3.09    1.65
   7  12   5    6.85    1.99
  -7  12  -5    3.92    1.69
  -7 -12  -5    5.73    1.92
   7 -12   6   72.20    4.59
  -7  12  -6   71.64    4.73
   7  12   6   60.46    4.35
  -7 -12  -6   65.59    4.48
   7 -12   7    6.08    1.75
  -7  12  -7    4.97    1.92
  -7 -12  -7    8.92    2.21
   7 -12   8   72.78    4.58
  -7  12  -8   74.09    4.92
  -7 -12  -8   75.32    4.92
   7 -12   9   10.68    2.16
  -7  12  -9   10.73    2.29
  -7 -12  -9    9.93    2.29
   7 -12  10   31.85    3.21
  -7 -12 -10   29.52    3.33
   7 -12  11   11.78    2.14
   7 -12  12   60.06    4.48
   7 -12  13  224.54    8.48
   7 -12  14    6.10    1.95
   7  13 -13    5.60    2.02
  -7  13  13    4.29    1.91
   7  13 -12    0.63    1.56
  -7  13  12   -0.90    1.76
   7  13 -11   17.64    2.69
  -7  13  11   21.08    2.71
   7  13 -10    1.09    1.55
  -7  13  10    1.05    1.72
   7  13  -9   85.88    5.23
  -7  13   9   84.38    5.15
   7  13  -8   32.32    3.37
  -7  13   8   30.21    3.28
   7  13  -7   33.30    3.29
  -7  13   7   43.60    3.77
   7  13  -6   27.12    3.00
  -7  13   6   23.65    2.83
   7  13  -5   27.24    3.02
  -7  13   5   25.21    2.89
  -7  13   4    1.64    1.59
   7  13  -4    1.48    1.67
   7  13  -3   88.07    5.14
  -7  13   3   88.77    5.10
   7  13  -2    3.11    1.60
  -7  13   2    2.51    1.81
   7  13  -1    0.39    1.61
  -7  13   1   -0.82    1.46
  -7  13   0    0.98    1.40
   7  13   0   -2.98    1.78
   7  13   1  276.51    9.42
  -7  13  -1  274.72    9.39
   7  13   2   30.19    3.13
  -7  13  -2   29.46    3.15
   7 -13   3   38.71    3.56
   7  13   3   36.60    3.49
  -7  13  -3   33.71    3.34
   7 -13   4    1.62    1.66
   7  13   4    1.71    1.53
  -7  13  -4    2.49    1.50
   7 -13   5  189.38    7.59
   7  13   5  201.37    8.04
  -7  13  -5  191.67    7.87
  -7 -13  -5  182.18    7.61
   7 -13   6    5.88    1.97
   7  13   6    4.37    1.98
  -7  13  -6    1.02    1.52
  -7 -13  -6    6.10    2.05
   7 -13   7    6.19    1.98
  -7  13  -7    3.71    1.41
  -7 -13  -7    4.77    2.20
   7 -13   8   31.09    3.13
  -7  13  -8   31.65    3.49
  -7 -13  -8   31.91    3.33
   7 -13   9   92.71    5.35
   7 -13  10   47.81    3.98
   7 -13  11   30.22    3.24
   7 -13  12    2.85    1.63
   7  14 -11  135.74    6.92
  -7  14  11  133.04    6.67
   7  14 -10   12.07    2.42
  -7  14  10   11.24    2.39
   7  14  -9   19.90    2.97
  -7  14   9   17.54    2.52
   7  14  -8    3.66    1.53
  -7  14   8    3.76    1.55
   7  14  -7   30.06    3.32
  -7  14   7   31.35    3.31
   7  14  -6   -0.58    1.84
  -7  14   6   -0.80    1.74
   7  14  -5    6.77    1.86
  -7  14   5    5.08    1.69
   7  14  -4    4.61    1.75
  -7  14   4    7.91    2.14
   7  14  -3   85.41    5.22
  -7  14   3   87.77    5.25
   7  14  -2   -1.64    1.46
  -7  14   2    0.02    1.45
   7  14  -1   14.82    2.43
  -7  14   1   21.18    2.84
  -7  14   0    5.19    1.63
   7  14   0   10.76    2.34
  -7  14  -1   14.26    2.30
   7  14   1   20.47    2.82
   7  14   2    5.85    1.82
  -7  14  -2    2.20    1.70
   7  14   3  129.00    6.44
  -7  14  -3  135.61    6.57
   7 -14   4    8.34    2.08
   7  14   4    9.70    2.28
  -7  14  -4   12.97    2.53
   7 -14   5    1.15    1.44
   7  14   5   -0.67    1.56
  -7  14  -5    1.92    1.60
   7 -14   6   20.03    2.74
   7  14   6   27.69    3.32
  -7  14  -6   18.12    2.75
  -7 -14  -6   19.17    2.85
   7 -14   7   29.30    3.22
   7 -14   8   59.81    4.45
  -7  15   8   40.24    3.76
   7  15  -7    3.85    1.77
  -7  15   7   -0.07    1.70
   7  15  -6    2.34    1.96
  -7  15   6    2.61    1.74
   7  15  -5  144.70    7.01
  -7  15   5  136.80    6.72
   7  15  -4   26.70    3.21
  -7  15   4   27.49    3.24
   7  15  -3   70.73    4.87
  -7  15   3   62.63    4.62
   7  15  -2    3.89    1.86
  -7  15   2    5.31    2.06
  -7  15   1   31.12    3.42
   7  15  -1   29.83    3.40
   7  15   0   48.94    4.09
  -7  15   0   46.58    4.05
   7  15   1  115.57    6.24
  -7  15  -1  103.72    5.90
   7  15   2   11.77    2.36
  -7  15  -2   15.01    2.54
   8   0 -23    0.57    1.39
   8   0 -22  141.99    6.23
   8   0 -21    1.56    1.35
   8   0 -20    5.65    1.49
   8   0 -19    0.71    1.16
   8   0 -18    8.40    1.64
   8   0 -17    0.03    1.14
  -8   0  17   -0.80    1.56
   8   0 -16    7.69    1.47
  -8   0  16    8.44    2.03
   8   0 -15    1.26    1.09
  -8   0  15   -1.03    1.40
   8   0 -14   34.50    2.45
  -8   0  14   31.71    2.13
  -8   0  14   39.20    3.09
   8   0 -13    0.14    0.83
  -8   0  13    1.21    0.89
  -8   0  13    1.01    1.30
   8   0 -12  121.43    4.38
  -8   0  12  135.99    4.16
  -8   0  12  135.54    5.42
   8   0 -11   -0.28    0.82
  -8   0  11    0.65    0.73
  -8   0  11   -0.27    1.11
   8   0 -10    0.23    0.72
  -8   0  10   -0.17    0.64
  -8   0  10    0.12    1.03
   8   0  -9    0.72    0.68
  -8   0   9    0.02    0.62
  -8   0   9    1.71    1.21
   8   0  -8   74.66    3.00
  -8   0   8   72.78    2.75
  -8   0   8   81.30    3.81
  -8   0   7    0.86    0.82
   8   0  -7    0.13    0.88
   8   0  -7    0.45    0.68
  -8   0   7    0.58    1.06
  -8   0   6  117.45    3.75
   8   0  -6  118.42    4.51
   8   0  -6  122.36    3.82
  -8   0   6  128.55    4.65
  -8   0   5   -0.27    0.69
   8   0  -5    0.61    0.63
   8   0  -5    0.09    0.78
  -8   0   5    0.70    0.93
  -8   0   4   65.37    2.70
   8   0  -4   69.34    2.76
  -8   0   4   70.55    3.27
  -8   0   3   -1.65    0.75
   8   0  -3    0.52    0.67
  -8   0   3    0.70    0.85
  -8   0   3   -0.02    0.67
  -8   0   2  166.05    4.65
   8   0  -2  171.80    4.68
  -8   0   2  177.87    4.66
  -8   0   2  167.10    5.18
  -8   0   1    1.21    0.77
  -8   0   1    0.22    0.72
  -8   0   1    0.83    0.84
  -8   0   0  352.69    7.77
  -8   0   0  363.92    7.72
  -8   0   0  364.23    8.21
  -8   0  -1   -1.07    0.86
  -8   0  -1   -0.44    0.96
  -8   0  -1   -1.10    0.89
  -8   0  -2   10.33    1.38
  -8   0  -2   11.05    1.37
  -8   0  -2    9.02    1.22
  -8   0  -3   -0.97    0.83
  -8   0  -3   -0.78    0.83
  -8   0  -3   -2.01    1.24
  -8   0  -4  484.13   10.31
  -8   0  -4  488.93   10.25
  -8   0  -4  504.75   10.41
  -8   0  -5    1.41    0.89
  -8   0  -5   -0.56    0.83
  -8   0  -5   -0.47    0.92
  -8   0  -6  128.97    4.65
  -8   0  -6  130.27    4.82
  -8   0  -7   -1.10    0.95
  -8   0  -7    1.44    1.19
  -8   0  -8   65.41    3.31
  -8   0  -8   52.03    3.27
  -8   0  -9   -0.31    1.11
  -8   0 -10  170.03    6.26
  -8   0 -11    0.76    1.29
  -8   0 -12   35.64    3.03
  -8   0 -13   -1.47    1.38
  -8   0 -14   58.08    4.05
  -8   0 -15   -2.01    1.62
  -8   0 -16    1.05    1.57
  -8   0 -17    0.04    1.58
   8   1 -24   35.43    3.51
   8   1 -23    4.21    1.61
   8   1 -22    8.76    2.10
   8   1 -21   12.47    2.25
   8  -1 -21   13.67    2.06
   8   1 -20   30.56    2.89
   8  -1 -20   26.82    2.55
   8   1 -19    6.06    1.51
   8  -1 -19    5.99    1.46
   8  -1 -18    0.87    1.13
   8   1 -18   -1.13    1.15
  -8   1  18    0.06    1.37
   8   1 -17    1.74    1.19
   8  -1 -17   -0.25    0.98
  -8   1  17    0.16    1.43
   8   1 -16  244.24    7.45
   8  -1 -16  253.40    7.14
  -8   1  16  270.85    8.67
   8   1 -15   53.48    3.24
   8  -1 -15   57.61    3.12
  -8  -1  15   52.95    3.65
  -8   1  15   54.28    3.74
   8   1 -14  211.40    6.56
   8  -1 -14  226.77    6.33
  -8  -1  14  239.51    6.40
  -8  -1  14  231.72    7.52
  -8   1  14  237.72    7.78
   8  -1 -13   24.47    1.97
   8   1 -13   26.01    2.20
  -8   1  13   26.96    1.79
  -8  -1  13   30.39    2.11
  -8  -1  13   22.74    2.37
  -8   1  13   24.86    2.51
   8   1 -12   10.80    1.50
   8  -1 -12   12.66    1.41
  -8   1  12   13.90    1.28
  -8  -1  12   12.27    1.42
  -8  -1  12   12.72    1.88
  -8   1  12   13.11    1.89
   8  -1 -11   16.06    1.52
   8   1 -11   14.40    1.61
  -8   1  11   15.00    1.25
  -8  -1  11   14.10    1.50
  -8  -1  11   12.49    1.79
  -8   1  11   16.99    2.10
   8  -1 -10   28.45    1.85
   8   1 -10   27.91    2.08
  -8  -1  10   28.18    1.91
  -8   1  10   28.60    1.61
  -8   1  10   28.56    2.53
  -8  -1  10   30.11    2.58
   8   1  -9   62.82    3.00
   8  -1  -9   63.00    2.63
  -8  -1   9   59.80    2.70
  -8   1   9   65.78    2.36
  -8  -1   9   60.86    3.31
  -8   1   9   61.16    3.46
   8  -1  -8   86.86    3.06
   8   1  -8   89.70    3.91
   8   1  -8   83.37    3.41
  -8  -1   8   86.84    3.42
  -8   1   8   89.37    2.76
  -8  -1   8   89.64    3.91
  -8   1   8   94.97    4.23
   8   1  -7   49.72    2.58
   8   1  -7   47.44    2.81
   8  -1  -7   54.61    2.32
  -8  -1   7   50.70    2.58
  -8   1   7   54.16    2.08
  -8  -1   7   53.34    2.94
  -8   1   7   52.10    3.07
  -8  -1   6  413.27    8.66
  -8   1   6  407.21    7.89
   8  -1  -6  440.33    8.07
   8   1  -6  411.98    9.30
   8  -1  -6  407.90    9.62
   8   1  -6  426.41    8.77
  -8  -1   6  418.75    9.27
  -8   1   6  416.25    9.66
  -8  -1   5   67.66    2.90
  -8   1   5   64.30    2.46
   8  -1  -5   71.71    2.59
   8   1  -5   68.92    2.96
   8   1  -5   67.38    3.16
   8  -1  -5   64.86    3.31
  -8  -1   5   66.13    3.14
  -8   1   5   74.17    2.47
  -8   1   5   71.17    3.46
  -8   1   4   62.11    2.39
  -8  -1   4   58.67    2.71
   8  -1  -4   66.38    2.46
   8   1  -4   59.01    2.74
   8   1  -4   59.61    2.92
  -8   1   4   62.33    3.22
  -8   1   4   62.58    2.29
  -8  -1   4   64.81    3.06
  -8   1   3    6.59    0.86
  -8  -1   3    8.14    1.12
   8  -1  -3    8.62    1.03
   8   1  -3    9.32    1.20
  -8   1   3   10.09    1.03
  -8   1   3    6.53    1.30
  -8  -1   3    8.99    1.33
   8   1  -2  110.01    3.81
  -8  -1   2  108.04    3.83
  -8   1   2  112.74    3.48
  -8   1   2  111.46    3.39
  -8  -1   2  119.58    4.07
  -8  -1   2  112.25    3.80
  -8   1   2  114.19    4.30
   8   1  -1   59.43    2.79
  -8  -1   1   53.55    2.66
  -8   1   1   55.25    2.43
  -8   1   1   56.81    2.41
  -8   1   1   58.94    3.03
  -8  -1   1   57.70    2.72
  -8  -1   1   55.56    2.72
  -8   1   0   59.79    2.60
  -8  -1   0   66.66    3.02
  -8   1   0   62.48    2.61
  -8  -1   0   68.08    3.01
  -8   1   0   66.34    3.21
  -8  -1   0   64.75    2.90
  -8  -1  -1   10.56    1.27
  -8   1  -1   10.18    1.40
  -8   1  -1   10.24    1.19
  -8  -1  -1   13.96    1.47
  -8   1  -1   11.23    1.21
  -8  -1  -1   11.08    1.33
  -8  -1  -2   68.26    3.17
  -8   1  -2   71.08    3.35
  -8   1  -2   67.21    2.90
  -8   1  -2   69.87    2.96
  -8  -1  -2   71.54    3.21
  -8  -1  -2   72.55    3.07
  -8  -1  -3   17.18    1.69
  -8   1  -3   15.76    1.51
  -8  -1  -3   16.66    1.55
  -8   1  -3   16.17    1.74
  -8   1  -3   16.66    1.51
  -8  -1  -3   19.40    1.83
  -8   1  -4   28.94    2.08
  -8  -1  -4   30.03    2.25
  -8  -1  -4   27.97    1.98
  -8   1  -4   25.70    2.08
  -8   1  -4   26.48    2.02
  -8  -1  -4   31.39    2.27
  -8  -1  -5   27.46    2.01
  -8   1  -5   27.84    2.12
  -8   1  -5   26.06    2.18
  -8  -1  -5   26.72    2.17
  -8   1  -5   24.14    2.01
  -8  -1  -6  100.65    3.89
  -8   1  -6   99.44    4.09
  -8   1  -6   99.10    4.15
  -8  -1  -6  103.64    4.40
  -8   1  -6  105.27    4.20
  -8  -1  -7  143.59    4.84
  -8   1  -7  135.19    5.02
  -8  -1  -7  146.08    5.43
  -8   1  -7  145.48    5.19
  -8  -1  -8  200.33    5.96
  -8  -1  -8  201.67    6.63
  -8   1  -8  200.93    6.43
  -8   1  -9    1.70    1.24
  -8  -1  -9    2.13    1.13
  -8  -1 -10    5.64    1.61
  -8   1 -10    1.66    1.41
  -8  -1 -11   24.52    2.56
  -8   1 -11   23.69    2.48
  -8   1 -12  105.19    5.10
  -8  -1 -12  104.19    5.18
  -8  -1 -13    5.06    1.74
  -8   1 -13    7.77    1.94
  -8   1 -14  127.54    5.99
  -8  -1 -14  130.02    6.18
  -8   1 -15    8.54    2.07
  -8  -1 -15    6.08    2.07
  -8   1 -16   26.05    3.03
  -8  -1 -16   31.62    3.30
  -8   1 -17    2.10    1.58
   8   2 -24   26.40    3.13
   8   2 -23    1.94    1.62
   8   2 -22   59.16    4.14
   8   2 -21   17.92    2.42
   8   2 -20    0.94    1.35
   8  -2 -20    0.51    1.18
   8  -2 -19    1.02    1.06
   8   2 -19    1.15    1.18
  -8   2  19    4.09    1.99
   8  -2 -18   15.65    1.88
   8   2 -18   18.89    2.28
  -8   2  18    9.98    2.07
   8  -2 -17   20.66    2.01
   8   2 -17   18.53    2.20
  -8   2  17   21.05    2.77
   8   2 -16    5.57    1.52
   8  -2 -16    6.69    1.26
  -8   2  16    6.29    1.87
   8   2 -15   10.82    1.77
   8  -2 -15   11.54    1.48
  -8   2  15   10.70    2.05
   8   2 -14  121.18    4.88
   8  -2 -14  110.95    4.07
   8  -2 -14  111.24    4.09
  -8  -2  14  116.29    4.47
  -8  -2  14  117.92    5.18
  -8   2  14  115.08    5.40
   8   2 -13   64.28    3.48
   8  -2 -13   67.11    2.99
   8  -2 -13   72.91    3.29
  -8  -2  13   68.27    3.27
  -8   2  13   76.66    4.32
  -8  -2  13   67.88    3.87
   8   2 -12  331.85    8.50
   8  -2 -12  352.56    8.19
   8  -2 -12  340.02    7.46
  -8   2  12  356.87    6.79
  -8  -2  12  342.53    8.09
  -8   2  12  345.49    9.53
  -8  -2  12  353.26    9.11
   8  -2 -11   50.67    2.36
   8   2 -11   48.20    2.93
   8  -2 -11   54.92    2.93
  -8   2  11   54.85    2.08
  -8  -2  11   54.77    2.81
  -8   2  11   50.84    3.38
  -8  -2  11   58.13    3.32
   8  -2 -10   48.14    2.24
   8   2 -10   48.16    2.83
   8  -2 -10   46.74    2.82
  -8   2  10   51.20    1.92
  -8  -2  10   50.22    2.67
  -8   2  10   55.25    3.43
  -8  -2  10   47.00    2.91
   8   2  -9  180.23    5.55
   8  -2  -9  194.85    4.64
   8  -2  -9  186.19    5.76
  -8  -2   9  183.39    5.55
  -8  -2   9  179.50    5.28
  -8   2   9  192.24    4.03
  -8   2   9  184.13    6.28
   8   2  -9  183.67    5.90
  -8  -2   9  190.87    5.94
   8   2  -8  140.49    4.75
   8   2  -8  143.01    5.00
   8  -2  -8  147.29    3.80
   8  -2  -8  145.02    5.01
  -8  -2   8  141.97    4.70
  -8   2   8  147.64    3.30
  -8  -2   8  150.09    5.03
  -8   2   8  145.01    5.44
   8   2  -7   42.48    2.50
   8   2  -7   42.32    2.59
   8  -2  -7   43.84    1.88
   8  -2  -7   41.21    2.68
  -8  -2   7   42.61    2.47
  -8   2   7   47.19    1.63
  -8  -2   7   40.39    2.50
  -8   2   7   43.16    2.99
   8   2  -6   43.79    2.51
   8  -2  -6   42.12    1.79
   8   2  -6   40.16    2.43
  -8  -2   6   41.23    2.56
  -8  -2   6   43.97    2.50
   8  -2  -6   40.80    2.75
  -8   2   6   44.51    1.60
  -8  -2   6   47.54    2.66
  -8   2   6   47.02    1.63
  -8   2   6   43.36    2.87
   8  -2  -5  150.97    3.63
   8   2  -5  143.10    4.63
   8   2  -5  145.37    4.71
  -8   2   5  144.46    3.56
  -8  -2   5  141.90    4.67
   8  -2  -5  142.70    5.16
  -8   2   5  149.32    3.34
  -8   2   5  146.18    5.20
  -8  -2   5  145.52    4.67
   8   2  -4   29.74    2.08
   8   2  -4   31.99    2.06
   8  -2  -4   35.21    1.59
  -8   2   4   30.82    1.53
  -8  -2   4   36.65    2.28
   8  -2  -4   32.06    2.46
  -8   2   4   33.54    1.50
  -8   2   4   32.36    2.42
  -8  -2   4   32.79    2.09
   8   2  -3    0.85    0.80
  -8   2   3    0.72    0.58
  -8  -2   3    1.67    0.80
  -8   2   3    0.96    0.54
  -8   2   3    1.00    1.00
  -8  -2   3    0.93    0.78
   8   2  -2   57.19    2.85
  -8  -2   2   58.15    2.88
  -8   2   2   56.87    2.20
  -8   2   2   60.43    2.19
  -8   2   2   61.41    3.20
  -8  -2   2   57.15    2.66
   8   2  -1  130.02    4.45
  -8  -2   1  126.65    4.42
  -8   2   1  126.80    3.58
  -8   2   1  135.35    3.62
  -8  -2   1  132.08    4.12
  -8  -2   1  124.95    4.28
  -8   2   1  135.26    4.80
   8   2   0  347.96    8.13
  -8  -2   0  338.85    8.10
  -8   2   0  338.62    7.01
  -8   2   0  360.20    7.14
  -8  -2   0  367.65    7.65
  -8  -2   0  354.92    8.06
  -8   2   0  346.70    8.48
  -8   2  -1    3.93    1.29
  -8   2  -1    2.94    0.76
  -8  -2  -1    4.04    0.98
  -8   2  -1    2.83    0.81
  -8  -2  -1    2.80    0.73
  -8  -2  -1    2.28    0.95
  -8  -2  -2  101.02    4.07
  -8   2  -2   92.67    4.07
  -8   2  -2   95.53    3.37
  -8  -2  -2   89.57    3.81
  -8   2  -2   96.39    3.39
  -8  -2  -2   99.09    3.49
  -8   2  -3   44.44    2.34
  -8   2  -3   42.60    2.76
  -8  -2  -3   49.47    2.89
  -8  -2  -3   44.39    2.78
  -8   2  -3   44.33    2.38
  -8  -2  -3   48.51    2.42
  -8  -2  -4  108.98    3.76
  -8   2  -4  104.89    4.39
  -8   2  -4  112.50    3.95
  -8  -2  -4  109.78    4.42
  -8   2  -4  117.07    4.06
  -8   2  -5   13.64    1.55
  -8  -2  -5   15.20    1.46
  -8   2  -5   14.99    1.83
  -8   2  -5   15.98    1.66
  -8  -2  -5   15.31    1.87
  -8  -2  -6  125.60    4.21
  -8   2  -6  128.38    4.54
  -8   2  -6  119.52    4.78
  -8   2  -6  126.97    4.60
  -8  -2  -6  118.63    4.83
  -8   2  -7   55.13    3.04
  -8  -2  -7   60.24    2.94
  -8   2  -7   58.04    3.35
  -8   2  -7   61.84    3.27
  -8  -2  -7   60.19    3.53
  -8  -2  -8    2.88    0.99
  -8  -2  -8    1.26    1.28
  -8   2  -8    2.87    1.26
  -8  -2  -9    4.42    1.54
  -8   2  -9    2.13    1.18
  -8  -2 -10  211.62    7.24
  -8   2 -10  205.01    6.80
  -8  -2 -11   36.79    3.10
  -8   2 -11   33.19    2.82
  -8  -2 -12    3.54    1.72
  -8   2 -12    1.87    1.28
  -8  -2 -13   10.27    2.09
  -8   2 -13   14.03    2.23
  -8   2 -14  127.96    5.92
  -8  -2 -14  128.09    6.14
  -8   2 -15   54.75    4.18
  -8  -2 -15   53.22    4.01
  -8   2 -16  108.94    5.70
  -8  -2 -16  104.25    5.80
  -8   2 -17    1.89    1.56
   8   3 -23    1.22    1.43
   8   3 -22   20.79    2.67
   8   3 -21   48.03    3.85
   8   3 -20    1.67    1.67
  -8   3  20    3.83    2.06
   8   3 -19   69.36    4.32
  -8   3  19   71.24    4.95
   8   3 -18   59.69    3.87
   8  -3 -18   57.94    3.23
  -8   3  18   61.23    4.38
   8  -3 -17   25.68    2.00
   8  -3 -17   21.72    1.95
   8   3 -17   24.09    2.50
  -8   3  17   25.49    2.90
   8  -3 -16  230.81    6.13
   8   3 -16  205.93    7.17
   8  -3 -16  208.99    6.05
  -8   3  16  231.55    8.18
   8  -3 -15  248.97    6.57
   8   3 -15  236.22    7.52
   8  -3 -15  228.45    6.15
  -8   3  15  256.77    8.48
   8  -3 -14    0.90    1.02
   8   3 -14    2.29    1.38
   8  -3 -14    0.28    0.66
  -8   3  14    0.34    1.47
   8  -3 -13    6.02    1.22
   8   3 -13    4.02    1.17
   8  -3 -13    4.68    0.95
  -8   3  13    6.20    1.72
   8  -3 -12   20.63    1.49
   8  -3 -12   21.08    1.96
   8   3 -12   24.20    2.31
  -8  -3  12   23.28    2.07
  -8   3  12   21.65    2.38
  -8  -3  12   22.71    2.28
   8  -3 -11    0.71    0.55
   8   3 -11    1.08    0.98
   8  -3 -11    0.15    1.01
  -8   3  11    0.65    0.42
  -8  -3  11    1.29    0.99
  -8   3  11    0.52    1.23
  -8  -3  11    1.20    1.11
   8   3 -10   39.85    2.67
   8  -3 -10   41.02    1.83
   8  -3 -10   44.41    2.84
  -8  -3  10   40.03    2.47
  -8   3  10   38.52    1.34
  -8   3  10   42.34    3.09
  -8  -3  10   38.45    2.64
   8  -3  -9   13.14    1.02
   8   3  -9   14.83    1.71
   8   3  -9   12.92    1.46
   8  -3  -9   12.56    1.63
  -8  -3   9   12.47    1.55
  -8   3   9   14.01    0.69
  -8   3   9   11.79    1.81
  -8  -3   9   13.16    1.62
   8  -3  -8   -0.43    0.47
   8   3  -8    0.63    0.90
   8   3  -8    0.61    0.97
   8  -3  -8   -0.77    1.19
  -8  -3   8    0.60    0.78
  -8  -3   8   -0.44    0.91
  -8   3   8    0.46    0.26
  -8  -3   8   -0.08    0.94
  -8   3   8   -1.09    1.28
  -8   3   8    0.41    0.24
   8   3  -7    0.50    0.91
   8  -3  -7    1.68    0.45
   8   3  -7    2.48    0.89
   8  -3  -7    1.60    1.03
  -8  -3   7    1.69    0.93
  -8  -3   7    2.56    1.01
  -8   3   7    1.25    0.25
  -8   3   7    1.02    0.23
  -8  -3   7    2.42    0.91
  -8   3   7    0.76    1.13
   8  -3  -6  104.30    2.47
   8   3  -6  104.71    4.09
   8   3  -6   95.60    3.71
  -8  -3   6  102.64    3.99
   8  -3  -6  103.85    4.40
  -8  -3   6   95.67    3.97
  -8   3   6   98.70    1.89
  -8   3   6  105.18    4.52
  -8  -3   6  105.06    3.81
   8   3  -5   96.92    3.67
   8   3  -5   99.03    3.97
   8  -3  -5   97.05    4.24
  -8  -3   5  101.30    4.03
  -8   3   5  106.50    2.11
  -8   3   5   99.99    2.07
  -8  -3   5  103.32    3.72
  -8   3   5   89.32    4.21
   8   3  -4   94.17    3.87
   8   3  -4   85.00    3.34
   8  -3  -4   91.57    4.20
  -8   3   4   93.46    2.39
  -8  -3   4   93.96    3.85
  -8   3   4  102.79    2.25
  -8  -3   4   94.58    3.47
  -8   3   4  101.59    4.35
   8   3  -3    0.80    0.91
   8  -3  -3    1.64    1.26
  -8   3   3    1.07    0.48
  -8  -3   3    0.72    0.73
  -8   3   3    0.64    0.39
  -8  -3   3   -0.74    0.80
  -8   3   3   -0.47    1.18
   8   3  -2  118.35    4.39
   8  -3  -2  110.19    4.70
  -8  -3   2  118.68    4.41
  -8   3   2  126.48    3.07
  -8   3   2  123.73    3.01
  -8   3   2  121.18    4.76
  -8  -3   2  126.29    3.89
   8   3  -1  305.48    7.70
  -8  -3   1  309.71    7.80
  -8   3   1  310.25    5.97
   8  -3  -1  306.53    8.39
  -8   3   1  320.57    6.01
  -8  -3   1  318.27    6.80
  -8   3   1  311.93    8.15
   8   3   0  190.82    5.84
  -8   3   0  194.80    4.50
  -8  -3   0  201.10    6.00
   8  -3   0  195.86    6.47
  -8   3   0  194.15    4.52
  -8  -3   0  200.71    4.97
  -8   3   0  190.17    6.08
  -8  -3   0  195.70    5.79
   8   3   1    0.80    1.00
  -8   3  -1   -0.91    1.14
  -8   3  -1    0.98    0.61
  -8  -3  -1   -0.50    0.97
  -8   3  -1    0.03    0.69
  -8  -3  -1    0.28    0.60
  -8  -3  -1   -0.02    1.00
  -8   3  -2   11.98    1.23
  -8   3  -2   11.14    1.63
  -8  -3  -2   12.36    1.56
  -8   3  -2    9.33    1.02
  -8  -3  -2   10.93    1.61
  -8  -3  -2   12.45    1.23
  -8   3  -3   21.83    1.62
  -8   3  -3   20.22    2.02
  -8   3  -3   21.45    1.65
  -8  -3  -3   20.00    1.54
  -8  -3  -3   19.10    1.90
  -8   3  -4  205.00    6.49
  -8   3  -4  200.78    5.42
  -8   3  -4  216.26    5.68
  -8  -3  -4  214.04    6.52
  -8  -3  -4  203.86    5.17
  -8   3  -5    7.48    1.19
  -8  -3  -5    8.08    1.09
  -8   3  -5    7.03    1.56
  -8   3  -5   11.95    1.60
  -8  -3  -5    8.66    1.57
  -8  -3  -6   37.65    2.09
  -8   3  -6   40.12    2.46
  -8   3  -6   36.77    2.79
  -8  -3  -6   39.80    2.91
  -8   3  -6   37.91    2.46
  -8   3  -7  124.31    4.56
  -8  -3  -7  123.53    4.03
  -8   3  -7  113.66    4.89
  -8   3  -7  120.47    4.57
  -8  -3  -7  124.48    5.17
  -8  -3  -8  284.84    6.74
  -8   3  -8  263.01    7.48
  -8  -3  -8  271.32    8.19
  -8  -3  -9    7.17    1.23
  -8   3  -9    3.45    1.27
  -8  -3  -9    6.03    1.54
  -8  -3 -10    4.10    1.48
  -8   3 -10    4.29    1.30
  -8   3 -11   41.86    3.17
  -8  -3 -11   39.31    3.31
  -8   3 -12  106.53    5.06
  -8  -3 -12   97.80    5.16
  -8   3 -13   80.29    4.52
  -8  -3 -13   79.56    4.80
  -8   3 -14   -0.16    1.57
  -8  -3 -14    0.64    1.43
  -8  -3 -15   21.33    2.73
  -8   3 -15   21.70    2.67
  -8  -3 -16    7.52    2.24
  -8   3 -16    0.55    1.43
  -8   3 -17   70.64    4.80
   8   4 -23  129.45    6.59
   8   4 -22   11.43    2.25
   8   4 -21    3.24    1.65
   8   4 -20    4.11    1.70
  -8   4  20   11.10    2.29
   8   4 -19   78.77    4.75
  -8   4  19   85.25    5.28
   8   4 -18   10.01    1.91
  -8   4  18   12.57    2.44
   8  -4 -17   59.18    3.04
   8   4 -17   56.63    3.85
  -8   4  17   53.05    4.07
   8   4 -16   11.34    1.90
   8  -4 -16   18.65    1.84
  -8   4  16   16.45    2.49
   8   4 -15    2.30    1.23
   8  -4 -15    6.35    1.28
   8  -4 -15    3.10    0.85
  -8   4  15    4.76    1.76
   8   4 -14   -0.92    1.20
   8  -4 -14    0.25    0.63
   8  -4 -14    1.37    1.13
  -8   4  14    1.67    1.37
   8  -4 -13  129.64    3.81
   8  -4 -13  137.38    4.92
   8   4 -13  134.26    5.44
  -8   4  13  151.70    6.27
   8  -4 -12   47.48    2.88
   8   4 -12   45.36    3.13
   8  -4 -12   43.97    1.96
  -8   4  12   46.94    3.47
   8   4 -11    0.52    0.98
   8  -4 -11    0.36    1.01
   8  -4 -11    0.53    0.45
  -8   4  11    1.03    1.30
   8  -4 -10   74.64    3.70
   8  -4 -10   82.11    2.28
   8   4 -10   72.41    3.75
  -8   4  10   77.64    4.23
   8   4 -10   70.57    3.49
  -8  -4  10   78.68    3.70
   8  -4  -9  223.13    6.71
  -8  -4   9  218.65    6.02
   8   4  -9  207.17    6.58
   8  -4  -9  234.37    4.13
   8   4  -9  209.11    6.16
  -8   4   9  221.17    7.22
  -8  -4   9  226.47    6.33
  -8  -4   8   14.87    1.56
   8  -4  -8   12.81    1.75
   8  -4  -8   11.52    0.61
   8   4  -8   12.60    1.47
   8   4  -8   13.28    1.78
  -8  -4   8   13.96    1.57
  -8   4   8   12.59    2.03
  -8  -4   7   19.36    1.77
   8  -4  -7   21.92    2.13
   8   4  -7   20.44    1.75
   8   4  -7   21.94    2.02
  -8  -4   7   22.27    1.82
  -8   4   7   23.00    2.34
  -8  -4   6  403.42    9.41
   8  -4  -6  416.65    9.84
  -8  -4   6  405.19    9.25
   8   4  -6  397.46    9.38
   8   4  -6  388.67    8.45
  -8   4   6  403.73   10.00
  -8  -4   6  414.97    8.57
   8  -4  -5  208.65    6.57
  -8  -4   5  213.54    6.31
   8   4  -5  200.37    5.38
   8   4  -5  201.97    6.20
  -8   4   5  220.87    6.83
  -8  -4   5  211.58    5.43
   8  -4  -4   91.09    4.28
  -8  -4   4   97.58    4.05
   8   4  -4   96.24    4.07
   8   4  -4   89.65    3.26
  -8  -4   4   99.56    3.40
  -8   4   4   92.36    4.33
   8  -4  -3  422.53   10.32
  -8  -4   3  450.72    9.99
   8   4  -3  421.99    9.78
  -8   4   3  430.26   10.24
  -8  -4   3  448.09    8.49
  -8   4   2   19.54    2.08
   8   4  -2   20.73    1.96
  -8   4   2   21.53    0.91
   8  -4  -2   18.29    2.05
  -8  -4   2   20.13    1.90
  -8   4   2   23.18    0.98
  -8  -4   2   21.01    1.42
   8   4  -1  113.84    4.46
   8  -4  -1  115.87    4.88
  -8  -4   1  108.97    4.42
  -8   4   1  106.94    2.59
  -8   4   1  113.27    2.74
  -8   4   1  108.64    4.65
  -8  -4   1  111.17    3.34
   8   4   0   27.41    2.17
  -8   4   0   26.42    2.32
   8  -4   0   31.50    2.66
  -8   4   0   29.12    1.40
  -8   4   0   29.31    1.43
  -8  -4   0   30.74    1.65
   8   4   1  364.68    9.19
  -8   4  -1  385.04    9.58
  -8   4  -1  392.29    7.17
   8  -4   1  383.71    9.86
  -8   4  -1  406.03    7.42
  -8  -4  -1  387.20    9.25
  -8  -4  -1  399.98    7.47
  -8   4  -2   98.37    4.41
  -8   4  -2   99.95    3.10
   8   4   2   97.14    4.28
   8  -4   2   99.39    4.66
  -8   4  -2  105.41    3.28
  -8  -4  -2  105.03    3.13
  -8  -4  -2   93.56    4.15
  -8   4  -3   11.68    1.70
  -8   4  -3   11.28    1.13
   8  -4   3   10.58    1.76
  -8   4  -3   10.55    1.26
  -8  -4  -3   10.76    1.05
  -8  -4  -3   11.36    1.64
  -8  -4  -4    0.12    0.58
  -8   4  -4    0.20    0.68
  -8   4  -4    1.78    1.27
  -8   4  -4    1.33    0.85
  -8  -4  -4    0.08    1.15
  -8   4  -5  456.24    9.24
  -8   4  -5  429.04   10.67
  -8   4  -5  451.34    9.41
  -8  -4  -5  447.75   10.72
  -8  -4  -5  467.61    8.52
  -8  -4  -6   13.78    1.27
  -8   4  -6   14.28    1.96
  -8   4  -6   16.71    1.67
  -8   4  -6   13.96    1.56
  -8  -4  -6   14.80    1.94
  -8   4  -7   91.73    3.80
  -8  -4  -7   93.98    3.21
  -8   4  -7   89.75    4.44
  -8   4  -7   88.08    3.83
  -8  -4  -7   92.34    4.58
  -8   4  -8    1.77    1.04
  -8  -4  -8    1.29    0.75
  -8  -4  -8    1.76    1.36
  -8   4  -8    0.79    1.10
  -8  -4  -9  231.40    5.78
  -8   4  -9  220.70    6.85
  -8  -4  -9  224.65    7.60
  -8  -4 -10    0.55    0.84
  -8   4 -10   -0.45    1.16
  -8  -4 -10   -0.05    1.52
  -8  -4 -11  134.24    6.06
  -8   4 -11  139.00    5.60
  -8  -4 -12   49.29    3.86
  -8   4 -12   43.92    3.32
  -8   4 -13   18.37    2.38
  -8  -4 -13   16.76    2.52
  -8   4 -14    2.70    1.60
  -8  -4 -14    0.33    1.65
  -8   4 -15    9.04    2.11
  -8  -4 -15    5.51    1.80
  -8   4 -16   41.42    3.60
  -8   4 -17   17.41    2.60
   8   5 -22    2.62    1.66
   8   5 -21   39.74    3.64
   8   5 -20   14.28    2.44
   8   5 -19  110.67    5.83
  -8   5  19  131.06    6.49
   8   5 -18   22.38    2.80
  -8   5  18   19.90    2.81
   8  -5 -17   22.58    2.09
   8   5 -17   19.77    2.43
  -8   5  17   27.02    3.09
   8  -5 -16    2.06    1.16
   8   5 -16    2.66    1.57
  -8   5  16   -0.06    1.43
   8   5 -15  445.60   11.52
   8  -5 -15  456.36   10.27
  -8   5  15  458.53   12.28
   8   5 -14   66.54    3.99
   8  -5 -14   70.64    3.59
  -8   5  14   57.72    4.13
   8  -5 -13    2.64    1.23
   8   5 -13   -0.70    1.26
  -8   5  13    3.20    1.56
   8  -5 -12    7.05    0.74
   8  -5 -12    5.33    1.32
   8   5 -12    6.58    1.46
  -8   5  12    8.91    1.95
   8  -5 -11  159.72    5.58
   8   5 -11  148.17    5.72
   8  -5 -11  163.62    3.26
  -8   5  11  157.25    6.31
   8  -5 -10   34.86    2.62
  -8  -5  10   34.21    2.23
   8   5 -10   32.61    2.67
  -8   5  10   32.06    2.87
   8   5 -10   28.96    2.23
   8  -5  -9   25.71    2.32
  -8  -5   9   22.60    1.91
   8   5  -9   24.36    2.33
  -8   5   9   27.59    2.64
   8   5  -9   24.94    2.01
   8  -5  -8   20.97    2.21
  -8  -5   8   21.59    1.91
   8   5  -8   20.54    1.77
   8   5  -8   21.16    2.13
  -8   5   8   23.85    2.56
  -8  -5   7  425.65    9.56
   8  -5  -7  432.56   10.24
   8   5  -7  419.21    8.87
   8   5  -7  416.25   10.05
  -8   5   7  419.20   10.59
  -8  -5   7  444.92    8.99
   8  -5  -6   45.09    3.11
   8   5  -6   45.02    2.96
   8   5  -6   44.44    2.32
  -8   5   6   48.39    3.35
  -8  -5   6   48.22    2.41
   8  -5  -5   16.07    1.98
   8   5  -5   18.08    2.01
   8   5  -5   17.89    1.44
  -8  -5   5   19.92    1.54
  -8   5   5   16.73    2.24
   8  -5  -4  136.11    5.39
   8   5  -4  127.83    4.99
   8   5  -4  132.46    3.85
  -8  -5   4  145.61    3.99
  -8   5   4  130.02    5.29
   8  -5  -3  693.42   14.30
   8   5  -3  664.35   13.65
  -8   5   3  665.41   14.13
  -8  -5   3  707.82   11.57
   8  -5  -2   17.65    2.14
  -8   5   2   16.64    1.86
   8   5  -2   17.74    2.01
  -8  -5   2   18.40    1.28
   8   5  -1   98.57    4.34
   8  -5  -1   99.65    4.66
  -8   5   1  108.71    2.31
  -8  -5   1  105.44    3.00
  -8   5   1   97.77    4.54
   8   5   0    2.35    1.21
  -8   5   0    1.82    1.27
   8  -5   0    3.64    1.41
  -8   5   0    2.74    0.46
  -8   5   0    3.42    0.61
  -8  -5   0    2.47    0.59
   8   5   1    0.17    1.00
  -8   5  -1    0.35    1.12
   8  -5   1   -0.98    1.32
  -8   5  -1    0.75    0.47
  -8   5  -1    1.09    0.62
  -8  -5  -1   -0.40    1.16
  -8  -5  -1    1.52    0.60
  -8   5  -2    9.35    0.88
   8   5   2    9.49    1.66
  -8   5  -2    8.06    1.59
   8  -5   2   10.15    1.80
  -8   5  -2    9.52    1.07
  -8  -5  -2   11.01    0.96
  -8  -5  -2    9.71    1.58
  -8   5  -3   53.68    3.40
   8   5   3   52.90    3.27
  -8   5  -3   56.35    2.30
   8  -5   3   55.97    3.60
  -8   5  -3   56.32    2.47
  -8  -5  -3   53.32    3.23
  -8  -5  -3   55.50    1.94
  -8   5  -4   31.90    1.84
  -8   5  -4   32.14    2.74
   8  -5   4   30.22    2.80
  -8   5  -4   34.87    2.07
  -8  -5  -4   33.43    1.54
  -8  -5  -4   34.66    2.78
  -8   5  -5   23.57    1.79
  -8   5  -5   24.36    2.48
   8  -5   5   26.91    2.68
  -8   5  -5   26.48    1.94
  -8  -5  -5   24.95    1.37
  -8  -5  -5   21.07    2.30
  -8   5  -6   30.63    2.08
  -8   5  -6   24.55    2.48
  -8   5  -6   31.11    2.22
  -8  -5  -6   27.99    1.51
  -8  -5  -6   28.98    2.65
  -8   5  -7  549.00   11.15
  -8  -5  -7  582.87    9.76
  -8   5  -7  541.00   12.89
  -8  -5  -7  548.62   12.91
  -8   5  -7  567.13   11.55
  -8  -5  -8    0.70    0.67
  -8   5  -8   -0.25    1.38
  -8   5  -8    1.53    1.10
  -8  -5  -8    1.72    1.40
  -8   5  -9  150.37    5.45
  -8  -5  -9  139.83    6.03
  -8   5 -10   18.47    2.11
  -8  -5 -10   20.50    2.57
  -8   5 -11    1.97    1.31
  -8  -5 -11    2.13    1.60
  -8   5 -12    2.92    1.43
  -8  -5 -12    4.02    1.76
  -8  -5 -13  321.00   10.23
  -8   5 -13  321.95    9.45
  -8   5 -14    3.36    1.53
  -8  -5 -14    3.85    1.78
  -8   5 -15    3.33    1.71
  -8  -5 -15   -2.37    1.93
  -8   5 -16   21.90    2.82
  -8   5 -17  334.39   10.69
   8   6 -21    6.60    2.02
   8   6 -20   -0.63    1.72
   8   6 -19   56.28    4.26
  -8   6  19   61.85    4.65
   8   6 -18   48.26    3.85
  -8   6  18   49.39    4.11
   8   6 -17    1.43    1.38
   8  -6 -17    2.66    1.18
  -8   6  17    5.02    1.83
   8   6 -16   10.42    2.17
   8  -6 -16    8.27    1.50
  -8   6  16    4.86    1.77
   8  -6 -15   10.47    1.72
   8   6 -15   15.44    2.36
  -8   6  15   12.80    2.29
   8   6 -14   74.76    4.38
   8  -6 -14   78.49    3.96
  -8   6  14   88.19    4.98
   8  -6 -13    1.58    1.04
   8   6 -13    0.79    1.20
  -8   6  13    2.29    1.57
   8  -6 -12    5.78    1.40
   8   6 -12    8.24    1.64
  -8   6  12    4.92    1.72
   8  -6 -11    1.21    1.14
  -8  -6  11    3.43    0.95
   8   6 -11    1.74    1.17
  -8   6  11    2.69    1.54
   8   6 -11    0.91    0.85
  -8  -6  10   50.28    2.71
   8  -6 -10   51.62    3.22
   8   6 -10   45.83    3.24
   8   6 -10   47.72    2.77
  -8   6  10   48.87    3.58
   8  -6  -9    6.00    1.40
  -8  -6   9    5.88    1.13
   8   6  -9    4.86    1.06
   8   6  -9    4.43    1.43
  -8   6   9    5.59    1.59
   8  -6  -8   24.44    2.37
  -8  -6   8   24.05    2.04
   8   6  -8   21.42    2.17
   8   6  -8   22.50    1.77
  -8   6   8   22.73    2.44
   8  -6  -7   12.45    1.90
   8   6  -7   13.92    1.34
   8   6  -7   13.22    1.85
  -8   6   7   13.04    1.99
   8  -6  -6  106.90    4.75
   8   6  -6   96.17    4.49
   8   6  -6  104.96    3.49
  -8   6   6  104.58    4.86
   8  -6  -5   87.30    4.33
   8   6  -5   86.14    2.99
   8   6  -5   88.43    4.23
  -8   6   5   84.42    4.35
   8  -6  -4   76.52    4.06
   8   6  -4   78.41    4.00
  -8   6   4   76.38    4.10
   8  -6  -3  190.54    6.55
   8   6  -3  192.09    6.38
  -8   6   3  179.48    6.41
   8  -6  -2   17.32    2.08
   8   6  -2   17.88    2.02
  -8   6   2   17.71    2.08
   8  -6  -1   14.21    2.06
  -8   6   1   11.60    1.91
   8   6  -1   11.52    1.74
  -8  -6   1   11.15    0.82
   8  -6   0    1.47    1.40
  -8   6   0    1.61    1.26
   8   6   0    0.76    1.13
  -8  -6   0   -0.42    0.47
  -8   6  -1  479.69    7.29
   8   6   1  458.77   11.04
  -8   6  -1  462.95   11.34
   8  -6   1  471.53   11.54
  -8   6  -1  492.17    8.05
  -8  -6  -1  468.48    7.29
   8   6   2   14.29    1.98
  -8   6  -2   15.64    1.05
  -8   6  -2   16.31    2.14
   8  -6   2   16.34    2.31
  -8   6  -2   14.66    1.18
  -8  -6  -2   12.06    1.80
  -8  -6  -2   13.90    0.72
   8   6   3   23.35    2.32
  -8   6  -3   23.10    2.45
  -8   6  -3   26.75    1.46
   8  -6   3   22.57    2.53
  -8   6  -3   24.50    1.61
  -8  -6  -3   21.82    0.88
  -8  -6  -3   21.53    2.34
  -8   6  -4  126.37    3.69
  -8   6  -4  121.44    5.40
   8  -6   4  130.28    5.58
  -8   6  -4  134.95    4.09
  -8  -6  -4  131.51    2.57
  -8  -6  -4  125.20    5.28
  -8   6  -5  122.48    3.89
  -8   6  -5  128.43    5.61
   8  -6   5  130.27    5.65
  -8   6  -5  133.73    4.24
  -8  -6  -5  135.09    5.62
  -8  -6  -5  130.61    2.68
  -8   6  -6   49.59    3.52
  -8   6  -6   45.76    2.60
  -8  -6  -6   39.52    3.15
   8  -6   6   38.49    3.24
  -8   6  -7  191.44    7.00
  -8  -6  -7  194.26    7.09
  -8   6  -7  199.18    5.86
  -8   6  -8   -1.21    1.49
  -8   6  -8    0.16    1.03
  -8  -6  -9  127.60    5.88
  -8   6  -9  138.12    5.15
  -8  -6 -10   41.13    3.48
  -8   6 -10   50.34    3.19
  -8  -6 -11   50.23    3.94
  -8   6 -11   60.28    3.65
  -8   6 -12   38.29    3.03
  -8  -6 -12   36.82    3.49
  -8  -6 -13   19.74    2.81
  -8   6 -13   19.39    2.44
  -8  -6 -14   83.86    5.22
  -8   6 -14   88.53    4.87
  -8   6 -15   11.45    2.33
  -8   6 -16   84.07    5.01
  -8   6 -17   13.16    2.64
   8   7 -20   16.28    2.54
   8   7 -19   23.78    2.93
   8   7 -18    7.71    1.84
  -8   7  18    6.74    2.16
   8   7 -17   -0.75    1.53
   8  -7 -17   -1.97    1.33
  -8   7  17    2.47    1.55
   8   7 -16   47.10    3.78
   8  -7 -16   46.14    3.14
  -8   7  16   54.22    4.20
   8   7 -15  230.86    8.21
   8  -7 -15  234.10    7.25
  -8   7  15  226.95    8.48
   8  -7 -14    6.84    1.43
   8   7 -14    4.99    1.61
  -8   7  14    7.40    1.97
   8  -7 -13   18.00    2.13
   8   7 -13   13.27    2.09
  -8   7  13   15.21    2.31
   8  -7 -12    6.93    1.55
   8   7 -12    3.79    1.38
  -8   7  12    5.96    1.74
   8  -7 -11    2.04    1.14
   8   7 -11    2.27    1.36
  -8   7  11    0.05    1.31
  -8  -7  10   23.35    1.97
   8   7 -10   22.71    2.47
   8  -7 -10   25.73    2.40
   8   7 -10   23.55    1.97
  -8   7  10   23.87    2.76
   8  -7  -9   -1.51    1.25
  -8  -7   9    0.79    0.95
   8   7  -9    1.05    0.86
   8   7  -9    0.45    1.21
  -8   7   9    1.27    1.32
   8  -7  -8    7.61    1.63
   8   7  -8    8.97    1.76
   8   7  -8    8.95    1.20
  -8   7   8    5.29    1.54
   8  -7  -7   56.30    3.49
   8   7  -7   50.18    3.35
  -8   7   7   48.89    3.51
   8   7  -7   48.69    2.37
   8  -7  -6   23.39    2.37
   8   7  -6   25.28    2.46
   8   7  -6   23.18    1.56
  -8   7   6   21.31    2.37
   8  -7  -5    7.89    1.75
   8   7  -5    8.98    1.64
   8   7  -5    7.49    0.92
  -8   7   5    6.95    1.66
   8  -7  -4  163.29    6.12
   8   7  -4  169.59    6.20
  -8   7   4  158.85    6.15
   8  -7  -3  122.09    5.29
   8   7  -3  128.27    5.29
  -8   7   3  124.66    5.46
   8  -7  -2   49.24    3.37
   8   7  -2   56.42    3.55
  -8   7   2   50.63    3.50
   8  -7  -1   67.97    4.02
   8   7  -1   67.52    3.83
  -8   7   1   69.17    4.00
   8  -7   0  102.16    4.88
   8   7   0   95.08    4.66
  -8   7   0   94.98    4.71
   8  -7   1    5.62    1.47
   8   7   1    2.86    1.21
  -8   7  -1    3.94    1.55
  -8   7  -2  103.02    2.34
   8  -7   2  101.41    5.01
   8   7   2   97.27    4.73
  -8   7  -2   93.67    4.71
   8   7   3    0.31    1.21
  -8   7  -3    0.42    1.21
   8  -7   3   -0.19    1.43
  -8   7  -3    0.98    0.65
  -8  -7  -3    0.54    1.24
  -8   7  -4  152.00    6.21
   8   7   4  161.00    6.29
   8  -7   4  160.12    6.39
  -8   7  -4  161.58    4.47
  -8  -7  -4  153.78    6.10
  -8   7  -5   -1.12    1.31
   8  -7   5    2.25    1.61
  -8   7  -5    3.12    0.97
  -8  -7  -5    2.49    1.32
  -8   7  -6   14.37    2.12
   8  -7   6   12.51    2.23
  -8   7  -6   16.16    1.62
  -8  -7  -6   15.92    2.31
  -8   7  -7  167.69    6.69
  -8  -7  -7  174.50    6.79
  -8   7  -7  171.18    5.39
   8  -7   7  174.08    6.85
  -8   7  -8  134.73    6.11
   8  -7   8  140.44    6.17
  -8  -7  -8  137.43    6.10
  -8   7  -8  141.64    5.06
  -8  -7  -9   48.55    3.77
  -8   7  -9   49.18    3.05
  -8  -7 -10   18.96    2.49
  -8   7 -10   21.50    2.29
  -8  -7 -11    4.78    1.91
  -8   7 -11    1.77    1.25
  -8   7 -12  121.12    5.37
  -8  -7 -12  126.05    6.24
  -8  -7 -13   15.31    2.59
  -8   7 -13   15.44    2.19
  -8   7 -14    5.92    1.89
  -8   7 -15   10.02    2.10
  -8   7 -16   10.02    2.18
  -8   7 -17   15.64    2.64
   8   8 -19   -1.43    1.58
   8   8 -18  117.83    6.22
   8   8 -17   32.96    3.39
   8  -8 -17   29.01    2.70
  -8   8  17   34.69    3.58
   8  -8 -16   48.84    3.38
   8   8 -16   57.28    4.15
  -8   8  16   53.23    4.22
   8   8 -15   -0.44    1.49
  -8   8  15    0.05    1.52
   8   8 -14   91.14    5.09
  -8   8  14   85.08    5.12
   8   8 -13   36.45    3.28
  -8   8  13   41.14    3.59
   8   8 -12  151.78    6.48
  -8   8  12  154.06    6.72
   8  -8 -11    1.44    1.34
   8   8 -11   -0.31    1.36
  -8   8  11    1.71    1.50
   8   8 -10   13.46    2.19
   8  -8 -10   10.98    1.86
  -8   8  10   12.85    2.14
   8  -8  -9   38.50    3.02
   8   8  -9   36.33    3.14
  -8   8   9   32.64    3.13
   8  -8  -8   64.85    3.88
   8   8  -8   69.97    4.16
  -8   8   8   67.94    4.24
   8  -8  -7   -0.66    1.51
   8   8  -7   -1.26    1.19
  -8   8   7   -1.39    1.50
   8  -8  -6   51.65    3.50
   8   8  -6   54.63    3.62
  -8   8   6   54.89    3.79
   8  -8  -5   12.43    2.07
   8   8  -5   12.08    1.99
  -8   8   5   13.17    2.16
   8  -8  -4  146.42    5.92
   8   8  -4  148.58    5.97
  -8   8   4  154.20    6.22
   8  -8  -3   54.70    3.62
   8   8  -3   57.75    3.65
  -8   8   3   59.12    3.79
   8  -8  -2   18.22    2.21
   8   8  -2   19.15    2.28
  -8   8   2   17.43    2.28
   8  -8  -1    2.26    1.50
  -8   8   1    3.43    1.48
   8   8  -1    3.21    1.56
   8  -8   0    2.24    1.46
  -8   8   0    2.53    1.48
   8   8   0    5.88    1.60
   8  -8   1    9.87    3.00
   8   8   1    8.21    1.80
  -8   8  -1   10.50    1.88
   8  -8   2   22.46    2.61
   8   8   2   24.76    2.56
  -8   8  -2   20.37    2.50
   8  -8   3    0.58    1.30
   8   8   3   -0.43    1.39
  -8   8  -3   -0.31    1.24
  -8  -8  -3    0.36    1.37
   8  -8   4   49.01    3.67
   8   8   4   50.15    3.62
  -8   8  -4   50.92    3.66
  -8  -8  -4   44.17    3.46
  -8   8  -5    1.84    1.47
   8  -8   5    0.20    1.35
  -8   8  -5    0.86    0.61
  -8   8  -5   -0.21    0.76
  -8  -8  -5   -0.87    1.42
  -8   8  -6   10.37    1.92
   8  -8   6   12.38    2.19
  -8   8  -6   10.33    1.27
  -8   8  -6   10.08    1.37
  -8  -8  -6   11.80    2.13
  -8   8  -7    6.92    1.71
   8  -8   7   12.30    2.24
  -8   8  -7    9.83    1.56
  -8  -8  -7   10.73    2.03
  -8   8  -8    0.80    1.35
   8  -8   8   -2.05    1.52
  -8   8  -8   -2.49    1.29
  -8  -8  -8    0.30    1.64
  -8   8  -9    0.59    1.57
   8  -8   9    1.36    1.62
  -8   8  -9    1.40    1.06
  -8  -8  -9    1.58    1.79
  -8   8 -10  164.27    5.89
  -8  -8 -10  151.78    6.85
  -8  -8 -11   21.13    2.88
  -8   8 -11   15.85    2.26
  -8   8 -12   27.05    2.67
  -8  -8 -12   29.32    3.24
  -8   8 -13    4.12    1.57
  -8   8 -14   66.32    4.25
  -8   8 -15   24.84    2.96
  -8   8 -16   18.91    2.79
   8   9 -18   -1.85    1.85
   8   9 -17   -0.29    1.65
   8   9 -16  170.79    7.46
  -8   9  16  173.50    7.68
   8   9 -15    9.34    2.39
  -8   9  15   11.14    2.35
   8   9 -14    7.69    2.04
  -8   9  14    7.28    2.03
   8   9 -13    3.71    1.76
  -8   9  13    5.79    1.91
   8   9 -12   20.62    2.64
  -8   9  12   22.04    2.87
   8   9 -11   27.98    3.04
  -8   9  11   30.63    3.15
   8   9 -10   32.13    3.17
  -8   9  10   30.45    3.17
   8   9  -9    0.72    1.34
  -8   9   9    0.66    1.33
   8   9  -8    1.80    1.50
  -8   9   8    3.68    1.73
   8  -9  -7    0.33    1.27
   8   9  -7   -0.93    1.48
  -8   9   7   -0.78    1.39
   8  -9  -6   26.55    2.69
   8   9  -6   25.33    2.67
  -8   9   6   22.64    2.61
   8  -9  -5    0.86    1.27
   8   9  -5    0.32    1.25
  -8   9   5    2.47    1.46
   8  -9  -4    4.19    1.69
   8   9  -4    5.82    1.72
  -8   9   4    3.91    1.50
   8  -9  -3    7.00    1.65
   8   9  -3    8.34    1.83
  -8   9   3    8.02    1.85
   8  -9  -2   42.74    3.29
   8   9  -2   42.15    3.33
  -8   9   2   43.43    3.42
   8  -9  -1  109.43    5.40
   8   9  -1  117.18    5.44
  -8   9   1  121.18    5.60
   8  -9   0   21.39    2.54
  -8   9   0   19.90    2.44
   8   9   0   15.82    2.18
   8  -9   1   -0.15    1.44
   8   9   1    0.41    1.37
  -8   9  -1    0.92    1.43
   8  -9   2   53.40    3.94
   8   9   2   55.73    3.80
  -8   9  -2   64.16    4.15
   8  -9   3   41.57    3.52
   8   9   3   35.56    3.20
  -8   9  -3   46.48    3.71
   8  -9   4   83.13    4.78
   8   9   4   82.00    4.76
  -8   9  -4   80.61    4.82
  -8  -9  -4   83.37    4.73
   8  -9   5   39.40    3.46
  -8   9  -5   39.75    3.42
   8   9   5   49.45    3.76
  -8  -9  -5   39.52    3.34
   8  -9   6  126.50    6.01
  -8   9  -6  125.42    6.05
  -8  -9  -6  129.76    6.00
   8  -9   7  165.82    6.89
  -8   9  -7  169.20    7.08
  -8  -9  -7  158.61    6.84
  -8   9  -8  135.79    6.48
   8  -9   8  143.73    6.44
  -8   9  -8  147.58    5.12
  -8  -9  -8  140.99    6.52
   8  -9   9    1.23    1.61
  -8   9  -9    0.33    1.02
  -8  -9  -9   -0.48    1.46
   8  -9  10   26.47    3.00
  -8   9 -10   23.55    2.35
  -8  -9 -10   25.12    3.14
  -8   9 -11    9.40    1.81
  -8  -9 -11   10.39    2.23
  -8   9 -12  138.07    5.76
  -8   9 -13    8.34    1.91
  -8   9 -14   18.51    2.50
  -8   9 -15    1.55    1.67
   8  10 -16   -1.28    1.56
   8  10 -15    0.24    1.67
  -8  10  15    2.46    1.75
   8  10 -14    2.70    1.53
  -8  10  14    4.30    1.89
   8  10 -13    2.09    1.74
  -8  10  13    4.11    1.82
   8  10 -12   53.96    4.12
  -8  10  12   58.24    4.23
   8  10 -11    0.70    1.44
  -8  10  11   -0.17    1.42
   8  10 -10    0.46    1.42
  -8  10  10   -1.57    1.70
   8  10  -9   43.70    3.59
  -8  10   9   49.69    3.86
   8  10  -8  102.64    5.38
  -8  10   8  105.12    5.48
   8  10  -7    8.36    2.02
  -8  10   7    5.26    1.63
   8  10  -6    2.46    1.38
  -8  10   6    3.62    1.70
   8 -10  -5    3.16    1.48
   8  10  -5    6.11    1.70
  -8  10   5    6.30    2.06
   8 -10  -4  201.56    7.39
   8  10  -4  193.67    7.39
  -8  10   4  214.00    7.79
   8 -10  -3    1.68    1.51
   8  10  -3   -0.11    1.45
  -8  10   3   -0.60    1.33
   8 -10  -2  129.74    5.87
   8  10  -2  125.04    5.85
  -8  10   2  122.36    5.86
   8 -10  -1   69.70    4.36
   8  10  -1   64.38    4.23
  -8  10   1   67.02    4.23
   8 -10   0   45.44    3.57
   8  10   0   44.54    3.49
  -8  10   0   47.11    3.64
   8 -10   1    2.66    1.54
   8  10   1    1.82    1.42
  -8  10  -1    4.94    1.79
   8 -10   2  106.64    5.47
   8  10   2  113.23    5.62
  -8  10  -2  118.52    5.76
   8 -10   3    0.91    1.39
   8  10   3   -1.28    1.53
  -8  10  -3   -0.22    1.43
   8 -10   4   72.56    4.59
   8  10   4   76.61    4.69
  -8  10  -4   75.12    4.69
  -8 -10  -4   66.69    4.44
   8 -10   5   51.52    3.85
  -8  10  -5   54.42    4.12
   8  10   5   52.58    3.97
  -8 -10  -5   49.29    3.84
   8 -10   6  172.18    7.14
  -8  10  -6  167.44    7.21
  -8 -10  -6  173.45    7.23
   8 -10   7    2.50    1.51
  -8  10  -7    5.32    1.80
  -8 -10  -7    2.28    1.55
   8 -10   8   44.16    3.85
  -8  10  -8   49.62    4.02
  -8 -10  -8   38.95    3.57
   8 -10   9   19.98    2.62
  -8  10  -9   25.71    2.91
  -8 -10  -9   26.93    3.16
  -8  10 -10  157.62    7.44
   8 -10  10  173.63    7.30
  -8 -10 -10  179.62    7.68
   8 -10  11    5.32    1.52
   8  11 -15    1.17    1.64
   8  11 -14   27.01    3.51
  -8  11  14   25.10    3.14
   8  11 -13   11.28    2.68
  -8  11  13   15.00    2.46
   8  11 -12   74.11    4.95
  -8  11  12   74.49    4.97
   8  11 -11    9.40    2.04
  -8  11  11    9.42    2.12
   8  11 -10   98.14    5.51
  -8  11  10  104.63    5.73
   8  11  -9    9.30    2.08
  -8  11   9    6.53    1.78
   8  11  -8  103.25    5.49
  -8  11   8  104.79    5.64
   8  11  -7    0.94    1.53
  -8  11   7   -0.73    1.54
   8  11  -6  138.00    6.36
  -8  11   6  137.28    6.43
   8  11  -5   18.64    2.54
  -8  11   5   17.31    2.49
   8  11  -4    5.59    1.81
  -8  11   4    4.81    1.82
   8 -11  -3   -0.30    1.46
   8  11  -3    0.36    1.41
  -8  11   3   -2.59    1.72
   8 -11  -2  112.11    5.57
   8  11  -2   99.69    5.36
  -8  11   2  114.60    5.79
   8 -11  -1    3.52    1.56
  -8  11   1    1.98    1.51
   8  11  -1    2.84    1.44
   8 -11   0    6.11    1.89
  -8  11   0    8.49    2.09
   8  11   0    5.85    1.92
   8 -11   1    0.23    1.57
  -8  11  -1    1.98    1.54
   8  11   1    5.35    1.78
   8 -11   2   44.84    3.72
   8  11   2   52.23    3.93
  -8  11  -2   51.88    4.01
   8 -11   3   58.55    4.22
   8  11   3   66.63    4.53
  -8  11  -3   69.91    4.68
   8 -11   4   27.63    3.11
   8  11   4   27.22    3.08
  -8  11  -4   28.57    3.23
  -8 -11  -4   32.33    3.29
   8 -11   5    5.84    2.02
   8  11   5    4.19    1.65
  -8  11  -5    1.30    1.42
  -8 -11  -5    2.53    1.47
   8 -11   6   23.34    2.88
  -8  11  -6   29.60    3.24
  -8 -11  -6   27.37    3.07
   8 -11   7    5.10    2.00
  -8  11  -7    4.03    1.61
  -8 -11  -7    3.39    1.65
   8 -11   8  105.38    6.12
  -8  11  -8  100.84    5.77
  -8 -11  -8  105.80    5.91
   8 -11   9   22.37    3.02
  -8  11  -9   18.51    2.75
  -8 -11  -9   23.91    3.21
   8 -11  10   26.74    3.17
   8 -11  11   13.96    2.64
   8  12 -13   66.33    4.78
   8  12 -12   11.72    2.26
  -8  12  12   11.30    2.49
   8  12 -11    3.81    1.78
  -8  12  11    0.39    1.49
   8  12 -10   10.85    2.40
  -8  12  10   10.95    2.34
   8  12  -9   26.39    3.09
  -8  12   9   25.77    3.07
   8  12  -8   45.93    3.83
  -8  12   8   48.20    3.99
   8  12  -7   10.19    2.24
  -8  12   7   10.39    2.37
   8  12  -6   -2.39    1.68
  -8  12   6   -0.66    1.57
   8  12  -5  126.45    6.28
  -8  12   5  121.94    6.21
   8  12  -4  180.53    7.57
  -8  12   4  204.43    7.97
   8  12  -3   -0.44    1.44
  -8  12   3    1.41    1.68
   8 -12  -2   33.47    3.34
   8  12  -2   36.10    3.53
  -8  12   2   36.70    3.56
   8 -12  -1    2.62    1.64
  -8  12   1    3.61    1.79
   8  12  -1    5.55    1.95
   8 -12   0   39.70    3.53
  -8  12   0   39.22    3.58
   8  12   0   39.16    3.51
   8 -12   1   11.14    2.17
  -8  12  -1   10.88    2.28
   8  12   1   14.27    2.48
   8 -12   2   50.52    4.04
   8  12   2   58.41    4.34
  -8  12  -2   62.75    4.49
   8 -12   3    5.38    1.74
   8  12   3    5.70    1.97
  -8  12  -3    6.42    1.73
   8 -12   4   73.69    4.78
   8  12   4   74.61    4.95
  -8  12  -4   70.49    4.88
  -8 -12  -4   74.98    4.88
   8 -12   5   64.54    4.61
   8  12   5   60.83    4.50
  -8  12  -5   71.26    4.85
  -8 -12  -5   63.86    4.58
   8 -12   6   64.13    4.58
  -8  12  -6   63.90    4.70
  -8 -12  -6   57.36    4.32
   8 -12   7   35.46    3.50
  -8  12  -7   33.28    3.56
  -8 -12  -7   31.74    3.53
   8 -12   8    2.13    1.72
   8  13 -10    5.16    2.10
   8  13  -9    9.52    1.98
  -8  13   9    6.11    2.00
   8  13  -8    2.98    1.62
  -8  13   8   -1.06    1.72
   8  13  -7   86.18    5.36
  -8  13   7   83.00    5.26
   8  13  -6   27.46    3.11
  -8  13   6   32.92    3.39
   8  13  -5  139.04    6.75
  -8  13   5  148.99    6.94
   8  13  -4   13.17    2.39
  -8  13   4    5.63    1.89
   8  13  -3   44.85    3.90
  -8  13   3   54.25    4.26
   8  13  -2   25.00    3.13
  -8  13   2   28.05    3.22
   8 -13  -1  214.40    8.45
   8  13  -1  219.78    8.63
  -8  13   1  223.20    8.54
   8 -13   0    7.95    2.17
  -8  13   0    9.38    2.21
   8  13   0    6.78    2.14
   8 -13   1   -1.40    1.70
  -8  13  -1    0.81    1.53
   8  13   1    0.28    1.69
   8 -13   2   -0.55    1.74
   8  13   2    0.39    1.59
  -8  13  -2    2.57    1.85
   8 -13   3  344.12   10.91
   8  13   3  342.64   11.17
  -8  13  -3  363.63   11.36
   8 -13   4   -2.38    1.80
   8  13   4   -2.34    1.94
  -8  13  -4   -2.10    1.93
  -8 -13  -4    2.66    1.84
   8 -13   5   -4.96    2.01
   8  14  -6   10.54    2.29
   8  14  -5  213.34    8.70
  -8  14   5  206.15    8.49
   8  14  -4    5.62    2.21
  -8  14   4    3.67    1.95
   8  14  -3  115.21    6.32
  -8  14   3  114.48    6.26
   8  14  -2   27.09    3.29
  -8  14   2   36.05    3.60
  -8  14   1   15.16    2.58
   8  14  -1   19.40    2.92
   8  14   0    1.65    1.80
   9   0 -18   41.18    3.06
   9   0 -17   -0.28    1.07
  -9   0  17    1.21    1.46
   9   0 -16  121.86    4.95
  -9   0  16  141.95    6.29
   9   0 -15    0.11    1.03
  -9   0  15    2.39    1.56
   9   0 -14   44.88    2.76
  -9   0  14   51.29    3.66
   9   0 -13   -0.04    0.92
  -9   0  13   -0.41    1.42
   9   0 -12   39.22    2.47
  -9   0  12   38.06    3.08
   9   0 -11    0.28    0.77
  -9   0  11   -1.50    1.24
   9   0 -10   13.04    1.44
  -9   0  10   13.32    1.94
   9   0  -9    0.86    0.71
  -9   0   9    0.13    0.73
  -9   0   9   -0.76    1.18
   9   0  -8   79.68    3.22
  -9   0   8   77.04    2.92
  -9   0   8   79.29    3.98
  -9   0   7    2.17    0.95
   9   0  -7    0.40    0.73
  -9   0   7    0.95    1.07
  -9   0   6  179.24    5.00
   9   0  -6  187.07    5.09
  -9   0   6  185.16    6.02
  -9   0   5   -0.52    0.76
   9   0  -5    1.15    0.78
  -9   0   5   -0.35    1.05
  -9   0   5    0.32    0.75
  -9   0   4  216.03    5.66
   9   0  -4  226.45    5.73
  -9   0   4  236.10    5.62
  -9   0   4  221.56    6.56
  -9   0   3   -1.28    0.96
   9   0  -3    0.66    0.69
  -9   0   3   -0.05    0.77
  -9   0   3    1.19    1.01
  -9   0   2   72.10    3.06
  -9   0   2   80.25    3.17
  -9   0   2   74.72    3.55
  -9   0   1   -0.67    0.82
  -9   0   1    0.28    0.78
  -9   0   1   -0.13    1.09
  -9   0   0   53.22    2.75
  -9   0   0   59.17    2.85
  -9   0   0   57.54    3.10
  -9   0  -1   -2.21    1.17
  -9   0  -1    0.20    0.78
  -9   0  -1   -0.81    1.00
  -9   0  -2   82.28    3.56
  -9   0  -2   84.89    3.56
  -9   0  -2   81.54    3.67
  -9   0  -3    0.35    0.76
  -9   0  -3    1.42    0.81
  -9   0  -3   -1.90    1.06
  -9   0  -4   71.38    3.47
  -9   0  -4   67.27    3.39
  -9   0  -4   68.96    3.46
  -9   0  -5   -2.32    1.08
  -9   0  -5    0.62    1.04
  -9   0  -6  157.53    5.44
  -9   0  -6  155.61    5.60
  -9   0  -7    0.56    0.92
  -9   0  -7    0.58    1.14
  -9   0  -8  158.50    5.65
  -9   0  -8  162.11    6.03
  -9   0  -9    0.53    1.05
  -9   0  -9    1.06    1.34
  -9   0 -10    0.14    0.98
  -9   0 -10    0.11    1.42
  -9   0 -11    0.24    0.97
  -9   0 -11   -1.47    1.27
  -9   0 -12  231.09    8.14
  -9   0 -13   -0.12    1.41
  -9   0 -14   63.84    4.45
  -9   0 -15   -1.56    1.57
   9   1 -20    1.28    1.27
   9   1 -19   25.72    2.65
  -9   1  19   26.28    3.17
   9   1 -18   21.24    2.37
  -9   1  18   20.76    2.87
   9   1 -17    9.70    1.76
  -9   1  17    5.93    1.64
   9   1 -16    2.59    1.09
   9  -1 -16    1.43    0.84
  -9   1  16    2.33    1.60
  -9  -1  16    2.27    1.44
   9   1 -15   -0.05    1.13
   9  -1 -15    0.86    0.86
  -9   1  15    2.59    1.64
  -9  -1  15   -0.39    1.29
   9   1 -14   48.72    3.03
   9  -1 -14   44.92    2.65
  -9  -1  14   48.83    3.58
  -9   1  14   45.40    3.50
   9  -1 -13    1.67    0.74
   9   1 -13    0.73    0.95
  -9  -1  13    1.61    1.32
  -9   1  13    2.13    1.49
   9  -1 -12  168.95    5.07
   9   1 -12  167.41    5.54
  -9   1  12  166.09    6.45
  -9  -1  12  177.04    6.38
   9  -1 -11    1.05    0.70
   9   1 -11    0.85    0.89
  -9  -1  11    2.50    1.27
  -9   1  11    0.24    1.29
   9  -1 -10  263.01    6.28
   9   1 -10  262.73    6.94
  -9  -1  10  266.00    6.48
  -9  -1  10  260.90    7.71
  -9   1  10  253.52    7.92
   9   1  -9   36.18    2.33
   9  -1  -9   38.32    2.09
  -9  -1   9   40.20    2.27
  -9  -1   9   34.03    2.68
  -9   1   9   40.95    3.09
   9  -1  -8  159.46    4.38
   9   1  -8  148.24    4.86
  -9  -1   8  152.57    4.84
  -9   1   8  149.11    3.89
  -9  -1   8  157.68    5.56
  -9   1   8  148.83    5.64
   9  -1  -7   49.25    2.28
   9   1  -7   48.30    2.64
  -9  -1   7   49.61    2.69
  -9   1   7   52.58    2.11
  -9  -1   7   47.62    2.99
  -9   1   7   50.26    3.20
  -9  -1   6    1.25    0.91
  -9   1   6    0.71    0.67
   9   1  -6    0.12    0.77
   9  -1  -6    0.22    0.62
  -9   1   6   -0.31    1.06
  -9   1   6    0.90    0.68
  -9  -1   6    0.52    1.02
  -9  -1   5    2.47    0.92
  -9   1   5    2.38    0.69
   9  -1  -5    3.63    0.80
   9   1  -5    2.61    0.94
  -9  -1   5    1.56    1.05
  -9   1   5    4.27    1.45
  -9   1   5    1.79    0.59
   9   1  -4  304.86    7.28
   9  -1  -4  306.23    6.54
  -9   1   4  296.44    6.49
  -9  -1   4  288.20    7.14
  -9   1   4  310.67    6.39
  -9   1   4  297.24    8.05
  -9  -1   4  307.27    7.09
  -9  -1   4  309.74    7.75
   9   1  -3   27.06    1.97
  -9  -1   3   25.34    1.93
  -9   1   3   24.72    1.65
  -9   1   3   28.50    1.73
  -9   1   3   27.25    2.31
  -9  -1   3   24.53    1.91
  -9  -1   3   26.05    2.14
   9   1  -2   10.59    1.36
  -9  -1   2    9.82    1.23
  -9   1   2    9.27    1.13
  -9   1   2   11.89    1.25
  -9  -1   2   12.91    1.45
  -9   1   2   11.76    1.68
  -9  -1   2   12.27    1.51
  -9  -1   1    3.18    0.92
  -9   1   1    4.32    0.91
  -9   1   1    4.85    1.03
  -9  -1   1    4.06    1.06
  -9  -1   1    6.48    1.14
  -9   1   1    4.79    1.23
  -9  -1   0  250.40    6.72
  -9   1   0  253.39    6.23
  -9   1   0  263.10    6.26
  -9  -1   0  251.03    6.62
  -9   1   0  247.55    7.07
  -9  -1   0  253.03    6.69
  -9   1  -1   45.08    2.48
  -9  -1  -1   44.84    2.64
  -9   1  -1   39.13    2.27
  -9  -1  -1   40.68    2.51
  -9  -1  -1   42.87    2.51
  -9   1  -1   39.61    2.69
  -9   1  -2  253.16    6.51
  -9  -1  -2  251.80    6.93
  -9   1  -2  257.18    6.54
  -9  -1  -2  259.82    7.00
  -9   1  -2  254.39    7.15
  -9  -1  -2  250.52    6.67
  -9  -1  -3   -0.95    0.99
  -9   1  -3   -0.06    0.78
  -9   1  -3    1.80    1.11
  -9  -1  -3   -0.20    0.89
  -9   1  -3   -0.19    0.96
  -9  -1  -4   13.33    1.49
  -9   1  -4   13.38    1.71
  -9   1  -4   12.95    1.56
  -9  -1  -4   11.47    1.59
  -9   1  -4   12.14    1.51
  -9   1  -5   16.78    1.82
  -9  -1  -5   16.99    1.68
  -9   1  -5   16.77    1.86
  -9   1  -5   19.10    1.96
  -9  -1  -5   16.62    1.94
  -9  -1  -6  170.04    5.45
  -9   1  -6  162.89    5.79
  -9  -1  -6  168.33    5.95
  -9   1  -6  167.26    5.69
  -9  -1  -7    6.79    1.24
  -9   1  -7    4.54    1.21
  -9   1  -7    9.07    1.70
  -9  -1  -7    8.16    1.67
  -9  -1  -8   49.41    2.92
  -9   1  -8   50.70    3.20
  -9   1  -8   47.70    3.18
  -9  -1  -8   51.26    3.49
  -9  -1  -9   10.79    1.60
  -9   1  -9    5.68    1.38
  -9  -1  -9    9.06    1.76
  -9   1  -9   10.24    1.87
  -9  -1 -10   56.55    3.30
  -9   1 -10   54.98    3.47
  -9   1 -10   53.90    3.64
  -9  -1 -10   55.82    3.70
  -9  -1 -11   16.21    1.99
  -9  -1 -11   13.40    2.21
  -9   1 -11   14.28    2.14
  -9  -1 -12   -3.08    1.82
  -9   1 -12    1.35    1.44
  -9  -1 -13    0.40    1.49
  -9   1 -13    0.41    1.43
  -9   1 -14   78.46    4.88
  -9  -1 -14   78.33    4.89
  -9   1 -15    7.59    2.21
  -9  -1 -15    9.23    2.21
   9   2 -21    1.64    1.51
   9   2 -20   39.28    3.35
   9   2 -19  101.07    5.14
  -9   2  19  117.25    6.19
   9   2 -18   72.01    4.26
  -9   2  18   82.86    5.14
   9   2 -17   52.47    3.52
  -9   2  17   51.32    3.98
   9   2 -16   63.87    3.82
  -9   2  16   74.09    4.68
   9   2 -15   63.72    3.70
  -9   2  15   66.62    4.36
   9   2 -14   23.31    2.24
   9  -2 -14   24.18    1.85
  -9   2  14   24.95    2.63
  -9  -2  14   25.64    2.70
   9  -2 -13    9.15    1.17
   9   2 -13    7.75    1.39
  -9   2  13    8.22    1.95
  -9  -2  13    7.74    1.73
   9   2 -12   70.08    3.63
   9  -2 -12   75.92    3.02
  -9   2  12   76.17    4.37
  -9  -2  12   72.73    4.03
   9   2 -11  149.79    5.36
   9  -2 -11  164.65    4.49
  -9  -2  11  165.79    5.24
  -9   2  11  163.05    6.36
  -9  -2  11  156.92    5.84
   9  -2 -10   19.70    1.43
   9   2 -10   19.01    1.93
  -9  -2  10   23.08    1.91
  -9  -2  10   20.57    2.17
  -9   2  10   18.24    2.25
   9   2  -9   27.96    2.22
   9  -2  -9   29.69    1.70
  -9  -2   9   24.76    2.11
  -9  -2   9   26.26    2.03
  -9  -2   9   28.85    2.43
  -9   2   9   25.88    2.53
  -9  -2   8   75.85    3.54
   9   2  -8   81.59    3.67
   9  -2  -8   84.47    2.78
  -9  -2   8   81.61    3.84
  -9   2   8   86.61    2.34
  -9   2   8   78.63    4.16
   9  -2  -7  186.91    4.41
   9   2  -7  174.12    5.74
   9   2  -7  179.66    5.63
  -9  -2   7  185.57    5.67
  -9   2   7  188.39    3.90
  -9   2   7  188.43    3.91
  -9  -2   7  188.83    5.90
  -9   2   7  194.95    6.57
   9  -2  -6  323.21    6.22
   9   2  -6  303.92    7.62
   9   2  -6  288.31    7.63
  -9  -2   6  315.25    7.69
  -9   2   6  304.13    5.66
  -9   2   6  322.11    5.74
  -9  -2   6  303.96    7.76
  -9   2   6  298.11    8.38
   9   2  -5   13.87    1.64
  -9  -2   5    8.81    1.33
  -9   2   5   10.91    0.95
  -9   2   5    9.70    0.88
  -9  -2   5    8.19    1.32
  -9   2   5   10.14    1.57
   9   2  -4    6.22    1.28
  -9  -2   4    2.87    0.89
  -9   2   4    3.81    0.62
  -9   2   4    5.47    0.77
  -9   2   4    4.85    1.41
  -9  -2   4    5.83    1.09
   9   2  -3  116.49    4.34
  -9  -2   3  120.23    4.41
  -9   2   3  117.96    3.41
  -9   2   3  121.50    3.30
  -9   2   3  113.70    4.79
  -9  -2   3  118.22    4.25
   9   2  -2  138.91    4.80
  -9  -2   2  132.12    4.72
  -9   2   2  137.92    3.83
  -9   2   2  146.88    3.87
  -9  -2   2  142.02    4.75
  -9   2   2  141.70    5.28
  -9  -2   2  139.72    4.60
   9   2  -1    0.72    0.99
  -9  -2   1    0.62    0.81
  -9   2   1    0.37    0.67
  -9   2   1    0.64    0.65
  -9   2   1    2.82    1.23
  -9  -2   1    0.42    0.81
  -9  -2   1    0.44    0.69
  -9  -2   0  100.55    4.13
  -9   2   0   93.30    3.32
  -9   2   0  100.81    3.40
  -9  -2   0  104.88    3.83
  -9  -2   0   98.17    4.02
  -9   2   0   97.61    4.34
  -9   2  -1   14.04    1.85
  -9   2  -1   16.71    1.50
  -9   2  -1   14.94    1.37
  -9  -2  -1   14.45    1.64
  -9  -2  -1   16.11    1.56
  -9   2  -2   22.82    1.75
  -9   2  -2   26.03    2.33
  -9   2  -2   24.79    1.79
  -9  -2  -2   23.91    2.11
  -9  -2  -2   23.71    1.87
  -9   2  -3   22.59    1.80
  -9  -2  -3   20.81    1.74
  -9   2  -3   21.93    2.16
  -9   2  -3   20.90    1.74
  -9  -2  -3   23.63    2.29
  -9   2  -4  128.48    4.55
  -9   2  -4  130.79    5.19
  -9  -2  -4  140.01    5.23
  -9   2  -4  144.11    4.81
  -9  -2  -4  137.08    4.51
  -9   2  -5   59.34    3.10
  -9   2  -5   58.72    3.49
  -9   2  -5   62.90    3.24
  -9  -2  -5   61.82    3.54
  -9  -2  -5   65.30    3.06
  -9  -2  -6   46.71    2.66
  -9   2  -6   50.10    3.34
  -9   2  -6   50.15    3.04
  -9  -2  -6   42.68    3.05
  -9  -2  -7    5.34    1.20
  -9   2  -7    4.64    1.37
  -9  -2  -7    2.17    1.30
  -9   2  -7    6.95    1.43
  -9  -2  -8   97.97    3.98
  -9   2  -8   84.24    4.34
  -9  -2  -8   89.14    4.57
  -9   2  -8   95.81    4.41
  -9  -2  -9   56.77    3.08
  -9   2  -9   51.88    3.52
  -9  -2  -9   52.94    3.70
  -9   2  -9   54.15    3.46
  -9  -2 -10   33.10    2.42
  -9   2 -10   31.86    2.86
  -9   2 -10   36.84    2.98
  -9  -2 -10   32.20    3.03
  -9  -2 -11   25.87    2.29
  -9  -2 -11   24.42    2.77
  -9   2 -11   26.96    2.78
  -9  -2 -12   32.28    3.17
  -9   2 -12   34.32    3.16
  -9  -2 -13    3.36    1.67
  -9   2 -13    3.74    1.81
  -9  -2 -14   26.20    3.06
  -9   2 -14   23.58    2.89
  -9   2 -15    2.79    1.75
  -9   2 -16    9.65    2.36
   9   3 -22   19.21    2.76
   9   3 -21   17.82    2.58
   9   3 -20   51.85    3.85
   9   3 -19  118.38    5.66
  -9   3  19  119.84    6.35
   9   3 -18   -0.70    1.34
  -9   3  18    0.09    1.58
   9   3 -17  157.36    6.35
  -9   3  17  161.35    7.11
   9   3 -16  152.54    6.16
  -9   3  16  161.76    7.04
   9  -3 -15    9.62    1.48
   9   3 -15   11.34    1.91
  -9   3  15   10.27    2.38
   9  -3 -14    2.08    1.21
   9   3 -14    4.19    1.33
  -9   3  14    1.97    1.41
   9  -3 -13   51.57    3.07
   9   3 -13   47.37    3.12
  -9   3  13   56.09    3.94
  -9  -3  13   52.26    3.40
   9  -3 -12    1.58    1.19
   9   3 -12    1.21    1.08
  -9   3  12    0.30    1.30
  -9  -3  12   -0.45    1.04
   9  -3 -11    3.12    1.24
   9   3 -11    4.49    1.37
  -9   3  11    3.95    1.56
  -9  -3  11    3.84    1.28
   9  -3 -10   64.67    2.26
   9   3 -10   58.39    3.33
   9  -3 -10   59.93    3.43
  -9  -3  10   57.38    3.10
  -9   3  10   65.14    4.01
  -9  -3  10   60.79    3.39
   9  -3  -9  276.94    7.86
   9  -3  -9  284.47    5.40
   9   3  -9  261.08    7.46
  -9   3   9  271.33    8.36
  -9  -3   9  273.65    7.50
   9  -3  -8    3.53    1.35
   9   3  -8    3.97    1.18
   9  -3  -8    4.11    0.56
   9   3  -8    6.53    1.32
  -9  -3   8    4.88    1.26
  -9   3   8    5.28    1.54
   9  -3  -7   52.83    3.26
   9   3  -7   50.70    2.90
   9   3  -7   48.79    2.96
  -9   3   7   54.71    3.51
  -9  -3   7   57.00    3.04
   9   3  -6   12.21    1.61
   9   3  -6    9.35    1.36
   9  -3  -6   11.02    1.86
  -9  -3   6    9.05    1.36
  -9   3   6    8.85    0.47
  -9   3   6    8.89    0.45
  -9  -3   6   10.54    1.48
  -9   3   6   10.66    1.82
   9   3  -5  119.29    4.62
  -9  -3   5  115.45    4.51
   9  -3  -5  123.95    5.17
  -9   3   5  110.08    2.36
  -9   3   5  127.24    2.45
  -9  -3   5  123.53    4.33
  -9   3   5  122.84    5.17
   9   3  -4  145.96    5.11
  -9   3   4  142.56    3.29
  -9  -3   4  143.39    5.07
   9  -3  -4  149.61    5.71
  -9   3   4  151.89    3.10
  -9  -3   4  147.70    4.72
  -9   3   4  140.11    5.50
   9   3  -3  143.13    5.09
  -9   3   3  142.27    3.41
  -9  -3   3  146.41    5.17
  -9   3   3  149.67    3.33
  -9  -3   3  150.73    4.66
  -9   3   3  134.89    5.42
   9   3  -2  112.20    4.46
  -9   3   2  113.57    3.04
  -9   3   2  113.12    3.01
  -9   3   2   99.78    4.57
  -9  -3   2  108.42    3.83
   9   3  -1   92.87    4.04
  -9   3   1   91.01    2.82
  -9   3   1   92.73    2.87
  -9   3   1   86.50    4.25
  -9  -3   1   89.11    3.91
  -9  -3   1   89.01    3.42
   9   3   0   85.18    3.92
  -9   3   0   87.45    2.95
  -9   3   0   89.48    2.96
  -9   3   0   84.22    4.15
  -9  -3   0   90.58    3.96
  -9  -3   0   85.99    3.28
  -9   3  -1  381.52    7.65
  -9   3  -1  394.10    7.83
  -9   3  -1  376.56    9.65
  -9  -3  -1  391.38    8.15
  -9  -3  -1  383.25    9.33
  -9   3  -2  155.91    4.47
  -9   3  -2  164.60    4.63
  -9  -3  -2  159.40    5.66
  -9  -3  -2  164.08    4.66
  -9   3  -2  152.26    5.73
  -9   3  -3    1.61    1.11
  -9   3  -3    1.62    0.76
  -9   3  -3    0.99    0.96
  -9  -3  -3    2.12    1.22
  -9  -3  -3    3.13    1.01
  -9   3  -4  190.97    6.55
  -9   3  -4  202.85    5.69
  -9  -3  -4  186.59    6.38
  -9  -3  -4  198.26    5.31
  -9   3  -5  198.98    6.75
  -9  -3  -5  200.10    6.71
  -9   3  -5  199.30    5.87
  -9  -3  -5  205.72    5.46
  -9   3  -6  158.16    6.09
  -9   3  -6  162.82    5.40
  -9  -3  -6  153.29    5.97
  -9  -3  -6  170.49    4.95
  -9  -3  -7   58.38    2.84
  -9   3  -7   55.64    3.61
  -9   3  -7   58.13    3.29
  -9  -3  -7   57.58    3.69
  -9  -3  -8    9.23    1.31
  -9   3  -8    9.16    1.71
  -9   3  -8    7.16    1.59
  -9  -3  -8    6.51    1.64
  -9   3  -9   70.11    4.11
  -9   3  -9   67.32    3.81
  -9  -3  -9   68.29    4.24
  -9   3 -10   62.61    4.07
  -9   3 -10   75.77    4.25
  -9  -3 -10   66.47    4.28
  -9  -3 -11   62.35    4.24
  -9   3 -11   64.23    3.96
  -9   3 -12   36.76    3.21
  -9  -3 -12   38.77    3.62
  -9   3 -13   32.92    3.19
  -9  -3 -13   36.97    3.50
  -9  -3 -14   56.96    4.37
  -9   3 -14   60.81    4.26
  -9   3 -15   70.24    4.65
  -9   3 -16    0.68    1.78
   9   4 -22   -0.85    1.79
   9   4 -21   34.94    3.36
   9   4 -20    7.49    2.18
   9   4 -19    6.73    2.02
   9   4 -18   34.95    3.19
  -9   4  18   29.92    3.36
   9   4 -17    6.43    1.73
  -9   4  17    4.10    1.59
   9  -4 -16    7.57    1.36
   9   4 -16   10.63    1.97
  -9   4  16   13.94    2.47
   9  -4 -15    3.16    1.31
   9   4 -15    2.87    1.39
  -9   4  15    0.54    1.47
   9  -4 -14   87.44    4.09
   9   4 -14   81.63    4.39
  -9   4  14  101.00    5.33
   9  -4 -13   47.62    3.07
   9   4 -13   41.20    3.11
  -9   4  13   50.57    3.83
   9   4 -12   15.40    2.00
   9  -4 -12   12.88    1.71
  -9   4  12   13.69    2.39
   9  -4 -11   46.37    3.10
   9   4 -11   40.77    3.00
  -9   4  11   41.80    3.42
   9  -4 -10   19.79    2.22
   9   4 -10   18.07    2.10
  -9   4  10   22.33    2.64
  -9  -4  10   20.26    2.07
   9  -4  -9   12.18    1.79
   9   4  -9   12.55    1.78
  -9   4   9   18.23    2.33
  -9  -4   9   13.90    1.65
   9  -4  -8   -0.42    1.22
   9   4  -8    0.68    1.04
   9   4  -8    0.20    0.82
  -9  -4   8   -1.50    1.06
  -9   4   8    0.46    1.23
   9  -4  -7  248.30    7.53
   9   4  -7  227.32    6.38
   9   4  -7  225.08    6.97
  -9  -4   7  253.27    6.57
  -9   4   7  237.81    7.71
   9  -4  -6    4.72    1.42
   9   4  -6    6.20    1.38
   9   4  -6    6.27    1.41
  -9  -4   6    5.93    1.09
  -9   4   6    4.60    1.40
   9  -4  -5   13.88    2.02
   9   4  -5   12.25    1.72
  -9  -4   5   15.37    1.58
  -9   4   5   16.91    2.11
   9  -4  -4    0.26    1.26
   9   4  -4    1.14    1.08
  -9  -4   4    1.54    0.84
  -9   4   4    1.61    1.32
   9   4  -3   86.61    4.04
   9  -4  -3   87.87    4.48
  -9   4   3   79.62    1.65
  -9  -4   3   90.91    3.32
  -9   4   3   87.69    4.35
   9   4  -2   40.92    2.82
   9  -4  -2   39.83    3.16
  -9   4   2   40.66    1.40
  -9   4   2   41.24    3.07
  -9  -4   2   42.93    2.22
   9   4  -1  213.02    6.70
   9  -4  -1  217.66    7.37
  -9   4   1  231.50    4.57
  -9  -4   1  229.61    5.51
  -9  -4   1  218.34    6.70
  -9   4   1  206.60    6.99
   9   4   0   62.22    3.49
   9  -4   0   59.91    3.84
  -9   4   0   64.67    2.25
  -9   4   0   59.50    3.63
  -9  -4   0   60.40    3.38
  -9  -4   0   64.08    2.61
   9   4   1   55.97    3.39
  -9   4  -1   58.72    2.33
  -9  -4  -1   58.68    3.42
  -9   4  -1   49.75    3.33
  -9  -4  -1   58.41    2.46
  -9   4  -2   63.03    3.78
  -9   4  -2   68.58    2.72
  -9  -4  -2   65.47    3.71
  -9  -4  -2   65.23    2.61
  -9   4  -3  391.49   10.28
  -9   4  -3  422.16    8.53
  -9  -4  -3  398.90   10.14
  -9  -4  -3  412.45    8.02
  -9   4  -4    1.19    1.19
  -9   4  -4    0.91    0.86
  -9  -4  -4    0.54    0.66
  -9  -4  -4    0.94    1.21
  -9   4  -5  131.41    5.56
  -9   4  -5  134.56    4.58
  -9  -4  -5  121.20    5.27
  -9  -4  -5  130.95    3.92
  -9  -4  -6    8.51    1.11
  -9   4  -6    6.36    1.67
  -9   4  -6    6.51    1.25
  -9  -4  -6    8.20    1.80
  -9   4  -7  312.19    9.17
  -9   4  -7  314.87    8.10
  -9  -4  -7  303.47    9.10
  -9   4  -8    0.79    1.27
  -9   4  -8    0.74    1.03
  -9  -4  -8    0.67    1.27
  -9   4  -9   73.70    4.37
  -9  -4  -9   67.98    4.31
  -9   4  -9   78.23    3.98
  -9   4 -10   -0.08    1.28
  -9   4 -10    0.51    1.40
  -9  -4 -10   -1.30    1.51
  -9  -4 -11    4.09    1.60
  -9   4 -11    1.14    1.39
  -9   4 -12   26.62    2.75
  -9  -4 -12   26.62    3.16
  -9   4 -13   61.23    4.12
  -9  -4 -13   61.55    4.52
  -9   4 -14   33.62    3.23
  -9   4 -15   -0.82    1.49
  -9   4 -16    1.91    1.60
   9   5 -21   16.88    2.67
   9   5 -20    0.63    1.49
   9   5 -19    6.52    1.90
   9   5 -18    4.49    1.73
   9   5 -17  189.71    7.44
  -9   5  17  204.62    8.26
   9   5 -16   -0.10    1.26
   9  -5 -16    0.26    1.08
  -9   5  16   -1.37    1.40
   9   5 -15    4.58    1.69
   9  -5 -15    3.50    1.36
  -9   5  15    0.99    1.48
   9   5 -14   21.25    2.46
   9  -5 -14   18.68    2.14
  -9   5  14   23.12    2.80
   9  -5 -13   93.23    4.45
   9   5 -13   92.72    4.76
  -9   5  13   95.38    5.26
   9   5 -12   10.47    1.81
   9  -5 -12    7.22    1.55
  -9   5  12    5.28    1.82
   9  -5 -11    4.74    1.43
   9   5 -11    2.33    1.30
  -9   5  11    2.48    1.40
   9  -5 -10    8.26    1.66
   9   5 -10    7.20    1.60
  -9   5  10   12.95    2.24
   9  -5  -9  226.62    7.28
   9   5  -9  210.96    6.99
  -9   5   9  227.21    7.87
   9  -5  -8    5.96    1.62
   9   5  -8    7.72    1.63
   9   5  -8    7.57    1.17
  -9   5   8    4.81    1.49
   9  -5  -7    1.74    1.36
   9   5  -7    1.63    0.93
   9   5  -7    1.43    1.03
  -9   5   7    1.45    1.29
  -9  -5   7    1.60    0.92
   9  -5  -6  230.82    7.50
   9   5  -6  233.18    6.02
   9   5  -6  220.43    7.05
  -9   5   6  224.56    7.58
  -9  -5   6  232.18    5.96
   9  -5  -5   20.24    2.43
   9   5  -5   19.87    2.14
  -9   5   5   22.64    2.48
  -9  -5   5   22.43    1.72
   9  -5  -4    4.80    1.51
   9   5  -4    1.59    1.05
  -9  -5   4    5.61    1.00
  -9   5   4    5.55    1.45
   9  -5  -3   33.84    2.92
   9   5  -3   35.84    2.77
  -9   5   3   34.11    2.91
  -9  -5   3   37.94    2.01
   9  -5  -2   25.11    2.67
  -9   5   2   20.67    2.36
   9   5  -2   16.90    1.96
  -9  -5   2   19.20    1.42
   9   5  -1  342.75    9.29
   9  -5  -1  366.54   10.12
  -9   5   1  379.16    5.94
  -9  -5   1  371.22    7.20
  -9   5   1  357.02    9.85
   9   5   0   66.91    3.79
   9  -5   0   72.99    4.28
  -9   5   0   74.95    2.21
  -9  -5   0   68.58    2.47
  -9  -5   0   66.02    3.71
  -9   5   0   67.76    4.00
   9   5   1  221.81    7.23
   9  -5   1  225.61    7.74
  -9   5  -1  239.56    5.03
  -9   5  -1  219.34    7.37
  -9  -5  -1  231.57    5.00
  -9  -5  -1  216.72    7.07
   9   5   2    3.53    1.25
  -9   5  -2    4.41    1.40
   9  -5   2    3.54    1.56
  -9   5  -2    6.27    0.93
  -9  -5  -2    4.81    0.80
  -9  -5  -2    7.99    1.66
  -9   5  -3   10.33    1.90
  -9   5  -3   10.97    1.28
  -9  -5  -3    9.13    1.66
  -9   5  -4   30.66    2.82
  -9   5  -4   34.85    2.13
  -9  -5  -4   34.96    2.97
  -9   5  -5   12.57    2.01
  -9   5  -5   15.68    1.57
  -9  -5  -5   15.54    2.25
  -9   5  -6    2.59    1.38
  -9   5  -6    5.44    1.24
  -9  -5  -6    1.54    1.30
  -9   5  -7  122.60    5.70
  -9  -5  -7  124.10    5.68
  -9   5  -7  133.95    4.85
  -9   5  -8   -1.42    1.45
  -9   5  -8   -0.52    1.02
  -9  -5  -8   -0.97    1.35
  -9   5  -9   41.15    3.40
  -9  -5  -9   40.36    4.00
  -9   5  -9   42.25    3.01
  -9   5 -10    2.31    1.48
  -9   5 -10    5.41    1.58
  -9  -5 -10    1.50    1.52
  -9  -5 -11  145.47    6.70
  -9   5 -11  149.66    5.90
  -9   5 -12   35.28    3.09
  -9  -5 -12   34.35    3.45
  -9   5 -13    3.61    1.73
  -9  -5 -13    0.87    1.55
  -9   5 -14    1.34    1.53
  -9   5 -15  117.70    5.93
  -9   5 -16   61.81    4.49
   9   6 -20   27.95    3.27
   9   6 -19   62.13    4.44
   9   6 -18    9.15    2.09
   9   6 -17   -1.26    1.49
  -9   6  17    0.72    1.60
   9  -6 -16   11.67    1.72
   9   6 -16   13.42    2.25
  -9   6  16    7.18    1.92
   9  -6 -15   36.15    2.83
   9   6 -15   32.91    3.23
  -9   6  15   44.19    3.80
   9  -6 -14    4.67    1.36
   9   6 -14    0.91    1.32
  -9   6  14    0.99    1.45
   9  -6 -13   11.11    1.90
   9   6 -13    6.87    1.68
  -9   6  13    9.34    2.12
   9  -6 -12   96.96    4.68
   9   6 -12   93.09    4.86
  -9   6  12   98.76    5.40
   9  -6 -11    4.00    1.48
   9   6 -11    1.75    1.23
  -9   6  11    0.38    1.39
   9  -6 -10    5.25    1.58
   9   6 -10    3.11    1.33
  -9   6  10    4.58    1.48
   9  -6  -9   23.29    2.58
   9   6  -9   22.27    2.44
  -9   6   9   20.22    2.54
   9  -6  -8   16.02    2.17
   9   6  -8   16.25    2.05
  -9   6   8   21.97    2.56
   9  -6  -7  167.07    6.31
   9   6  -7  152.85    5.99
  -9   6   7  163.39    6.54
   9  -6  -6   61.54    3.91
   9   6  -6   62.41    3.77
  -9   6   6   63.59    4.05
   9  -6  -5  194.16    6.98
   9   6  -5  187.93    6.66
  -9   6   5  195.61    7.08
   9  -6  -4   15.61    2.12
   9   6  -4   11.60    1.87
  -9   6   4   12.92    2.02
   9  -6  -3    2.27    1.32
   9   6  -3    1.09    1.24
  -9   6   3   -1.03    1.44
  -9  -6   3    2.62    0.79
   9  -6  -2   10.15    1.92
  -9   6   2    9.99    1.85
   9   6  -2    8.79    1.67
  -9  -6   2   10.66    1.02
   9  -6  -1  390.22   10.50
   9   6  -1  354.38    9.68
  -9   6   1  353.87   10.02
  -9  -6   1  370.59    6.62
   9  -6   0   25.86    2.84
   9   6   0   25.99    2.50
  -9   6   0   23.21    2.58
   9  -6   1   12.85    2.12
   9   6   1   11.53    1.91
  -9   6  -1   11.59    2.14
  -9  -6  -1   11.25    1.90
   9   6   2   75.98    4.24
  -9   6  -2   74.70    4.37
   9  -6   2   79.23    4.63
  -9   6  -2   90.30    2.84
  -9  -6  -2   81.17    4.38
  -9   6  -3  351.13   10.05
   9  -6   3  372.11   10.52
  -9   6  -3  373.09    7.47
  -9  -6  -3  346.59    9.74
  -9   6  -4    1.93    1.40
   9  -6   4    1.32    1.34
  -9   6  -4    4.01    1.09
  -9  -6  -4   -0.98    1.33
  -9   6  -5   83.24    4.65
  -9   6  -5   87.68    3.45
  -9  -6  -5   77.53    4.45
  -9   6  -6    2.30    1.39
  -9   6  -6    5.26    1.36
  -9  -6  -6    3.25    1.47
  -9   6  -7  293.39    9.37
  -9   6  -7  305.82    7.73
  -9  -6  -7  298.06    9.38
  -9   6  -8    8.57    2.05
  -9   6  -8   11.26    1.75
  -9  -6  -8   12.10    2.33
  -9   6  -9   53.64    4.00
  -9   6  -9   58.43    3.39
  -9  -6  -9   57.08    4.12
  -9   6 -10    8.68    1.94
  -9  -6 -10    9.61    2.16
  -9   6 -10   10.55    1.83
  -9   6 -11   18.32    2.58
  -9  -6 -11   21.21    2.83
  -9   6 -11   24.01    2.54
  -9  -6 -12   23.98    3.02
  -9   6 -12   22.48    2.59
  -9   6 -13   13.87    2.24
  -9   6 -14    5.43    1.93
  -9   6 -15   44.19    3.70
   9   7 -19    7.93    2.22
   9   7 -18   23.40    2.95
   9   7 -17   14.87    2.42
   9  -7 -16    0.29    1.14
   9   7 -16    0.90    1.38
  -9   7  16    1.09    1.73
   9   7 -15    4.62    1.68
   9  -7 -15    4.98    1.55
  -9   7  15    6.24    2.01
   9   7 -14   13.14    2.21
   9  -7 -14   16.07    2.25
  -9   7  14   14.75    2.44
   9   7 -13    4.22    1.70
   9  -7 -13    3.26    1.44
  -9   7  13    5.10    1.98
   9   7 -12    7.12    1.88
   9  -7 -12    2.57    1.39
  -9   7  12    8.11    1.80
   9  -7 -11   62.38    3.88
   9   7 -11   63.34    4.10
  -9   7  11   59.34    4.23
   9  -7 -10   18.49    2.23
   9   7 -10   19.67    2.48
  -9   7  10   17.54    2.49
   9  -7  -9  110.49    5.20
   9   7  -9  112.22    5.29
  -9   7   9  114.79    5.68
   9  -7  -8   54.45    3.71
   9   7  -8   57.84    3.82
  -9   7   8   57.70    3.97
   9  -7  -7   38.10    3.19
   9   7  -7   41.78    3.26
  -9   7   7   37.37    3.24
   9  -7  -6   28.92    2.85
   9   7  -6   27.65    2.73
  -9   7   6   30.59    3.04
   9  -7  -5   21.77    2.57
   9   7  -5   21.38    2.40
  -9   7   5   19.73    2.47
   9  -7  -4  123.41    5.58
   9   7  -4  115.09    5.22
  -9   7   4  112.21    5.41
   9  -7  -3   29.88    2.92
   9   7  -3   24.42    2.50
  -9   7   3   25.41    2.79
   9  -7  -2   18.82    2.38
  -9   7   2   20.89    2.46
   9   7  -2   18.12    2.23
   9  -7  -1    7.67    1.81
  -9   7   1    5.83    1.61
   9   7  -1    5.44    1.57
   9  -7   0  158.13    6.50
   9   7   0  138.89    5.89
  -9   7   0  133.31    5.98
   9  -7   1  129.26    6.01
   9   7   1  137.33    5.86
  -9   7  -1  140.17    6.10
  -9  -7  -1  136.56    5.80
   9  -7   2  181.02    7.08
   9   7   2  169.49    6.67
  -9   7  -2  160.75    6.64
  -9  -7  -2  166.10    6.47
   9  -7   3   17.75    2.41
   9   7   3   18.32    2.38
  -9   7  -3   13.88    2.08
  -9  -7  -3   14.77    2.25
   9  -7   4  222.36    8.03
  -9   7  -4  213.60    7.77
  -9  -7  -4  217.15    7.65
  -9   7  -5   75.30    4.62
  -9  -7  -5   77.63    4.57
   9  -7   5   77.87    4.74
  -9   7  -6  235.57    8.36
   9  -7   6  245.49    8.64
  -9  -7  -6  236.41    8.22
  -9   7  -7   29.06    3.07
  -9  -7  -7   28.29    2.97
  -9   7  -8   11.50    2.31
  -9  -7  -8    7.98    2.00
  -9   7  -9   32.12    3.29
  -9  -7  -9   36.66    3.51
  -9   7 -10   79.59    4.97
  -9  -7 -10   85.88    5.16
  -9   7 -11    4.15    1.70
  -9  -7 -11    5.17    1.76
   9   8 -18   14.25    2.63
   9   8 -17   -1.31    1.70
   9  -8 -17   -1.54    1.39
   9   8 -16    5.46    1.74
   9  -8 -16    8.41    1.75
   9  -8 -15   82.23    4.52
   9   8 -15   83.15    5.09
  -9   8  15   97.65    5.71
   9  -8 -14   23.87    2.60
   9   8 -14   22.13    2.80
  -9   8  14   28.60    3.10
   9  -8 -13    0.23    1.35
   9   8 -13    1.01    1.45
  -9   8  13    4.50    1.78
   9  -8 -12   44.95    3.42
   9   8 -12   40.41    3.45
  -9   8  12   44.58    3.78
   9  -8 -11    3.34    1.77
   9   8 -11    0.97    1.28
  -9   8  11    2.85    1.71
   9  -8 -10  155.94    6.27
   9   8 -10  150.94    6.48
  -9   8  10  148.80    6.76
   9  -8  -9   16.77    2.29
   9   8  -9   19.60    2.45
  -9   8   9   16.32    2.47
   9  -8  -8   -0.96    1.43
   9   8  -8   -1.15    1.30
  -9   8   8    2.55    1.60
   9  -8  -7    2.42    1.46
   9   8  -7    3.34    1.40
  -9   8   7    4.27    1.68
   9  -8  -6  265.76    8.58
   9   8  -6  266.58    8.58
  -9   8   6  248.26    8.66
   9  -8  -5   19.72    2.51
   9   8  -5   20.24    2.53
  -9   8   5   16.49    2.34
   9  -8  -4    1.19    1.39
   9   8  -4    1.32    1.24
  -9   8   4    4.36    1.84
   9  -8  -3   -0.94    1.42
   9   8  -3    0.93    1.26
  -9   8   3    0.33    1.53
   9  -8  -2   44.93    3.56
   9   8  -2   45.21    3.43
  -9   8   2   46.88    3.63
   9  -8  -1   25.01    2.91
  -9   8   1   24.26    2.70
   9   8  -1   21.68    2.57
   9  -8   0   36.28    3.33
   9   8   0   41.29    3.30
  -9   8   0   37.56    3.32
   9  -8   1   -0.56    1.46
   9   8   1   -0.86    1.29
  -9   8  -1    0.75    1.48
   9  -8   2   61.12    4.21
   9   8   2   53.11    3.86
  -9   8  -2   53.69    3.90
  -9  -8  -2   51.70    3.67
   9  -8   3  122.27    5.96
   9   8   3  109.27    5.51
  -9   8  -3  119.72    5.80
  -9  -8  -3  112.10    5.56
   9  -8   4  166.65    7.06
  -9   8  -4  167.26    6.95
  -9  -8  -4  163.37    6.75
   9  -8   5   62.52    4.38
  -9   8  -5   62.33    4.29
  -9  -8  -5   62.92    4.24
   9  -8   6   -0.96    1.41
  -9   8  -6   -0.79    1.39
  -9  -8  -6   -1.40    1.61
   9  -8   7    1.84    1.45
  -9   8  -7    2.63    1.64
  -9  -8  -7    0.33    1.51
  -9   8  -8   31.81    3.14
  -9  -8  -8   36.34    3.48
  -9   8  -9   35.82    3.52
  -9  -8  -9   35.72    3.49
  -9   8 -10   21.08    2.89
  -9  -8 -10   22.21    2.81
  -9   8 -11   17.72    2.87
   9  -9 -17    1.74    1.48
   9   9 -16   21.31    2.85
   9  -9 -16   23.90    2.66
   9   9 -15   -0.33    1.57
   9  -9 -15   -0.31    1.33
   9   9 -14   29.32    3.20
   9  -9 -14   29.15    2.90
  -9   9  14   23.30    2.98
   9   9 -13   11.97    2.31
   9  -9 -13   17.43    2.38
  -9   9  13   14.82    2.54
   9  -9 -12   58.45    4.06
   9   9 -12   62.78    4.33
  -9   9  12   66.26    4.72
   9  -9 -11   -2.54    2.20
   9   9 -11    1.02    1.62
  -9   9  11   -0.26    1.58
   9  -9 -10    5.29    1.63
   9   9 -10    9.07    1.90
  -9   9  10    7.36    1.94
   9  -9  -9    8.59    2.32
   9   9  -9    6.05    1.91
  -9   9   9    3.08    1.74
   9  -9  -8   58.06    4.04
   9   9  -8   58.35    4.13
  -9   9   8   59.16    4.27
   9  -9  -7    2.64    1.44
   9   9  -7    3.48    1.56
  -9   9   7    5.25    2.04
   9  -9  -6   11.29    2.14
   9   9  -6    7.29    1.77
  -9   9   6    7.65    1.76
   9  -9  -5   54.73    4.01
   9   9  -5   62.38    4.19
  -9   9   5   60.47    4.19
   9  -9  -4  158.55    6.65
   9   9  -4  155.85    6.58
  -9   9   4  164.95    6.90
   9  -9  -3    0.37    1.52
   9   9  -3   -0.30    1.56
  -9   9   3   -0.14    1.54
   9  -9  -2   60.92    4.23
   9   9  -2   53.37    3.95
  -9   9   2   61.16    4.22
   9  -9  -1    1.81    1.38
  -9   9   1    1.19    1.40
   9   9  -1    1.71    1.42
   9  -9   0   46.07    3.81
   9   9   0   49.70    3.73
  -9   9   0   49.69    3.82
   9  -9   1   24.15    2.82
   9   9   1   18.33    2.55
  -9   9  -1   19.06    2.55
   9  -9   2   41.34    3.67
   9   9   2   31.64    3.19
  -9   9  -2   38.42    3.49
  -9  -9  -2   34.61    3.27
   9  -9   3   11.72    2.26
   9   9   3    9.14    2.13
  -9   9  -3   11.46    2.16
  -9  -9  -3   10.16    2.07
   9  -9   4   15.34    2.40
   9   9   4    8.15    1.92
  -9   9  -4    9.17    2.05
  -9  -9  -4   12.48    2.31
   9  -9   5   77.78    4.91
  -9   9  -5   67.89    4.61
  -9  -9  -5   58.08    4.29
   9  -9   6   91.12    5.32
  -9   9  -6   93.12    5.35
  -9  -9  -6   88.14    5.18
   9  -9   7    0.25    1.58
  -9   9  -7    1.92    1.54
  -9  -9  -7   -0.22    1.54
   9  -9   8   -2.02    1.68
  -9   9  -8   -0.03    1.74
  -9  -9  -8   -0.57    1.46
  -9   9  -9   18.93    2.83
  -9  -9  -9   14.31    2.43
   9 -10 -17    4.91    1.72
   9 -10 -16    0.23    1.52
   9  10 -15    9.12    2.04
   9 -10 -15    9.89    2.01
   9  10 -14   14.31    2.38
   9 -10 -14   11.74    2.21
   9 -10 -13   -1.63    1.48
   9  10 -13    1.47    1.64
   9 -10 -12    6.60    1.94
   9  10 -12   10.99    2.03
  -9  10  12   15.20    2.82
   9 -10 -11    2.35    1.43
   9  10 -11    1.83    1.45
  -9  10  11    2.08    1.91
   9 -10 -10   30.87    3.05
   9  10 -10   30.40    3.11
  -9  10  10   26.76    3.07
   9 -10  -9    3.35    1.55
   9  10  -9    3.23    1.59
  -9  10   9    4.20    1.89
   9 -10  -8    0.54    1.39
   9  10  -8    0.44    1.45
  -9  10   8   -1.94    1.46
   9 -10  -7   -0.44    1.51
   9  10  -7    2.32    1.68
  -9  10   7   -0.11    1.40
   9 -10  -6  165.03    6.95
   9  10  -6  166.98    7.02
  -9  10   6  165.69    7.22
   9 -10  -5    2.85    1.65
   9  10  -5    0.57    1.47
  -9  10   5    0.77    1.50
   9 -10  -4   74.99    4.76
   9  10  -4   70.51    4.51
  -9  10   4   75.56    4.79
   9 -10  -3    5.84    1.67
   9  10  -3    5.36    1.73
  -9  10   3    5.98    1.89
   9 -10  -2   13.03    2.27
  -9  10   2    9.15    2.08
   9  10  -2   10.43    1.99
   9 -10  -1    1.15    1.68
  -9  10   1   -1.34    1.58
   9  10  -1   -1.48    1.64
   9 -10   0   99.08    5.45
   9  10   0   98.38    5.49
  -9  10   0  101.43    5.54
   9 -10   1    0.71    1.57
   9  10   1   -0.06    1.42
  -9  10  -1    0.80    1.53
   9 -10   2  221.41    8.36
   9  10   2  215.25    8.27
  -9  10  -2  222.31    8.44
   9 -10   3   70.77    4.83
   9  10   3   67.14    4.60
  -9  10  -3   78.24    4.99
  -9 -10  -3   78.63    4.85
   9 -10   4  395.21   11.73
  -9  10  -4  374.25   11.55
   9  10   4  381.40   11.52
  -9 -10  -4  390.55   11.44
   9 -10   5    0.87    1.69
  -9  10  -5    0.28    1.57
  -9 -10  -5    0.29    1.46
   9 -10   6   35.13    3.51
  -9  10  -6   42.83    3.92
  -9 -10  -6   34.42    3.44
   9 -10   7   -1.18    1.47
  -9  10  -7   -2.70    1.87
  -9 -10  -7   -0.37    1.67
   9 -11 -17    1.57    1.74
   9 -11 -16   24.12    2.91
   9 -11 -15   -0.37    1.62
   9 -11 -14   26.35    3.04
   9 -11 -13   11.32    2.08
   9  11 -13   12.05    2.54
   9 -11 -12   23.69    2.96
   9  11 -12   26.86    3.24
   9 -11 -11    8.15    1.78
   9  11 -11    3.42    1.54
   9 -11 -10   22.43    2.71
   9  11 -10   16.04    2.49
  -9  11  10   19.49    2.82
   9 -11  -9    3.75    1.86
   9  11  -9    4.42    2.09
  -9  11   9    5.41    2.11
   9 -11  -8  106.68    5.73
   9  11  -8   98.12    5.73
  -9  11   8  110.62    6.14
   9 -11  -7   47.09    3.85
   9  11  -7   43.82    3.83
  -9  11   7   47.53    4.09
   9 -11  -6    1.01    1.49
   9  11  -6    2.64    1.42
  -9  11   6    0.35    1.53
   9 -11  -5    3.92    1.41
   9  11  -5    7.98    1.97
  -9  11   5    8.21    2.10
   9 -11  -4   71.52    4.76
   9  11  -4   64.75    4.54
  -9  11   4   71.60    4.80
   9 -11  -3   38.89    3.57
   9  11  -3   34.20    3.26
  -9  11   3   40.91    3.79
   9 -11  -2    1.48    1.46
  -9  11   2   -1.36    1.72
   9  11  -2    1.11    1.50
   9 -11  -1    1.29    1.52
  -9  11   1    2.45    1.63
   9  11  -1    3.27    1.62
   9 -11   0   12.87    2.32
  -9  11   0   15.81    2.60
   9  11   0   12.65    2.27
   9 -11   1  108.04    5.87
   9  11   1  110.64    5.92
  -9  11  -1  100.60    5.70
   9 -11   2    5.25    1.93
   9  11   2    4.16    1.89
  -9  11  -2    2.36    1.56
   9 -11   3    1.35    1.57
   9  11   3    2.66    1.71
  -9  11  -3   -0.45    1.40
  -9 -11  -3    4.45    1.86
   9 -11   4   21.00    3.00
   9  11   4   17.36    2.66
  -9  11  -4   16.67    2.63
  -9 -11  -4   21.53    2.74
   9 -11   5   90.97    5.54
  -9  11  -5   98.25    5.76
  -9 -11  -5   97.77    5.64
   9  12 -10   12.97    2.49
   9 -12  -9   21.13    2.76
   9  12  -9   21.74    2.83
   9 -12  -8   72.85    4.79
   9  12  -8   78.59    5.16
   9 -12  -7   97.08    5.63
   9  12  -7  110.95    6.26
  -9  12   7  104.04    5.97
   9 -12  -6  100.63    5.73
   9  12  -6  101.19    6.12
  -9  12   6   85.77    5.35
   9 -12  -5   50.20    4.04
   9  12  -5   43.99    4.93
  -9  12   5   46.26    4.04
   9 -12  -4    4.72    1.96
   9  12  -4    1.96    2.86
  -9  12   4    2.61    1.86
   9 -12  -3   89.03    5.37
   9  12  -3   81.80    5.20
  -9  12   3   90.40    5.48
   9 -12  -2   12.67    2.38
  -9  12   2    4.32    1.91
   9  12  -2    8.20    2.12
   9 -12  -1   31.61    3.33
  -9  12   1   28.72    3.29
   9  12  -1   27.52    3.29
   9 -12   0    3.72    1.85
  -9  12   0    3.95    1.84
   9  12   0    2.77    1.56
   9 -12   1    5.58    2.14
   9  12   1    5.99    1.75
  -9  12  -1    7.69    2.24
   9  12   2    0.84    1.59
   9  12   3   93.34    5.68
  -9 -12  -3   86.61    5.44
 -10   0  18  156.08    7.16
 -10   0  17   -1.01    1.51
 -10   0  16    3.57    1.57
 -10   0  15    0.11    1.43
 -10   0  14   55.00    4.21
 -10   0  13    0.95    1.44
 -10   0  12  136.41    5.93
  10   0 -11    0.90    0.90
 -10   0  11   -0.59    1.31
  10   0 -10   47.96    2.65
 -10   0  10   45.61    3.31
  10   0  -9    0.41    0.72
 -10   0   9   -1.08    1.28
  10   0  -8  117.31    4.08
 -10   0   8  116.23    5.05
  10   0  -7   -0.60    0.73
 -10   0   7   -0.40    0.80
 -10   0   7    1.15    1.24
  10   0  -6  317.54    7.33
 -10   0   6  315.22    6.93
 -10   0   6  311.79    8.60
  10   0  -5   -0.43    0.76
 -10   0   5   -1.35    1.22
 -10   0   5   -0.62    0.84
  10   0  -4   20.58    1.68
 -10   0   4   17.57    1.98
 -10   0   4   21.63    1.65
 -10   0   3    0.93    0.90
 -10   0   3    2.64    1.33
 -10   0   2  234.41    6.10
 -10   0   2  239.63    7.07
 -10   0   1    0.27    0.83
 -10   0   1   -1.38    1.13
 -10   0   0    1.18    0.87
 -10   0   0    1.38    0.99
 -10   0  -1    0.51    0.90
 -10   0  -1   -1.11    1.17
 -10   0  -2  237.59    6.74
 -10   0  -2  239.77    7.03
 -10   0  -3   -3.71    1.43
 -10   0  -3   -1.41    1.15
 -10   0  -4    2.31    1.12
 -10   0  -4    2.23    1.15
 -10   0  -5   -0.07    0.95
 -10   0  -5   -0.64    1.06
 -10   0  -6  304.45    8.37
 -10   0  -6  302.66    8.57
 -10   0  -7    1.27    1.01
 -10   0  -7    0.29    1.08
 -10   0  -8    3.47    1.23
 -10   0  -8    3.23    1.47
 -10   0  -9   -0.19    0.99
 -10   0  -9   -0.11    1.21
 -10   0 -10  336.58    9.33
 -10   0 -10  324.22    9.76
 -10   0 -11   -0.14    1.41
 -10   0 -12   24.18    2.87
 -10   0 -13   -2.03    1.57
 -10   0 -14  134.88    6.63
 -10   1  18   -1.87    1.69
 -10   1  17   29.93    3.28
 -10  -1  16   64.82    4.39
 -10   1  16   64.69    4.50
 -10   1  15   20.02    2.67
 -10  -1  15   17.77    2.48
  10   1 -14   98.30    4.41
 -10  -1  14   91.69    4.95
 -10   1  14   96.17    5.24
  10   1 -13   -0.33    1.09
 -10  -1  13    0.20    1.29
 -10   1  13    1.13    1.46
  10   1 -12  114.68    4.53
 -10   1  12  105.21    5.25
 -10  -1  12  113.12    5.29
  10   1 -11    0.33    0.89
 -10  -1  11    0.10    1.25
 -10   1  11   -0.60    1.42
  10   1 -10  129.12    4.70
 -10  -1  10  129.03    5.44
 -10   1  10  131.41    5.72
  10   1  -9  180.98    5.61
 -10  -1   9  175.97    6.34
 -10   1   9  177.76    6.61
  10   1  -8   81.70    3.58
 -10  -1   8   77.06    3.99
 -10   1   8   79.79    4.34
  10  -1  -7    7.34    0.93
  10   1  -7   10.48    1.39
 -10   1   7   11.23    1.87
 -10  -1   7    7.28    1.54
  10  -1  -6  288.72    6.42
  10   1  -6  285.60    7.17
 -10   1   6  287.05    6.05
 -10  -1   6  273.59    7.78
 -10   1   6  277.69    8.23
  10   1  -5   67.36    3.21
 -10   1   5   67.20    2.59
 -10  -1   5   67.03    3.56
 -10  -1   5   69.90    3.12
 -10   1   5   62.53    3.70
  10   1  -4   39.33    2.42
 -10   1   4   37.75    2.00
 -10  -1   4   44.98    2.56
 -10  -1   4   38.39    2.70
 -10   1   4   41.89    3.08
  10   1  -3   -1.00    0.95
 -10   1   3   -0.21    0.68
 -10  -1   3    0.42    1.03
 -10  -1   3    0.16    0.86
 -10   1   3    2.31    1.24
 -10  -1   2  545.56   11.03
 -10   1   2  548.86   10.26
 -10   1   2  531.11   12.04
 -10  -1   2  530.54   11.40
 -10  -1   1  100.02    4.07
 -10   1   1  110.72    3.82
 -10  -1   1  109.05    4.37
 -10   1   1  113.25    4.82
 -10   1   0   38.38    2.35
 -10  -1   0   33.22    2.35
 -10  -1   0   36.91    2.50
 -10   1   0   32.16    2.62
 -10   1  -1  101.59    3.85
 -10  -1  -1   95.62    4.09
 -10   1  -1   93.42    4.35
 -10  -1  -1   96.37    4.07
 -10   1  -2   -0.92    1.10
 -10   1  -2    2.68    0.97
 -10  -1  -2    2.25    0.90
 -10  -1  -2    0.10    0.86
 -10  -1  -3   45.36    2.94
 -10   1  -3   50.77    2.85
 -10  -1  -3   47.54    2.84
 -10   1  -3   50.33    3.19
 -10  -1  -4  162.38    5.85
 -10   1  -4  178.00    5.77
 -10   1  -4  170.54    6.06
 -10  -1  -4  163.36    5.51
 -10   1  -5   40.34    2.93
 -10  -1  -5   38.54    2.91
 -10   1  -5   43.03    2.85
 -10  -1  -5   38.45    2.58
 -10  -1  -6    0.36    0.84
 -10   1  -6    0.36    1.04
 -10   1  -6    1.16    1.13
 -10  -1  -6    3.65    1.42
 -10  -1  -7   41.60    2.82
 -10   1  -7   36.10    2.85
 -10   1  -7   47.37    3.22
 -10  -1  -7   38.90    3.11
 -10  -1  -8   10.86    1.68
 -10   1  -8   11.88    1.80
 -10  -1  -8    7.68    1.72
 -10   1  -8   12.29    2.02
 -10   1  -9    1.04    1.05
 -10  -1  -9    1.07    1.31
 -10   1  -9    3.66    1.50
 -10   1 -10    3.72    1.32
 -10  -1 -10    2.13    1.51
 -10   1 -10    6.11    1.69
 -10   1 -11   91.01    4.79
 -10   1 -11  101.68    5.21
 -10  -1 -11   97.59    5.32
 -10   1 -12   41.51    3.45
 -10   1 -12   51.57    3.95
 -10  -1 -12   48.32    3.93
 -10   1 -13   -0.76    1.66
 -10  -1 -13    0.31    1.61
 -10   1 -14   47.14    3.99
 -10   2  17   67.93    4.72
  10   2 -16   -0.89    1.24
 -10   2  16   -0.49    1.60
  10   2 -15    5.97    1.35
 -10   2  15    9.46    2.22
 -10  -2  15   12.73    2.22
  10   2 -14   34.70    2.77
 -10   2  14   39.05    3.48
 -10  -2  14   40.25    3.28
  10   2 -13   97.69    4.45
 -10   2  13  100.30    5.48
 -10  -2  13  103.12    5.04
  10   2 -12   49.44    3.13
 -10   2  12   54.15    3.88
 -10  -2  12   54.46    3.69
  10   2 -11    1.01    0.96
 -10  -2  11   -0.38    1.16
 -10   2  11    1.33    1.35
  10   2 -10  156.15    5.48
 -10   2  10  153.62    6.39
 -10  -2  10  161.37    6.00
  10   2  -9  353.61    8.83
 -10   2   9  357.37   10.09
 -10  -2   9  368.77    9.44
  10   2  -8   28.18    2.28
 -10   2   8   25.46    2.64
 -10  -2   8   31.92    2.59
  10   2  -7   15.29    1.76
 -10   2   7   10.89    1.83
 -10  -2   7   11.27    1.65
  10   2  -6    5.67    1.24
 -10   2   6    4.85    1.38
 -10  -2   6    4.40    1.18
  10   2  -5   27.30    2.21
 -10   2   5   27.28    2.57
 -10  -2   5   26.96    2.23
  10   2  -4   72.61    3.50
 -10   2   4   74.33    4.08
 -10  -2   4   76.42    3.61
 -10  -2   4   73.23    3.43
  10   2  -3   56.34    3.11
 -10   2   3   56.83    3.51
 -10  -2   3   58.28    3.08
 -10  -2   3   55.97    3.10
  10   2  -2   44.74    2.88
 -10   2   2   47.39    2.16
 -10  -2   2   44.38    2.73
 -10   2   2   45.10    3.15
 -10  -2   2   43.32    2.65
 -10   2   1    3.95    0.86
 -10  -2   1    1.78    0.89
 -10  -2   1    3.38    0.95
 -10   2   1    0.53    1.15
 -10   2   0   22.36    1.68
 -10  -2   0   24.07    1.98
 -10  -2   0   24.24    2.18
 -10   2   0   22.38    2.29
 -10   2  -1   30.05    2.65
 -10   2  -1   33.87    2.08
 -10  -2  -1   30.59    2.40
 -10  -2  -1   31.63    2.23
 -10   2  -2   -0.01    1.15
 -10   2  -2   -0.40    0.80
 -10  -2  -2    2.23    1.06
 -10  -2  -2   -0.07    0.86
 -10   2  -3    2.00    1.36
 -10   2  -3    0.31    0.76
 -10  -2  -3    2.06    1.38
 -10  -2  -3    0.66    0.85
 -10   2  -4   15.07    2.09
 -10   2  -4   18.06    1.83
 -10  -2  -4   13.59    1.97
 -10  -2  -4   16.45    1.79
 -10  -2  -5    2.50    1.15
 -10   2  -5    1.55    1.26
 -10   2  -5    1.77    1.24
 -10  -2  -5    0.76    1.21
 -10   2  -6   87.96    4.53
 -10  -2  -6   95.34    4.79
 -10   2  -6   98.56    4.38
 -10   2  -7   33.80    2.91
 -10  -2  -7   40.24    3.23
 -10   2  -7   44.57    3.09
 -10   2  -8    9.60    1.94
 -10   2  -8    9.54    1.87
 -10  -2  -8    6.98    1.69
 -10   2  -9    6.78    1.70
 -10   2  -9    8.51    1.83
 -10  -2  -9    8.29    1.83
 -10   2 -10   79.65    4.57
 -10   2 -10   87.86    4.66
 -10  -2 -10   83.39    4.93
 -10   2 -11   78.83    4.61
 -10   2 -11   83.79    4.76
 -10  -2 -11   71.43    4.57
 -10   2 -12   11.50    2.02
 -10  -2 -12   17.51    2.88
 -10   2 -12   11.58    2.17
 -10   2 -13   38.39    3.37
 -10  -2 -13   44.15    3.84
 -10   2 -13   42.95    3.63
 -10   2 -14  101.70    5.59
  10   3 -17   35.10    3.05
 -10   3  17   34.38    3.52
  10   3 -16    4.15    1.48
 -10   3  16    2.60    1.67
  10   3 -15   62.71    3.90
 -10   3  15   73.99    4.81
  10   3 -14    3.58    1.21
 -10   3  14    8.57    2.01
  10   3 -13    3.35    1.56
 -10   3  13   -2.06    1.72
 -10  -3  13    2.88    1.40
  10   3 -12   -1.45    1.36
 -10   3  12    0.41    1.50
 -10  -3  12    0.16    1.08
  10   3 -11   10.92    1.65
 -10  -3  11   11.12    1.83
 -10   3  11   16.40    2.44
  10   3 -10    9.39    1.68
 -10  -3  10    7.32    1.55
 -10   3  10    6.68    1.78
  10   3  -9   36.69    2.73
 -10  -3   9   37.43    2.76
 -10   3   9   31.25    2.98
  10   3  -8   26.64    2.35
 -10   3   8   25.67    2.60
 -10  -3   8   31.50    2.56
  10   3  -7   24.98    2.30
 -10  -3   7   26.42    2.28
 -10   3   7   22.50    2.53
  10   3  -6   24.74    2.23
 -10  -3   6   25.49    2.13
 -10   3   6   23.20    2.52
  10   3  -5   14.71    1.81
 -10  -3   5   13.56    1.64
 -10   3   5   10.90    1.97
  10   3  -4   52.60    3.14
 -10   3   4   47.88    3.41
 -10  -3   4   49.11    2.78
  10   3  -3   65.22    3.55
 -10  -3   3   72.09    3.27
 -10   3   3   64.31    3.88
 -10  -3   3   64.18    3.41
  10   3  -2  255.40    7.43
 -10  -3   2  259.43    6.66
 -10  -3   2  250.11    7.18
 -10   3   2  255.76    7.97
  10   3  -1  170.54    5.88
 -10   3   1  161.51    6.15
 -10  -3   1  166.94    5.73
 -10  -3   1  169.14    5.10
 -10   3   0   59.27    3.68
 -10  -3   0   65.54    3.54
 -10  -3   0   62.94    2.92
 -10   3  -1   -2.11    1.46
 -10   3  -1   -1.45    1.08
 -10  -3  -1    0.78    1.03
 -10  -3  -1   -1.17    0.96
 -10   3  -2    1.86    1.35
 -10   3  -2   -1.31    0.91
 -10  -3  -2    0.42    0.73
 -10  -3  -2    2.77    1.28
 -10   3  -3   99.97    3.76
 -10  -3  -3   87.34    4.39
 -10   3  -3   97.90    4.73
 -10  -3  -3  104.09    3.85
 -10   3  -4  114.97    5.21
 -10  -3  -4  111.48    5.04
 -10   3  -4  118.79    4.36
 -10   3  -5   40.71    3.25
 -10   3  -5   44.05    2.78
 -10  -3  -5   44.86    3.35
 -10   3  -6   33.59    2.96
 -10  -3  -6   33.48    2.97
 -10   3  -6   31.38    2.45
 -10   3  -7  146.89    6.22
 -10   3  -7  165.30    5.80
 -10  -3  -7  156.76    6.43
 -10   3  -8   29.39    2.88
 -10   3  -8   35.88    2.84
 -10  -3  -8   32.39    3.11
 -10   3  -9   67.56    4.31
 -10   3  -9   76.76    4.14
 -10  -3  -9   69.00    4.47
 -10   3 -10   35.14    3.24
 -10   3 -10   37.31    3.01
 -10  -3 -10   44.11    3.67
 -10   3 -11   72.15    4.51
 -10   3 -11   68.74    4.22
 -10  -3 -11   66.68    4.54
 -10   3 -12   24.71    2.89
 -10   3 -12   26.97    2.96
 -10  -3 -12   27.68    3.16
 -10   3 -13   95.82    5.43
 -10   3 -13  105.48    5.49
 -10   3 -14    7.02    2.04
 -10   3 -14    6.94    2.00
  10   4 -19    6.23    1.89
  10   4 -18    3.80    1.74
  10   4 -17   16.05    2.27
  10   4 -16    8.23    1.92
 -10   4  16    7.37    2.12
  10   4 -15    1.04    1.28
 -10   4  15    3.82    1.73
  10  -4 -14    8.32    1.83
  10   4 -14    7.23    1.56
 -10   4  14    7.13    1.93
  10  -4 -13   54.85    3.51
  10   4 -13   47.27    3.38
 -10   4  13   57.08    4.21
  10  -4 -12   26.12    2.60
  10   4 -12   29.33    2.68
 -10   4  12   31.59    3.17
  10  -4 -11   -0.90    1.22
  10   4 -11    0.37    1.26
 -10   4  11    0.00    1.48
  10  -4 -10   73.55    4.14
  10   4 -10   74.47    4.11
 -10   4  10   81.84    4.77
 -10  -4  10   82.96    4.04
  10  -4  -9  127.07    5.50
  10   4  -9  127.33    5.28
 -10   4   9  123.39    5.85
 -10  -4   9  130.90    4.97
  10  -4  -8   45.97    3.44
  10   4  -8   51.79    3.29
 -10   4   8   52.95    3.81
 -10  -4   8   55.52    3.17
  10  -4  -7  140.22    5.87
  10   4  -7  127.43    5.23
 -10   4   7  129.99    5.83
 -10  -4   7  144.19    4.92
  10  -4  -6   60.64    3.92
  10   4  -6   58.59    3.50
 -10  -4   6   61.50    3.13
 -10   4   6   64.12    4.07
  10  -4  -5    9.36    1.88
  10   4  -5    9.01    1.51
 -10   4   5   11.06    1.99
 -10  -4   5   12.50    1.50
  10   4  -4    6.68    1.47
 -10  -4   4    8.96    1.35
 -10   4   4   10.68    1.94
  10   4  -3  173.77    6.15
 -10  -4   3  196.45    5.41
 -10   4   3  181.92    6.82
  10   4  -2   85.78    4.25
 -10  -4   2   90.91    3.45
 -10  -4   2   86.21    4.13
 -10   4   2   85.46    4.54
  10   4  -1    1.34    1.21
 -10   4   1   -1.11    1.35
 -10  -4   1   -0.89    1.12
 -10  -4   1   -0.23    0.80
  10   4   0    9.36    1.68
 -10   4   0   10.99    1.99
 -10  -4   0   13.42    1.77
 -10   4  -1  369.38   10.18
 -10  -4  -1  381.95    9.82
 -10   4  -2   11.62    1.92
 -10  -4  -2   13.21    1.88
 -10  -4  -3   67.15    3.92
 -10   4  -3   62.96    3.99
 -10   4  -4    3.35    1.32
 -10  -4  -4    6.09    1.67
 -10   4  -5  126.57    5.71
 -10  -4  -5  135.42    5.81
 -10   4  -6    0.53    1.34
 -10  -4  -6    2.14    1.40
 -10   4  -7   78.96    4.61
 -10  -4  -7   74.75    4.46
 -10   4  -8    7.05    1.86
 -10   4  -8    7.69    1.51
 -10  -4  -8    4.86    1.68
 -10   4  -9   63.68    4.27
 -10  -4  -9   57.59    4.15
 -10   4  -9   66.29    3.85
 -10   4 -10    4.71    1.63
 -10  -4 -10    1.44    1.49
 -10   4 -10    2.94    1.52
 -10   4 -11   46.69    3.83
 -10  -4 -11   53.37    4.22
 -10   4 -12   25.10    2.87
 -10   4 -13    7.34    1.99
  10   5 -19   19.51    2.56
  10   5 -18   -0.81    1.56
  10   5 -17    0.22    1.39
  10   5 -16    2.77    1.34
  10  -5 -15  207.73    6.96
  10   5 -15  184.75    7.31
 -10   5  15  210.22    8.45
  10  -5 -14    1.56    1.28
  10   5 -14    0.82    1.58
 -10   5  14   -1.48    1.90
  10  -5 -13    1.27    1.38
  10   5 -13    3.16    1.44
 -10   5  13    5.53    1.78
  10  -5 -12    8.55    1.75
  10   5 -12    6.39    1.52
 -10   5  12    6.25    1.82
  10  -5 -11  169.52    6.48
  10   5 -11  156.21    6.26
 -10   5  11  172.06    7.15
  10  -5 -10    6.53    1.86
  10   5 -10    4.51    1.55
 -10   5  10    4.66    1.61
  10  -5  -9   14.98    2.10
  10   5  -9   16.84    2.13
 -10   5   9   18.88    2.65
  10  -5  -8   -0.06    1.30
  10   5  -8   -1.12    1.20
 -10   5   8    0.30    1.42
  10  -5  -7  171.89    6.69
  10   5  -7  163.72    6.21
 -10  -5   7  176.40    5.40
 -10   5   7  182.63    7.09
  10  -5  -6    5.04    1.68
  10   5  -6    0.38    1.24
 -10   5   6    0.32    1.39
 -10  -5   6    1.86    1.04
  10  -5  -5   61.36    4.01
  10   5  -5   56.96    3.62
 -10   5   5   57.99    3.97
 -10  -5   5   65.63    2.95
  10  -5  -4   43.23    3.54
  10   5  -4   40.69    3.00
 -10   5   4   40.18    3.34
 -10  -5   4   48.05    2.49
  10  -5  -3  250.20    8.40
  10   5  -3  233.08    7.56
 -10   5   3  237.84    8.11
  10  -5  -2   42.26    3.50
  10   5  -2   40.35    3.09
 -10   5   2   41.25    3.33
  10  -5  -1   61.42    4.16
  10   5  -1   61.89    3.69
 -10   5   1   57.35    3.87
 -10  -5   1   59.72    3.53
  10   5   0   18.92    2.32
 -10   5   0   21.77    2.58
 -10  -5   0   19.76    2.30
  10   5   1    8.70    1.74
 -10   5  -1    9.15    1.81
 -10  -5  -1   12.44    1.96
 -10   5  -2   17.13    2.26
 -10  -5  -2   20.96    2.39
 -10   5  -3   49.28    3.66
 -10  -5  -3   47.61    3.41
 -10   5  -4    7.91    2.19
 -10  -5  -4    5.46    1.56
 -10   5  -5   10.39    2.05
 -10  -5  -5    7.50    1.95
 -10   5  -6    4.31    1.71
 -10  -5  -6   -1.98    1.69
 -10   5  -7    8.99    1.97
 -10  -5  -7    7.25    1.88
 -10   5  -8   -0.58    1.43
 -10  -5  -8    2.90    1.71
 -10   5  -9   40.84    3.61
 -10  -5  -9   46.13    3.79
 -10   5 -10    6.58    1.90
 -10  -5 -10    8.83    2.14
 -10   5 -11    8.50    2.10
 -10  -5 -11   13.99    2.41
 -10   5 -12    4.31    1.71
  10   6 -19   43.90    3.93
  10   6 -18    9.04    2.00
  10   6 -17    7.64    2.04
  10   6 -16    2.40    1.59
  10   6 -15    6.40    1.68
  10  -6 -15    6.09    1.74
  10  -6 -14    3.02    1.47
  10   6 -14    8.00    2.03
 -10   6  14    4.67    1.90
  10  -6 -13   22.70    2.48
  10   6 -13   18.30    2.48
 -10   6  13   24.63    3.10
  10  -6 -12   28.98    2.81
  10   6 -12   29.74    2.93
 -10   6  12   28.47    3.15
  10  -6 -11    0.29    1.24
  10   6 -11    0.27    1.36
 -10   6  11    0.88    1.60
  10  -6 -10    2.02    1.55
  10   6 -10    0.06    1.23
 -10   6  10    0.13    1.48
  10  -6  -9   12.93    2.07
  10   6  -9   10.93    1.87
 -10   6   9   15.84    2.51
  10  -6  -8   71.23    4.36
  10   6  -8   64.75    4.00
 -10   6   8   70.35    4.50
  10  -6  -7   43.92    3.49
  10   6  -7   42.26    3.20
 -10   6   7   49.04    3.74
  10  -6  -6   -2.87    1.75
  10   6  -6   -1.42    1.46
 -10   6   6   -2.54    1.66
  10  -6  -5    0.66    1.37
  10   6  -5   -1.45    1.37
 -10   6   5    1.38    1.47
  10  -6  -4   45.12    3.66
  10   6  -4   49.26    3.47
 -10   6   4   51.70    3.86
  10  -6  -3  137.48    6.16
  10   6  -3  127.90    5.66
 -10   6   3  138.16    6.16
  10  -6  -2    2.77    1.52
  10   6  -2    2.58    1.38
 -10   6   2    2.49    1.50
  10  -6  -1    3.42    1.56
 -10   6   1    5.71    1.65
  10   6  -1    5.86    1.61
 -10  -6   1    3.60    1.43
  10  -6   0   16.81    2.41
  10   6   0   11.46    2.03
 -10   6   0   12.02    2.06
 -10  -6   0   12.74    2.06
  10  -6   1  231.22    8.28
  10   6   1  215.52    7.56
 -10  -6  -1  205.14    7.33
 -10   6  -1  217.87    7.85
 -10   6  -2    5.16    1.70
 -10  -6  -2    9.20    1.86
 -10   6  -3   29.18    3.01
 -10  -6  -3   33.82    3.17
 -10   6  -4    0.73    1.58
 -10  -6  -4   -1.61    1.57
 -10   6  -5  143.61    6.46
 -10  -6  -5  138.31    6.22
 -10   6  -6    2.12    1.58
 -10  -6  -6   -0.31    1.36
 -10   6  -7   84.82    5.05
 -10  -6  -7   84.05    4.95
 -10   6  -8   -1.91    1.82
 -10  -6  -8    1.94    1.69
 -10   6  -9   74.35    4.82
 -10  -6  -9   78.10    4.93
 -10   6 -10   47.71    3.99
 -10  -6 -10   49.10    4.11
 -10   6 -11    6.50    1.95
  10   7 -18    5.85    2.14
  10   7 -17   15.40    2.68
  10   7 -16   42.18    3.70
  10  -7 -15   90.94    4.84
  10   7 -15   84.60    5.06
  10  -7 -14    4.81    1.59
  10   7 -14    2.89    1.42
  10  -7 -13    6.81    1.88
  10   7 -13    2.71    1.46
 -10   7  13    2.61    1.65
  10  -7 -12   14.00    2.27
  10   7 -12   11.97    2.16
 -10   7  12   16.01    2.57
  10  -7 -11   94.03    5.02
  10   7 -11   88.78    4.98
 -10   7  11   95.42    5.56
  10  -7 -10   49.88    3.77
  10   7 -10   45.56    3.62
 -10   7  10   47.43    3.98
  10  -7  -9    0.88    1.41
  10   7  -9   -0.53    1.37
 -10   7   9    1.34    1.59
  10  -7  -8    2.65    1.35
  10   7  -8    4.24    1.75
 -10   7   8    4.06    1.55
  10  -7  -7   13.52    2.34
  10   7  -7   17.03    2.31
 -10   7   7   15.53    2.43
  10  -7  -6   44.34    3.61
  10   7  -6   42.49    3.34
 -10   7   6   39.38    3.52
  10  -7  -5   28.59    3.05
  10   7  -5   32.51    2.94
 -10   7   5   31.50    3.16
  10  -7  -4   10.09    2.16
  10   7  -4   10.74    1.92
 -10   7   4    7.91    1.94
  10  -7  -3   90.68    5.11
  10   7  -3   82.07    4.59
 -10   7   3   85.57    4.92
  10  -7  -2   31.71    3.24
  10   7  -2   25.02    2.59
 -10   7   2   28.21    2.97
  10  -7  -1   36.12    3.40
 -10   7   1   33.02    3.33
  10   7  -1   36.42    3.19
  10  -7   0  209.53    7.99
  10   7   0  207.24    7.55
 -10   7   0  213.11    7.92
 -10  -7   0  201.23    7.38
  10  -7   1    2.22    1.62
  10   7   1    2.61    1.41
 -10   7  -1    3.36    1.66
 -10  -7  -1    4.53    1.63
  10  -7   2    6.37    2.10
  10   7   2    9.05    1.75
 -10   7  -2   10.09    2.02
 -10  -7  -2    9.48    2.64
  10  -7   3   20.13    2.71
 -10   7  -3   16.80    2.54
 -10  -7  -3   13.95    2.29
 -10   7  -4  130.81    6.26
 -10  -7  -4  128.42    6.06
 -10   7  -5   -0.56    1.59
 -10  -7  -5    0.80    1.45
 -10   7  -6   39.95    3.62
 -10  -7  -6   41.75    3.66
 -10   7  -7   12.93    2.36
 -10  -7  -7   10.30    2.12
 -10   7  -8   71.15    4.76
 -10  -7  -8   66.10    4.67
 -10   7  -9   27.45    3.20
 -10  -7  -9   33.86    3.42
  10   8 -16   40.52    3.72
  10  -8 -15    2.89    1.70
  10   8 -15   -2.64    1.70
  10  -8 -14   35.49    3.32
  10   8 -14   45.37    3.82
  10  -8 -13   38.11    3.41
  10   8 -13   31.60    3.21
  10  -8 -12  134.44    6.18
  10   8 -12  134.81    6.43
 -10   8  12  145.33    7.03
  10  -8 -11    1.64    1.62
  10   8 -11    4.35    2.00
 -10   8  11    2.35    1.89
  10  -8 -10   58.92    4.09
  10   8 -10   62.34    4.36
 -10   8  10   69.33    4.77
  10  -8  -9   79.42    4.77
  10   8  -9   76.36    4.71
 -10   8   9   79.32    5.09
  10  -8  -8  150.96    6.60
  10   8  -8  148.68    6.58
 -10   8   8  155.61    7.05
  10  -8  -7   34.61    3.30
  10   8  -7   28.76    2.96
 -10   8   7   36.99    3.49
  10  -8  -6   16.86    2.61
  10   8  -6   15.96    2.24
 -10   8   6   15.96    2.48
  10  -8  -5   18.39    2.72
  10   8  -5   12.45    2.05
 -10   8   5   17.48    2.66
  10  -8  -4  182.09    7.37
  10   8  -4  171.51    6.96
 -10   8   4  184.91    7.51
  10  -8  -3    5.62    1.82
  10   8  -3    5.48    1.84
 -10   8   3    2.77    1.54
  10  -8  -2   26.98    3.22
  10   8  -2   22.50    2.61
 -10   8   2   26.55    3.08
  10  -8  -1  113.65    5.90
  10   8  -1  106.18    5.52
 -10   8   1  120.03    6.03
  10  -8   0  121.73    6.15
  10   8   0  110.58    5.61
 -10   8   0  116.06    5.95
 -10  -8   0  115.04    5.68
  10  -8   1  150.57    6.89
  10   8   1  136.00    6.35
 -10   8  -1  155.01    6.86
 -10  -8  -1  138.66    6.24
  10  -8   2   12.97    2.37
  10   8   2   12.86    2.24
 -10   8  -2   13.04    2.41
 -10  -8  -2   13.07    2.29
  10  -8   3   -0.56    1.67
 -10   8  -3   -1.50    1.46
 -10  -8  -3    0.96    1.59
  10  -8   4   17.57    2.82
 -10   8  -4   15.86    2.56
 -10  -8  -4   15.86    2.39
  10  -8   5    8.36    1.92
 -10   8  -5    5.61    2.08
 -10  -8  -5    7.62    1.95
 -10   8  -6   13.19    2.49
 -10  -8  -6   12.78    2.25
 -10   8  -7    5.84    1.80
 -10  -8  -7    3.04    1.63
  10  -9 -15   -0.58    1.44
  10  -9 -14   11.65    2.17
  10   9 -14   17.25    2.72
  10  -9 -13   -0.06    1.47
  10   9 -13   -2.61    1.68
  10  -9 -12    7.98    1.91
  10   9 -12    6.96    1.82
  10  -9 -11    8.42    2.19
  10   9 -11    7.69    2.04
  10  -9 -10  156.52    6.87
  10   9 -10  151.06    6.84
 -10   9  10  160.76    7.42
  10  -9  -9    3.26    1.67
  10   9  -9    0.04    1.34
 -10   9   9    2.16    1.61
  10  -9  -8    4.01    1.72
  10   9  -8   -0.73    1.61
 -10   9   8    5.15    1.88
  10  -9  -7   38.84    3.55
  10   9  -7   32.81    3.32
 -10   9   7   38.38    3.73
  10  -9  -6  158.08    6.97
  10   9  -6  146.51    6.62
 -10   9   6  158.80    7.21
  10  -9  -5    0.61    1.49
  10   9  -5    3.83    1.60
 -10   9   5    1.92    1.66
  10  -9  -4    3.42    1.66
  10   9  -4    6.61    1.99
 -10   9   4    1.69    1.54
  10  -9  -3    3.27    1.65
  10   9  -3    3.40    1.65
 -10   9   3    2.00    1.45
  10  -9  -2   95.77    5.57
  10   9  -2   89.35    5.13
 -10   9   2   96.43    5.50
  10  -9  -1    1.72    1.50
 -10   9   1    0.17    1.56
  10   9  -1    1.87    1.53
  10  -9   0  121.57    6.31
  10   9   0  127.15    6.25
 -10   9   0  134.97    6.52
  10  -9   1   24.02    3.03
  10   9   1   24.05    2.94
 -10   9  -1   21.98    2.74
 -10  -9  -1   21.38    2.72
  10  -9   2   32.83    3.48
  10   9   2   30.18    3.19
 -10   9  -2   32.90    3.50
 -10  -9  -2   33.79    3.31
  10   9   3    1.15    1.46
 -10   9  -3   -0.69    1.52
 -10  -9  -3   -1.34    1.46
 -10   9  -4   97.28    5.65
 -10  -9  -4   95.62    5.52
 -10   9  -5    4.08    1.73
 -10  -9  -5    2.31    1.59
 -10  -9  -6    2.49    1.60
  10 -10 -15    1.13    1.64
  10 -10 -14   35.89    3.37
  10 -10 -13   34.57    3.30
  10 -10 -12   28.73    3.07
  10  10 -12   25.63    3.07
  10 -10 -11   43.94    3.86
  10  10 -11   44.52    3.93
  10 -10 -10   45.24    3.86
  10  10 -10   40.55    3.70
  10 -10  -9   -2.18    1.75
  10  10  -9   -0.22    1.57
  10 -10  -8   55.44    4.26
  10  10  -8   47.94    3.92
  10 -10  -7   29.29    3.28
  10  10  -7   27.06    3.12
 -10  10   7   28.00    3.35
  10 -10  -6    2.46    1.83
  10  10  -6   -1.29    1.67
 -10  10   6    2.22    1.73
  10 -10  -5    1.36    1.70
  10  10  -5    0.79    1.61
 -10  10   5    2.40    1.67
  10 -10  -4  127.52    6.41
  10  10  -4  114.80    6.07
 -10  10   4  117.31    6.30
  10 -10  -3   80.99    5.23
  10  10  -3   74.49    4.90
 -10  10   3   86.20    5.33
  10 -10  -2   69.93    4.83
  10  10  -2   66.11    4.59
 -10  10   2   73.04    5.01
  10 -10  -1   19.81    2.81
 -10  10   1   15.07    2.42
  10  10  -1   20.53    2.79
  10  10   0   12.81    2.37
 -10  10   0   18.15    2.71
  10  10   1   40.13    3.69
 -10  10  -1   39.10    3.77
 -10 -10  -1   42.61    3.76
  10  10   2   57.55    4.40
 -10  10  -2   54.72    4.29
 -10 -10  -2   62.17    4.44
  10  10   3    8.61    2.17
 -10 -10  -3   11.46    2.36
 -10 -10  -4   14.47    2.41
  10  11  -9   35.40    3.59
  10  11  -8   48.10    4.08
  10  11  -7   67.61    4.71
  10  11  -6   80.73    5.16
  10  11  -5   36.23    3.60
  10  11  -4    8.09    1.86
  10  11  -3    0.03    1.53
  10  11  -2   78.42    5.18
  10  11  -1    8.83    2.24
  10  11   0    2.46    1.45
  10  11   1   21.78    3.02
 -11   0  17   -0.33    1.61
 -11   0  16   22.33    2.91
 -11   0  15   -0.11    1.60
 -11   0  14    0.64    1.42
 -11   0  13    2.56    1.53
 -11   0  12  140.19    6.23
 -11   0  11    1.22    1.37
 -11   0  10    1.43    1.33
 -11   0   9   -1.79    1.31
 -11   0   8    1.97    1.32
 -11   0   7   -0.91    1.34
 -11   0   6   84.19    4.49
 -11   0   5    0.41    1.15
 -11   0   4  146.50    5.73
 -11   0   3    1.68    1.23
 -11   0   2  123.82    5.15
 -11   0   1    1.93    1.46
 -11   0   0  129.55    5.24
 -11   0  -1   -2.63    1.28
 -11   0  -2   13.94    1.70
 -11   0  -2   12.59    1.64
 -11   0  -3   -0.10    1.20
 -11   0  -3   -0.81    1.20
 -11   0  -4  228.15    7.11
 -11   0  -4  224.24    7.10
 -11   0  -5    0.90    1.25
 -11   0  -6   18.07    2.34
 -11   0  -7    0.78    1.36
 -11   0  -8  320.54    9.47
 -11   0  -9   -0.92    1.44
 -11   0 -10    2.32    1.52
 -11   0 -11    2.05    1.79
 -11   1  16    0.22    1.59
 -11  -1  16    1.93    1.63
 -11   1  15    5.07    1.85
 -11  -1  15    2.90    1.69
 -11  -1  14   29.48    3.09
 -11   1  14   34.26    3.42
 -11  -1  13    4.63    1.83
 -11   1  13    5.65    1.87
 -11   1  12  243.38    8.48
 -11  -1  12  235.28    8.14
 -11  -1  11   28.62    2.91
 -11   1  11   23.85    2.82
 -11  -1  10   17.45    2.31
 -11   1  10   21.46    2.59
 -11  -1   9    7.15    1.66
 -11   1   9   13.10    2.07
 -11  -1   8   89.58    4.47
 -11   1   8   84.95    4.67
 -11  -1   7   11.87    1.83
 -11   1   7    8.23    1.74
 -11   1   6    3.51    1.47
 -11  -1   6    2.35    1.10
 -11  -1   5   69.76    3.86
 -11   1   5   62.24    3.87
 -11  -1   4  266.17    7.72
 -11   1   4  253.26    8.02
 -11  -1   3    1.42    1.05
 -11   1   3    3.75    1.56
 -11  -1   2   10.04    1.80
 -11  -1   2    6.52    1.32
 -11   1   2    6.53    1.80
 -11  -1   1    2.40    1.01
 -11   1   1    5.33    1.54
 -11  -1   1    5.05    1.27
 -11  -1   0   35.79    2.50
 -11  -1   0   35.36    2.65
 -11   1   0   37.86    2.98
 -11  -1  -1   28.50    2.29
 -11  -1  -1   29.20    2.36
 -11   1  -1   30.59    2.69
 -11  -1  -2   75.78    3.82
 -11   1  -2   66.95    3.87
 -11  -1  -2   73.11    3.73
 -11   1  -3    2.74    1.21
 -11  -1  -3    3.14    1.12
 -11   1  -4    2.84    1.16
 -11  -1  -4    2.40    1.18
 -11   1  -5   25.75    2.51
 -11  -1  -5   26.20    2.59
 -11   1  -6   18.66    2.22
 -11  -1  -6   15.30    2.20
 -11   1  -7   29.93    2.80
 -11  -1  -7   27.42    2.77
 -11  -1  -8    9.04    1.95
 -11  -1  -9   13.33    2.27
 -11  -1 -10    1.36    1.65
 -11  -1 -11   13.15    2.48
 -11  -2  15   73.59    4.68
 -11   2  15   80.47    5.12
 -11  -2  14   51.28    3.84
 -11   2  14   46.18    3.94
 -11   2  13   30.34    3.16
 -11  -2  13   29.55    2.91
 -11  -2  12   -0.21    1.25
 -11   2  12    0.56    1.39
 -11   2  11   39.67    3.43
 -11  -2  11   38.87    3.12
 -11  -2  10    2.83    1.41
 -11   2  10    2.34    1.57
 -11  -2   9   25.64    2.42
 -11   2   9   26.48    2.86
 -11  -2   8   11.28    1.80
 -11   2   8    6.42    1.64
  11   2  -7   89.52    4.08
 -11  -2   7   97.68    4.50
 -11   2   7   94.64    5.00
  11   2  -6   61.87    3.37
 -11  -2   6   61.36    3.52
 -11   2   6   60.64    4.00
  11   2  -5  116.04    4.68
 -11  -2   5  124.67    4.96
 -11  -2   5  121.09    4.61
 -11   2   5  120.12    5.49
  11   2  -4   35.51    2.61
 -11  -2   4   40.27    2.80
 -11  -2   4   42.41    2.72
 -11   2   4   34.12    2.91
 -11  -2   3   27.16    2.34
 -11  -2   3   24.96    2.24
 -11   2   3   23.33    2.46
 -11  -2   2    9.32    1.49
 -11   2   2    8.63    1.86
 -11  -2   2   12.28    1.61
 -11  -2   1   81.83    3.94
 -11   2   1   89.20    4.63
 -11  -2   1   93.97    4.05
 -11   2   0   10.55    1.94
 -11  -2   0    7.19    1.43
 -11  -2  -1    5.59    1.32
 -11   2  -1    3.34    1.41
 -11   2  -2    4.17    1.60
 -11  -2  -2    0.18    1.14
 -11   2  -3   28.72    2.68
 -11  -2  -3   26.80    2.47
 -11   2  -4   21.72    2.45
 -11  -2  -4   24.81    2.53
 -11   2  -5    1.17    1.37
 -11  -2  -5    0.46    1.21
 -11   2  -6   20.03    2.51
 -11  -2  -6   18.15    2.38
 -11   2  -7    0.82    1.19
 -11  -2  -7   -1.01    1.57
 -11   2  -8  137.87    6.10
 -11  -2  -8  145.60    6.37
 -11  -2  -9    9.44    2.16
 -11  -2 -10   -1.04    1.59
 -11  -2 -11    4.43    1.73
 -11   3  15    0.64    1.54
 -11   3  14    9.94    2.29
 -11   3  13    2.60    1.64
 -11  -3  13    1.70    1.43
 -11   3  12   11.10    2.27
 -11  -3  12    9.32    1.86
 -11   3  11   17.95    2.58
 -11  -3  11   17.01    2.17
  11   3 -10  108.09    4.80
 -11   3  10  102.65    5.44
 -11  -3  10  116.58    5.12
  11   3  -9    3.49    1.25
 -11  -3   9    5.18    1.59
 -11   3   9    1.12    1.44
  11   3  -8    5.59    1.45
 -11   3   8    1.71    1.57
 -11  -3   8    1.58    1.18
  11   3  -7   27.84    2.44
 -11   3   7   30.59    2.98
 -11  -3   7   28.64    2.40
  11   3  -6   18.64    2.12
 -11  -3   6   21.51    2.19
 -11   3   6   22.41    2.68
  11   3  -5    2.11    1.04
 -11  -3   5    2.49    1.14
 -11   3   5    3.16    1.63
 -11  -3   5    2.72    1.05
  11   3  -4   79.32    4.02
 -11   3   4   78.27    4.51
 -11  -3   4   84.57    4.03
  11   3  -3    2.22    1.27
 -11   3   3    3.34    1.54
 -11  -3   3    2.71    1.16
 -11  -3   2    1.63    1.04
 -11   3   2    0.13    1.25
 -11   3   1    6.78    1.84
 -11  -3   1    6.26    1.29
 -11   3   0   24.68    2.66
 -11  -3   0   25.23    2.34
 -11  -3  -1   93.54    4.50
 -11   3  -1   93.65    4.88
 -11  -3  -2   84.49    4.37
 -11   3  -2   73.97    4.34
 -11   3  -3   15.45    2.21
 -11  -3  -3   19.48    2.48
 -11   3  -4    3.39    1.46
 -11  -3  -4   -0.20    1.41
 -11  -3  -5   51.40    3.68
 -11   3  -5   61.35    4.04
 -11   3  -6   59.67    4.10
 -11  -3  -6   60.20    4.13
 -11   3  -7   94.78    5.11
 -11  -3  -7  102.62    5.38
 -11   3  -8    3.56    1.35
 -11  -3  -8    2.24    1.67
 -11   3  -9   88.66    5.04
 -11  -3  -9   95.87    5.41
 -11   3 -10   24.72    2.99
 -11  -3 -10   35.54    3.52
 -11   4  14   87.33    5.41
 -11   4  13    7.30    2.09
  11   4 -12   35.60    3.05
 -11   4  12   38.36    3.60
  11   4 -11   42.05    3.21
 -11   4  11   47.16    3.90
  11   4 -10    5.01    1.48
 -11   4  10    4.92    1.76
 -11  -4  10    7.13    1.47
  11   4  -9    3.52    1.28
 -11   4   9    2.23    1.55
  11   4  -8    6.50    1.50
 -11   4   8    4.65    1.86
  11   4  -7   18.96    2.17
 -11   4   7   18.33    2.58
  11   4  -6    7.48    1.61
 -11   4   6    6.70    1.88
  11   4  -5  133.90    5.45
 -11   4   5  128.54    5.98
  11   4  -4    0.76    1.13
 -11   4   4    0.45    1.43
 -11  -4   4   -0.19    0.97
  11   4  -3    4.84    1.43
 -11   4   3    8.00    1.84
 -11  -4   3    6.46    1.49
  11   4  -2   44.21    3.18
 -11  -4   2   38.22    2.88
 -11   4   2   39.40    3.32
 -11  -4   1  185.24    6.57
 -11   4   1  172.21    6.89
 -11   4   0    5.40    1.65
 -11  -4   0    5.25    1.40
 -11   4  -1    1.75    1.46
 -11  -4  -1    2.77    1.25
 -11   4  -2   -0.60    1.55
 -11  -4  -2    0.40    1.30
 -11  -4  -3  160.92    6.44
 -11   4  -3  162.94    6.81
 -11   4  -4    7.42    1.99
 -11  -4  -4   10.15    1.94
 -11   4  -5   26.91    3.08
 -11  -4  -5   28.56    2.90
 -11   4  -6    0.29    1.35
 -11  -4  -6    1.93    1.37
 -11   4  -7   85.06    4.94
 -11  -4  -7   84.19    4.94
 -11   4  -8   19.96    2.72
 -11  -4  -8   13.67    2.32
 -11   4  -9   52.02    4.07
 -11  -4  -9   60.92    4.46
 -11   4 -10    0.40    1.47
  11   5 -14   -0.48    1.39
  11   5 -13  125.49    5.85
 -11   5  13  129.99    6.68
  11  -5 -12   -0.45    1.36
  11   5 -12    0.62    1.45
 -11   5  12    2.12    1.75
  11  -5 -11   34.64    3.21
  11   5 -11   34.12    3.01
 -11   5  11   40.37    3.61
  11  -5 -10    1.68    1.53
  11   5 -10    0.85    1.44
 -11   5  10    0.97    1.40
  11  -5  -9  113.25    5.60
  11   5  -9  107.10    5.28
 -11   5   9  117.98    5.99
  11  -5  -8    1.44    1.46
  11   5  -8    1.47    1.55
 -11   5   8    1.99    1.65
  11   5  -7   28.00    2.77
 -11   5   7   26.40    3.03
  11   5  -6   -0.06    1.14
 -11   5   6    1.65    1.44
  11   5  -5   32.12    2.86
 -11   5   5   29.48    3.08
  11   5  -4   10.91    1.72
 -11   5   4   13.13    2.27
  11   5  -3    4.25    1.50
 -11  -5   3    1.84    1.27
 -11   5   3    2.44    1.53
  11   5  -2   11.04    1.96
 -11   5   2   10.52    2.11
 -11  -5   2    9.13    1.65
  11   5  -1   32.72    2.95
 -11   5   1   31.54    3.19
 -11  -5   1   33.04    2.88
 -11   5   0   30.83    3.09
 -11  -5   0   26.44    2.77
 -11   5  -1   33.74    3.21
 -11  -5  -1   30.01    2.91
 -11   5  -2    0.37    1.34
 -11  -5  -2   -2.20    1.48
 -11   5  -3    7.51    2.12
 -11  -5  -3    1.16    1.39
 -11   5  -4    3.07    1.79
 -11  -5  -4    3.05    1.56
 -11   5  -5    1.58    1.60
 -11  -5  -5    1.11    1.41
 -11   5  -6    2.01    1.69
 -11  -5  -6    0.21    1.48
 -11   5  -7   28.39    3.14
 -11  -5  -7   34.59    3.34
 -11   5  -8   -1.50    1.57
 -11  -5  -8   -0.73    1.64
 -11   5  -9    4.31    1.74
  11   6 -16    1.37    1.51
  11   6 -15   39.60    3.53
  11  -6 -14    0.81    1.41
  11   6 -14    2.27    1.54
  11  -6 -13   10.49    2.03
  11   6 -13   16.14    2.45
  11  -6 -12    3.35    1.57
  11   6 -12   -0.34    1.35
  11  -6 -11   22.02    2.73
  11   6 -11   17.43    2.35
 -11   6  11   26.93    3.25
  11  -6 -10   40.06    3.43
  11   6 -10   38.31    3.29
 -11   6  10   37.76    3.57
  11  -6  -9   10.14    1.97
  11   6  -9    9.41    1.99
 -11   6   9    9.66    2.06
  11  -6  -8   17.29    2.42
  11   6  -8   17.95    2.49
 -11   6   8   22.54    2.86
  11  -6  -7   31.50    3.22
  11   6  -7   28.20    2.97
 -11   6   7   27.73    3.03
  11  -6  -6   87.19    5.06
  11   6  -6   81.41    4.78
 -11   6   6   88.58    5.29
  11  -6  -5   81.72    4.98
  11   6  -5   74.88    4.45
 -11   6   5   88.23    5.17
  11  -6  -4    6.57    2.05
  11   6  -4    4.60    1.70
 -11   6   4    6.14    1.81
  11  -6  -3   -0.36    1.55
  11   6  -3   -1.17    1.57
 -11   6   3   -1.22    1.51
  11   6  -2    7.81    1.76
 -11   6   2    7.18    1.76
 -11  -6   2    7.51    1.62
  11   6  -1  128.85    5.91
 -11   6   1  134.05    6.34
 -11  -6   1  131.41    5.80
  11   6   0    0.65    1.35
 -11   6   0    1.50    1.39
 -11  -6   0   -0.91    1.23
 -11   6  -1    2.54    1.46
 -11  -6  -1    3.64    1.53
 -11   6  -2    3.80    1.91
 -11  -6  -2    2.12    1.34
 -11  -6  -3  118.20    5.80
 -11   6  -3  122.87    6.07
 -11   6  -4   43.93    3.73
 -11  -6  -4   39.37    3.56
 -11   6  -5   13.23    2.52
 -11  -6  -5   18.37    2.52
 -11   6  -6   -2.31    1.75
 -11  -6  -6   -0.15    1.82
 -11   6  -7   80.07    5.21
 -11  -6  -7   95.82    5.62
  11   7 -15    3.62    1.75
  11  -7 -14   14.37    2.36
  11   7 -14    5.64    1.87
  11  -7 -13  107.80    5.56
  11   7 -13   95.50    5.39
  11  -7 -12   -1.21    1.39
  11   7 -12   -0.37    1.46
  11  -7 -11   24.29    2.91
  11   7 -11   22.30    2.75
  11  -7 -10   -0.14    1.44
  11   7 -10    0.09    1.36
  11  -7  -9   39.12    3.50
  11   7  -9   38.86    3.45
 -11   7   9   40.57    3.83
  11  -7  -8   -0.93    1.46
  11   7  -8   -0.65    1.41
 -11   7   8    1.79    1.49
  11  -7  -7   31.53    3.32
  11   7  -7   29.05    2.99
 -11   7   7   31.67    3.46
  11  -7  -6   18.29    2.60
  11   7  -6   13.67    2.25
 -11   7   6   13.22    2.38
  11  -7  -5    8.02    2.14
  11   7  -5   11.38    2.06
 -11   7   5    8.05    2.17
  11  -7  -4   -0.32    1.47
  11   7  -4    1.50    1.48
 -11   7   4    0.28    1.60
  11  -7  -3   21.66    2.79
  11   7  -3   18.11    2.55
 -11   7   3   21.44    2.80
  11  -7  -2  141.11    6.77
  11   7  -2  139.89    6.32
 -11  -7   2  138.76    6.15
 -11   7   2  139.89    6.59
  11  -7  -1   12.17    2.53
  11   7  -1   14.11    2.25
 -11   7   1   10.52    2.19
 -11  -7   1    8.42    1.83
  11   7   0   32.63    3.15
 -11   7   0   39.69    3.63
 -11  -7   0   34.14    3.19
 -11  -7  -1   72.61    4.59
 -11   7  -1   67.25    4.62
 -11  -7  -2  103.35    5.47
 -11   7  -2  103.60    5.71
 -11   7  -3   19.10    2.74
 -11  -7  -3   15.58    2.55
 -11   7  -4   -0.07    1.49
 -11  -7  -4    2.27    1.96
 -11   7  -5    1.53    1.41
 -11  -7  -5    3.64    1.71
 -11  -7  -6   43.60    3.85
  11  -8 -14   34.80    3.37
  11   8 -14   26.90    3.20
  11  -8 -13    5.75    2.01
  11   8 -13    4.96    1.84
  11  -8 -12    8.38    1.93
  11   8 -12    5.94    1.82
  11  -8 -11   46.08    3.95
  11   8 -11   45.50    3.77
  11  -8 -10  119.55    6.05
  11   8 -10  111.09    5.86
  11  -8  -9   14.11    2.42
  11   8  -9   13.02    2.34
  11  -8  -8    3.30    1.86
  11   8  -8    4.29    1.85
  11  -8  -7    7.49    2.03
  11   8  -7   13.21    2.36
  11  -8  -6  188.78    7.86
  11   8  -6  177.04    7.35
 -11   8   6  181.39    7.84
  11  -8  -5    5.13    1.89
  11   8  -5    8.20    1.88
 -11   8   5   10.59    2.23
  11  -8  -4    1.71    1.89
  11   8  -4   -0.75    1.64
 -11   8   4   -1.02    2.04
  11   8  -3   22.95    2.80
 -11   8   3   20.86    2.93
  11   8  -2   23.42    2.95
 -11   8   2   24.93    3.08
  11   8  -1    4.50    1.87
 -11   8   1    2.40    1.71
 -11  -8   1    0.08    1.60
  11   8   0   -1.13    1.45
 -11   8   0    2.63    1.78
 -11  -8   0    1.82    1.51
  11   8   1   25.64    3.08
 -11   8  -1   26.65    3.19
 -11  -8  -1   29.67    3.14
 -11   8  -2   13.59    2.51
 -11  -8  -2    6.92    1.88
 -11  -8  -3    1.10    1.73
 -11  -8  -4   49.02    3.95
  11   9 -11   28.54    3.26
  11   9 -10   84.49    5.29
  11   9  -9    0.76    1.53
  11   9  -8  108.49    5.91
  11   9  -7   -0.28    1.51
  11   9  -6   -0.68    1.59
  11   9  -5   16.16    2.61
  11   9  -4   85.82    5.18
  11   9  -3    5.34    1.94
  11   9  -2   15.04    2.47
  11   9  -1    7.70    2.15
 -11  -9   1    3.00    1.51
  11   9   0    8.94    2.22
 -11  -9   0    5.00    1.67
  11   9   1   66.46    4.78
 -11  -9  -1   55.99    4.31
 -11  -9  -2   10.33    2.21
  11  10  -7    8.86    2.28
  11  10  -6   45.25    3.90
  11  10  -5    3.06    2.03
  11  10  -4   39.84    3.80
  11  10  -3    8.42    2.11
  11  10  -2   45.57    4.01
 -12   0  14   -0.73    1.57
 -12   0  13    0.49    1.47
 -12   0  12   34.95    3.38
 -12   0  11   -0.05    1.40
 -12   0  10   14.11    2.37
 -12   0   9   -2.70    1.56
 -12   0   8   10.80    1.97
 -12   0   7    0.23    1.28
 -12   0   6    7.96    1.91
 -12   0   5   -1.36    1.29
 -12   0   4   86.74    4.58
 -12   0   3    0.74    1.28
 -12  -1  15    3.32    1.68
 -12  -1  14   75.50    4.84
 -12   1  14   66.90    4.74
 -12  -1  13    2.80    1.53
 -12   1  13    2.94    1.65
 -12   1  12  117.48    6.00
 -12  -1  12  114.06    5.70
 -12  -1  11   13.45    2.28
 -12   1  11   12.56    2.17
 -12   1  10  147.99    6.61
 -12  -1  10  155.67    6.52
 -12  -1   9    8.40    1.90
 -12   1   9    9.96    2.08
 -12  -1   8   11.91    2.06
 -12   1   8   15.20    2.47
 -12  -1   7    1.62    1.40
 -12   1   7   -0.53    1.52
 -12  -1   6   79.34    4.29
 -12   1   6   81.48    4.62
 -12   1   5    2.78    1.33
 -12   1   4    8.90    2.00
 -12   1   3   10.21    1.91
 -12   1   2  198.06    7.14
 -12   1   1    0.07    1.32
 -12   1   0   23.12    2.57
 -12  -2  14   19.00    2.72
 -12   2  13  151.55    7.17
 -12  -2  13  153.57    6.69
 -12   2  12   99.05    5.62
 -12   2  11   -0.91    1.63
 -12   2  10    3.18    1.80
 -12   2   9   65.57    4.40
 -12   2   8   22.11    2.74
 -12   2   7   38.32    3.36
 -12   2   6    5.72    1.91
 -12   2   5   75.08    4.57
 -12   2   4  130.96    5.94
 -12   2   3   38.33    3.30
 -12   2   2    5.94    1.80
 -12   2   1   52.77    3.78
 -12   2   0   25.64    2.80
 -12   2  -1    7.75    1.74
 -12   2  -2    6.20    1.79
 -12   2  -3   20.72    2.51
 -12   3  12    6.72    2.08
 -12   3  11   57.52    4.44
 -12   3  10    2.11    1.66
 -12   3   9   52.37    4.13
 -12   3   8    1.63    1.41
 -12   3   7    0.39    1.66
 -12   3   6   -0.33    1.67
 -12   3   5   40.03    3.48
 -12   3   4   23.54    2.75
 -12   3   3   -0.11    1.46
 -12   3   2    4.13    1.63
 -12   3   1   30.09    2.98
 -12   3   0   76.77    4.65
 -12   3  -1   31.79    3.12
 -12   3  -2    1.15    1.35
 -12   3  -3   33.90    3.21
 -12   3  -4   58.54    4.07
 -12   3  -5   -2.97    1.87
 -12   4  10   -0.55    1.53
 -12   4   9   41.00    3.78
 -12   4   8    0.83    1.51
 -12   4   7   71.26    4.76
 -12   4   6   12.55    2.34
 -12   4   5   25.81    2.96
 -12   4   4   15.78    2.43
 -12   4   3   61.42    4.30
 -12   4   2    3.36    1.72
 -12   4   1    1.65    1.71
 -12   4   0    1.02    1.42
 -12   4  -1  107.45    5.68
 -12   4  -2   25.37    2.88
 -12   4  -3    4.05    1.58
 -12  -4  -3    5.69    1.71
 -12   4  -4   -1.55    1.47
 -12  -4  -4    0.01    1.63
 -12   4  -5   22.80    2.79
 -12  -4  -5   29.49    3.15
 -12   4  -6   26.04    3.03
 -12  -4  -6   31.72    3.33
 -12   5   8   20.85    2.87
 -12   5   7   15.56    2.59
 -12   5   6   19.75    2.68
 -12   5   5   16.81    2.61
 -12   5   4   10.07    2.18
 -12   5   3   92.90    5.49
 -12   5   2   16.75    2.91
 -12  -5   1   40.09    3.32
 -12   5   1   38.92    3.55
 -12  -5   0    0.89    1.24
 -12   5   0    2.01    1.75
 -12  -5  -1    0.72    1.29
 -12   5  -1   -0.73    1.83
 -12   5  -2    3.81    1.69
 -12  -5  -2    5.88    1.73
 -12   5  -3   43.95    3.81
 -12  -5  -3   45.15    3.75
 -12   5  -4    0.15    1.45
 -12  -5  -4    3.18    1.62
 -12   5  -5    6.61    2.05
 -12  -5  -5    2.88    1.90
  12   6  -6   51.91    3.85
  12   6  -5    0.67    1.37
 -12   6   5    4.13    2.02
  12   6  -4   46.83    3.65
 -12   6   4   48.34    4.06
 -12  -6   4   47.59    3.51
  12   6  -3   13.41    2.32
 -12   6   3   18.55    2.74
 -12  -6   3   20.14    2.45
  12   6  -2   -0.06    1.63
 -12  -6   2   -1.22    1.45
 -12   6   2   -3.52    1.90
 -12   6   1    2.27    1.74
 -12  -6   1   -1.09    1.46
 -12   6   0   28.31    3.13
 -12  -6   0   34.36    3.16
 -12  -6  -1   54.71    4.07
 -12   6  -1   62.36    4.57
 -12  -6  -2    1.42    1.34
 -12  -6  -3    6.54    1.66
 -12  -6  -4    3.31    1.79
  12   7  -9   -2.08    1.59
  12   7  -8   13.04    2.43
  12   7  -7    6.82    1.93
  12   7  -6   25.91    2.86
  12   7  -5    9.29    2.03
  12   7  -4   13.83    2.23
 -12  -7   4    9.09    1.90
  12   7  -3   -0.24    1.38
 -12  -7   3   -0.16    1.55
  12   7  -2    3.53    1.66
 -12  -7   2    1.63    1.44
  12   7  -1   21.61    2.75
 -12  -7   1   21.39    2.65
 -12  -7   0   60.80    4.33
 -12  -7  -1   23.84    2.99
 -12  -7  -2   -1.80    1.76
 -12  -7  -3   26.56    3.25
  12   8  -8   51.53    4.19
  12   8  -7   47.49    3.98
  12   8  -6    2.15    1.77
  12   8  -5   48.49    3.97
  12   8  -4   20.17    2.69
  12   8  -3    4.11    1.74
 -12  -8   3    4.77    1.70
  12   8  -2   35.14    3.49
 -12  -8   2   32.87    3.21
  12   8  -1    5.21    1.83
 -12  -8   1   -0.67    1.83
 -12  -8   0   20.22    2.84
 -13   2   8    5.18    2.00
 -13   2   7   38.21    3.61
 -13   2   6   40.27    3.60
 -13   3   7   19.26    2.80
 -13   3   6    3.94    1.97
 -13   3   5    0.45    1.56
 -13   3   4   42.28    3.78
 -13   3   3    8.04    2.02
   0   0   0    0.00    0.00


TITL pvl852_autored in P2(1)/c
REM P2(1)/c (#14 in standard setting)
CELL 0.71073   9.688384  15.700567  20.379873  90.0000  98.9755  90.0000
ZERR   35.00   0.000218   0.000359   0.000534   0.0000   0.0023   0.0000
LATT  1
SYMM -x, y+1/2,-z+1/2
SFAC C H N O S Zn
UNIT 35.00 35.00 35.00 35.00 35.00 35.00
REM  CrysAlisPro recorded range (K): Min=169.8; max=171.0; aver:170.4
TEMP -103
TREF
HKLF 4
END
_computing_structure_solution     'SHELXT 2018/2 (Sheldrick, 2018)'
;
_shelx_hkl_checksum   36923

