 
data_pvl1228_a
 
_audit_creation_method            'SHELXL-2018/3'
_shelx_SHELXL_version_number      '2018/3'
_chemical_name_systematic         ?
_chemical_name_common             ?
_chemical_melting_point           ?
_chemical_formula_moiety          ?
_chemical_formula_sum
 'C22 H19 N8 O6 S Zn' 
_chemical_formula_weight          588.88

loop_
 _atom_type_symbol
 _atom_type_description
 _atom_type_scat_dispersion_real
 _atom_type_scat_dispersion_imag
 _atom_type_scat_source
 'C'  'C'   0.0033   0.0016
 'International Tables Vol C Tables 4.2.6.8 and 6.1.1.4'
 'H'  'H'   0.0000   0.0000
 'International Tables Vol C Tables 4.2.6.8 and 6.1.1.4'
 'N'  'N'   0.0061   0.0033
 'International Tables Vol C Tables 4.2.6.8 and 6.1.1.4'
 'O'  'O'   0.0106   0.0060
 'International Tables Vol C Tables 4.2.6.8 and 6.1.1.4'
 'S'  'S'   0.1246   0.1234
 'International Tables Vol C Tables 4.2.6.8 and 6.1.1.4'
 'Zn'  'Zn'   0.2839   1.4301
 'International Tables Vol C Tables 4.2.6.8 and 6.1.1.4'
 
_space_group_crystal_system       triclinic
_space_group_IT_number            2
_space_group_name_H-M_alt         'P -1'
_space_group_name_Hall            '-P 1'
 
_shelx_space_group_comment
;
The symmetry employed for this shelxl refinement is uniquely defined
by the following loop, which should always be used as a source of
symmetry information in preference to the above space-group names.
They are only intended as comments.
;
 
loop_
 _space_group_symop_operation_xyz
 'x, y, z'
 '-x, -y, -z'
 
_cell_length_a                    10.3392(2)
_cell_length_b                    10.7697(2)
_cell_length_c                    10.9438(2)
_cell_angle_alpha                 79.8360(10)
_cell_angle_beta                  88.0050(10)
_cell_angle_gamma                 80.6650(10)
_cell_volume                      1183.56(4)
_cell_formula_units_Z             2
_cell_measurement_temperature     150(2)
_cell_measurement_reflns_used     ?
_cell_measurement_theta_min       ?
_cell_measurement_theta_max       ?
 
_exptl_crystal_description        ?
_exptl_crystal_colour             ?
_exptl_crystal_density_meas       ?
_exptl_crystal_density_method     ?
_exptl_crystal_density_diffrn     1.652          
_exptl_crystal_F_000              602
_exptl_transmission_factor_min    ?
_exptl_transmission_factor_max    ?
_exptl_crystal_size_max           ?
_exptl_crystal_size_mid           ?
_exptl_crystal_size_min           ?
_exptl_absorpt_coefficient_mu     1.184
_shelx_estimated_absorpt_T_min    ?
_shelx_estimated_absorpt_T_max    ?
_exptl_absorpt_correction_type    ?
_exptl_absorpt_correction_T_min   ?
_exptl_absorpt_correction_T_max   ?
_exptl_absorpt_process_details    ?
_exptl_absorpt_special_details    ?
_diffrn_ambient_temperature       150(2)
_diffrn_radiation_wavelength      0.71073
_diffrn_radiation_type            MoK\a
_diffrn_source                    ?
_diffrn_measurement_device_type   ?
_diffrn_measurement_method        ?
_diffrn_detector_area_resol_mean  ?
_diffrn_reflns_number             29468
_diffrn_reflns_av_unetI/netI      0.0706
_diffrn_reflns_av_R_equivalents   0.0605
_diffrn_reflns_limit_h_min        -15
_diffrn_reflns_limit_h_max        15
_diffrn_reflns_limit_k_min        -16
_diffrn_reflns_limit_k_max        16
_diffrn_reflns_limit_l_min        -13
_diffrn_reflns_limit_l_max        16
_diffrn_reflns_theta_min          1.996
_diffrn_reflns_theta_max          33.159
_diffrn_reflns_theta_full         25.242
_diffrn_measured_fraction_theta_max   0.998
_diffrn_measured_fraction_theta_full  1.000
_diffrn_reflns_Laue_measured_fraction_max    0.998
_diffrn_reflns_Laue_measured_fraction_full   1.000
_diffrn_reflns_point_group_measured_fraction_max   0.998
_diffrn_reflns_point_group_measured_fraction_full  1.000
_reflns_number_total              9027
_reflns_number_gt                 6366
_reflns_threshold_expression      'I > 2\s(I)'
_reflns_Friedel_coverage          0.000
_reflns_Friedel_fraction_max      .
_reflns_Friedel_fraction_full     .
 
_reflns_special_details
;
 Reflections were merged by SHELXL according to the crystal
 class for the calculation of statistics and refinement.
 
 _reflns_Friedel_fraction is defined as the number of unique
 Friedel pairs measured divided by the number that would be
 possible theoretically, ignoring centric projections and
 systematic absences.
;
 
_computing_data_collection        ?
_computing_cell_refinement        ?
_computing_data_reduction         ?
_computing_structure_solution     'SHELXT 2018/2 (Sheldrick, 2018)'
_computing_structure_refinement 'SHELXL-2018/3 (Sheldrick, 2018)'
_computing_molecular_graphics     ?
_computing_publication_material   ?
_refine_special_details           ?
_refine_ls_structure_factor_coef  Fsqd
_refine_ls_matrix_type            full
_refine_ls_weighting_scheme       calc
_refine_ls_weighting_details
'w=1/[\s^2^(Fo^2^)+(0.0527P)^2^] where P=(Fo^2^+2Fc^2^)/3'
_atom_sites_solution_primary      ?
_atom_sites_solution_secondary    ?
_atom_sites_solution_hydrogens    geom
_refine_ls_hydrogen_treatment     constr
_refine_ls_extinction_method      none
_refine_ls_extinction_coef        .
_refine_ls_number_reflns          9027
_refine_ls_number_parameters      345
_refine_ls_number_restraints      0
_refine_ls_R_factor_all           0.0801
_refine_ls_R_factor_gt            0.0529
_refine_ls_wR_factor_ref          0.1279
_refine_ls_wR_factor_gt           0.1167
_refine_ls_goodness_of_fit_ref    1.078
_refine_ls_restrained_S_all       1.078
_refine_ls_shift/su_max           0.001
_refine_ls_shift/su_mean          0.000
 
loop_
 _atom_site_label
 _atom_site_type_symbol
 _atom_site_fract_x
 _atom_site_fract_y
 _atom_site_fract_z
 _atom_site_U_iso_or_equiv
 _atom_site_adp_type
 _atom_site_occupancy
 _atom_site_site_symmetry_order  
 _atom_site_calc_flag
 _atom_site_refinement_flags_posn
 _atom_site_refinement_flags_adp
 _atom_site_refinement_flags_occupancy
 _atom_site_disorder_assembly
 _atom_site_disorder_group
Zn1 Zn 0.10074(2) 0.56014(2) 0.60807(2) 0.01693(7) Uani 1 1 d . . . . .
S1 S 0.45472(6) -0.20200(6) 0.76215(6) 0.02818(14) Uani 1 1 d . . . . .
O1 O 0.05191(15) 0.53154(16) 0.32663(16) 0.0270(4) Uani 1 1 d . . . . .
N1 N 0.8051(4) 0.0567(4) 0.8986(3) 0.0803(12) Uani 1 1 d . . . . .
N2 N 0.1434(2) 0.7098(2) 0.7764(2) 0.0339(5) Uani 1 1 d . . . . .
N3 N 0.96808(18) -0.27484(18) 0.54125(18) 0.0226(4) Uani 1 1 d . . . . .
N4 N 0.80821(17) -0.11196(17) 0.53320(18) 0.0212(4) Uani 1 1 d . . . . .
N5 N 0.38157(17) 0.22728(17) 0.69184(18) 0.0195(4) Uani 1 1 d . . . . .
N6 N 0.22427(17) 0.39351(17) 0.68072(18) 0.0206(4) Uani 1 1 d . . . . .
N7 N 0.58810(19) -0.20047(18) 0.6823(2) 0.0250(4) Uani 1 1 d . . . . .
N8 N 0.40428(18) -0.05100(18) 0.75498(19) 0.0242(4) Uani 1 1 d . . . . .
C1 C 0.1681(2) 0.5425(2) 0.3476(2) 0.0200(4) Uani 1 1 d . . . . .
C2 C 0.2661(2) 0.5309(2) 0.2441(2) 0.0192(4) Uani 1 1 d . . . . .
C3 C 0.3985(2) 0.5311(2) 0.2636(2) 0.0213(4) Uani 1 1 d . . . . .
H3 H 0.426647 0.539805 0.342938 0.026 Uiso 1 1 calc R U . . .
C4 C 0.4893(2) 0.5189(2) 0.1693(2) 0.0213(4) Uani 1 1 d . . . . .
H4 H 0.579145 0.518570 0.185000 0.026 Uiso 1 1 calc R U . . .
C5 C 0.4515(2) 0.5070(2) 0.0510(2) 0.0183(4) Uani 1 1 d . . . . .
C6 C 0.3185(2) 0.5071(3) 0.0335(2) 0.0315(6) Uani 1 1 d . . . . .
H6 H 0.289646 0.499303 -0.045843 0.038 Uiso 1 1 calc R U . . .
C7 C 0.2275(2) 0.5182(3) 0.1280(2) 0.0295(6) Uani 1 1 d . . . . .
H7 H 0.137790 0.517096 0.112982 0.035 Uiso 1 1 calc R U . . .
C8 C 0.6821(5) 0.1245(5) 0.9303(4) 0.0867(16) Uani 1 1 d . . . . .
H8A H 0.652555 0.194217 0.861897 0.130 Uiso 1 1 calc R U . . .
H8B H 0.691784 0.159901 1.005482 0.130 Uiso 1 1 calc R U . . .
H8C H 0.617500 0.066217 0.945390 0.130 Uiso 1 1 calc R U . . .
C9 C 0.9215(6) 0.1267(5) 0.8913(5) 0.107(2) Uani 1 1 d . . . . .
H9A H 1.002484 0.066297 0.885956 0.161 Uiso 1 1 calc R U . . .
H9B H 0.923537 0.165321 0.965672 0.161 Uiso 1 1 calc R U . . .
H9C H 0.913909 0.193722 0.817447 0.161 Uiso 1 1 calc R U . . .
C10 C 0.8240(8) -0.0631(6) 0.8829(5) 0.105(2) Uani 1 1 d . . . . .
H10 H 0.908715 -0.104486 0.863782 0.126 Uiso 1 1 calc R U . . .
C11 C 0.2218(2) 0.3196(2) 0.7972(2) 0.0226(5) Uani 1 1 d . . . . .
H11 H 0.161527 0.337977 0.861491 0.027 Uiso 1 1 calc R U . . .
C12 C 0.3183(2) 0.2167(2) 0.8062(2) 0.0230(5) Uani 1 1 d . . . . .
H12 H 0.338327 0.151161 0.876325 0.028 Uiso 1 1 calc R U . . .
C13 C 0.3210(2) 0.3351(2) 0.6196(2) 0.0194(4) Uani 1 1 d . . . . .
H13 H 0.344944 0.364560 0.536208 0.023 Uiso 1 1 calc R U . . .
C14 C 0.9756(2) -0.1932(2) 0.4304(2) 0.0300(6) Uani 1 1 d . . . . .
H14 H 1.040189 -0.205730 0.367941 0.036 Uiso 1 1 calc R U . . .
C15 C 0.8775(2) -0.0922(2) 0.4234(2) 0.0290(5) Uani 1 1 d . . . . .
H15 H 0.860093 -0.022394 0.356668 0.035 Uiso 1 1 calc R U . . .
C16 C 0.8668(2) -0.2234(2) 0.6022(2) 0.0214(4) Uani 1 1 d . . . . .
H16 H 0.838786 -0.258988 0.682496 0.026 Uiso 1 1 calc R U . . .
C17 C 0.7008(2) -0.0273(2) 0.5718(2) 0.0199(4) Uani 1 1 d . . . . .
C18 C 0.6933(2) 0.1022(2) 0.5392(2) 0.0225(4) Uani 1 1 d . . . . .
H18 H 0.759836 0.136181 0.488118 0.027 Uiso 1 1 calc R U . . .
C19 C 0.5873(2) 0.1869(2) 0.5805(2) 0.0229(5) Uani 1 1 d . . . . .
H19 H 0.585024 0.276466 0.556829 0.028 Uiso 1 1 calc R U . . .
C20 C 0.4895(2) 0.1432(2) 0.6528(2) 0.0194(4) Uani 1 1 d . . . . .
C21 C 0.4935(2) 0.0092(2) 0.6875(2) 0.0196(4) Uani 1 1 d . . . . .
C22 C 0.5996(2) -0.0771(2) 0.6454(2) 0.0189(4) Uani 1 1 d . . . . .
O2 O 0.20789(15) 0.56378(16) 0.44801(15) 0.0259(4) Uani 1 1 d . . . . .
O3 O 0.20951(18) 0.68011(18) 0.68274(18) 0.0343(4) Uani 1 1 d . . . . .
O4 O 0.1625(2) 0.8037(3) 0.8178(2) 0.0592(7) Uani 1 1 d . . . . .
O5 O 0.0602(2) 0.6428(2) 0.8195(2) 0.0582(7) Uani 1 1 d . . . . .
O6 O 0.7286(6) -0.1210(4) 0.8939(4) 0.139(2) Uani 1 1 d . . . . .
 
loop_
 _atom_site_aniso_label
 _atom_site_aniso_U_11
 _atom_site_aniso_U_22
 _atom_site_aniso_U_33
 _atom_site_aniso_U_23
 _atom_site_aniso_U_13
 _atom_site_aniso_U_12
Zn1 0.01260(11) 0.01679(12) 0.02022(13) -0.00480(9) 0.00243(9) 0.00236(9)
S1 0.0234(3) 0.0156(3) 0.0432(4) -0.0015(2) 0.0057(3) -0.0015(2)
O1 0.0163(7) 0.0293(9) 0.0320(9) -0.0012(7) 0.0082(7) 0.0004(7)
N1 0.125(3) 0.065(2) 0.0436(19) -0.0148(17) -0.003(2) 0.014(2)
N2 0.0340(12) 0.0351(12) 0.0348(13) -0.0031(10) -0.0085(10) -0.0133(10)
N3 0.0192(8) 0.0221(9) 0.0235(10) -0.0047(8) 0.0007(7) 0.0055(7)
N4 0.0176(8) 0.0174(9) 0.0262(10) -0.0042(7) 0.0011(7) 0.0045(7)
N5 0.0160(8) 0.0149(8) 0.0262(10) -0.0034(7) 0.0015(7) 0.0013(7)
N6 0.0141(8) 0.0175(9) 0.0302(10) -0.0064(7) 0.0016(7) -0.0004(7)
N7 0.0204(9) 0.0178(9) 0.0364(12) -0.0062(8) 0.0008(8) -0.0006(7)
N8 0.0208(9) 0.0171(9) 0.0328(11) -0.0028(8) 0.0018(8) 0.0005(7)
C1 0.0198(10) 0.0157(9) 0.0203(10) 0.0003(8) 0.0053(8) 0.0044(8)
C2 0.0173(9) 0.0163(9) 0.0224(10) -0.0031(8) 0.0048(8) 0.0005(8)
C3 0.0197(10) 0.0249(11) 0.0215(11) -0.0103(9) 0.0052(8) -0.0044(8)
C4 0.0144(9) 0.0265(11) 0.0251(11) -0.0095(9) 0.0052(8) -0.0055(8)
C5 0.0165(9) 0.0189(10) 0.0192(10) -0.0048(8) 0.0039(8) -0.0008(8)
C6 0.0163(10) 0.0578(18) 0.0218(12) -0.0135(12) 0.0038(9) -0.0034(11)
C7 0.0149(10) 0.0478(16) 0.0264(12) -0.0111(11) 0.0043(9) -0.0023(10)
C8 0.104(4) 0.110(4) 0.034(2) -0.009(2) -0.018(2) 0.020(3)
C9 0.141(5) 0.094(4) 0.080(4) -0.009(3) 0.048(4) -0.018(4)
C10 0.165(6) 0.082(4) 0.070(3) -0.037(3) -0.031(4) 0.007(4)
C11 0.0195(10) 0.0215(11) 0.0257(12) -0.0046(9) 0.0043(9) -0.0006(8)
C12 0.0231(10) 0.0185(10) 0.0255(11) -0.0013(8) 0.0026(9) -0.0012(8)
C13 0.0150(9) 0.0162(9) 0.0265(11) -0.0047(8) 0.0009(8) 0.0001(7)
C14 0.0278(12) 0.0296(13) 0.0265(12) -0.0026(10) 0.0060(10) 0.0096(10)
C15 0.0270(12) 0.0265(12) 0.0279(12) -0.0014(10) 0.0040(10) 0.0078(10)
C16 0.0189(10) 0.0176(10) 0.0254(11) -0.0037(8) 0.0004(8) 0.0035(8)
C17 0.0142(9) 0.0179(10) 0.0261(11) -0.0053(8) -0.0003(8) 0.0036(8)
C18 0.0192(10) 0.0179(10) 0.0284(12) -0.0024(9) 0.0038(9) 0.0001(8)
C19 0.0203(10) 0.0146(9) 0.0320(12) -0.0033(9) 0.0013(9) 0.0017(8)
C20 0.0171(9) 0.0153(9) 0.0246(11) -0.0048(8) -0.0017(8) 0.0025(8)
C21 0.0140(9) 0.0176(10) 0.0259(11) -0.0038(8) -0.0008(8) 0.0018(8)
C22 0.0153(9) 0.0145(9) 0.0255(11) -0.0031(8) -0.0027(8) 0.0019(7)
O2 0.0227(8) 0.0311(9) 0.0202(8) -0.0050(7) 0.0071(6) 0.0060(7)
O3 0.0300(9) 0.0312(10) 0.0446(11) -0.0178(9) -0.0035(8) -0.0005(8)
O4 0.0497(13) 0.0803(18) 0.0684(16) -0.0537(15) 0.0182(12) -0.0313(13)
O5 0.0458(13) 0.0714(17) 0.0552(15) 0.0230(12) -0.0140(11) -0.0364(12)
O6 0.218(6) 0.096(3) 0.107(3) -0.021(3) -0.087(4) -0.016(3)
 
_geom_special_details
;
 All esds (except the esd in the dihedral angle between two l.s. planes)
 are estimated using the full covariance matrix.  The cell esds are taken
 into account individually in the estimation of esds in distances, angles
 and torsion angles; correlations between esds in cell parameters are only
 used when they are defined by crystal symmetry.  An approximate (isotropic)
 treatment of cell esds is used for estimating esds involving l.s. planes.
;
 
loop_
 _geom_bond_atom_site_label_1
 _geom_bond_atom_site_label_2
 _geom_bond_distance
 _geom_bond_site_symmetry_2
 _geom_bond_publ_flag
Zn1 O2 2.0376(15) . ?
Zn1 O1 2.0382(17) 2_566 ?
Zn1 N6 2.0753(18) . ?
Zn1 N3 2.0964(18) 1_465 ?
Zn1 O3 2.1236(19) . ?
S1 N7 1.607(2) . ?
S1 N8 1.6141(19) . ?
O1 C1 1.259(3) . ?
N1 C10 1.314(6) . ?
N1 C8 1.424(5) . ?
N1 C9 1.514(6) . ?
N2 O4 1.224(3) . ?
N2 O5 1.239(3) . ?
N2 O3 1.271(3) . ?
N3 C16 1.320(3) . ?
N3 C14 1.375(3) . ?
N4 C16 1.361(3) . ?
N4 C15 1.379(3) . ?
N4 C17 1.420(2) . ?
N5 C13 1.357(3) . ?
N5 C12 1.387(3) . ?
N5 C20 1.422(2) . ?
N6 C13 1.319(3) . ?
N6 C11 1.380(3) . ?
N7 C22 1.342(3) . ?
N8 C21 1.339(3) . ?
C1 O2 1.257(3) . ?
C1 C2 1.501(3) . ?
C2 C7 1.381(3) . ?
C2 C3 1.393(3) . ?
C3 C4 1.380(3) . ?
C3 H3 0.9500 . ?
C4 C5 1.397(3) . ?
C4 H4 0.9500 . ?
C5 C6 1.395(3) . ?
C5 C5 1.486(4) 2_665 ?
C6 C7 1.381(3) . ?
C6 H6 0.9500 . ?
C7 H7 0.9500 . ?
C8 H8A 0.9800 . ?
C8 H8B 0.9800 . ?
C8 H8C 0.9800 . ?
C9 H9A 0.9800 . ?
C9 H9B 0.9800 . ?
C9 H9C 0.9800 . ?
C10 O6 1.242(7) . ?
C10 H10 0.9500 . ?
C11 C12 1.357(3) . ?
C11 H11 0.9500 . ?
C12 H12 0.9500 . ?
C13 H13 0.9500 . ?
C14 C15 1.355(3) . ?
C14 H14 0.9500 . ?
C15 H15 0.9500 . ?
C16 H16 0.9500 . ?
C17 C18 1.368(3) . ?
C17 C22 1.415(3) . ?
C18 C19 1.423(3) . ?
C18 H18 0.9500 . ?
C19 C20 1.356(3) . ?
C19 H19 0.9500 . ?
C20 C21 1.421(3) . ?
C21 C22 1.437(3) . ?
 
loop_
 _geom_angle_atom_site_label_1
 _geom_angle_atom_site_label_2
 _geom_angle_atom_site_label_3
 _geom_angle
 _geom_angle_site_symmetry_1
 _geom_angle_site_symmetry_3
 _geom_angle_publ_flag
O2 Zn1 O1 132.25(8) . 2_566 ?
O2 Zn1 N6 87.96(7) . . ?
O1 Zn1 N6 87.26(7) 2_566 . ?
O2 Zn1 N3 94.80(7) . 1_465 ?
O1 Zn1 N3 89.87(7) 2_566 1_465 ?
N6 Zn1 N3 176.92(7) . 1_465 ?
O2 Zn1 O3 94.32(8) . . ?
O1 Zn1 O3 133.40(7) 2_566 . ?
N6 Zn1 O3 93.93(7) . . ?
N3 Zn1 O3 87.24(7) 1_465 . ?
N7 S1 N8 101.12(10) . . ?
C1 O1 Zn1 144.12(16) . 2_566 ?
C10 N1 C8 124.3(6) . . ?
C10 N1 C9 119.0(5) . . ?
C8 N1 C9 116.6(4) . . ?
O4 N2 O5 123.4(3) . . ?
O4 N2 O3 119.0(2) . . ?
O5 N2 O3 117.6(3) . . ?
C16 N3 C14 106.49(18) . . ?
C16 N3 Zn1 126.37(16) . 1_645 ?
C14 N3 Zn1 126.92(14) . 1_645 ?
C16 N4 C15 107.69(17) . . ?
C16 N4 C17 125.75(19) . . ?
C15 N4 C17 126.42(19) . . ?
C13 N5 C12 107.32(17) . . ?
C13 N5 C20 124.51(19) . . ?
C12 N5 C20 128.17(19) . . ?
C13 N6 C11 106.12(18) . . ?
C13 N6 Zn1 125.10(16) . . ?
C11 N6 Zn1 128.76(14) . . ?
C22 N7 S1 106.36(14) . . ?
C21 N8 S1 106.36(14) . . ?
O2 C1 O1 125.0(2) . . ?
O2 C1 C2 117.6(2) . . ?
O1 C1 C2 117.4(2) . . ?
C7 C2 C3 118.4(2) . . ?
C7 C2 C1 120.9(2) . . ?
C3 C2 C1 120.7(2) . . ?
C4 C3 C2 120.9(2) . . ?
C4 C3 H3 119.5 . . ?
C2 C3 H3 119.5 . . ?
C3 C4 C5 121.2(2) . . ?
C3 C4 H4 119.4 . . ?
C5 C4 H4 119.4 . . ?
C6 C5 C4 116.9(2) . . ?
C6 C5 C5 121.4(3) . 2_665 ?
C4 C5 C5 121.7(2) . 2_665 ?
C7 C6 C5 122.0(2) . . ?
C7 C6 H6 119.0 . . ?
C5 C6 H6 119.0 . . ?
C2 C7 C6 120.4(2) . . ?
C2 C7 H7 119.8 . . ?
C6 C7 H7 119.8 . . ?
N1 C8 H8A 109.5 . . ?
N1 C8 H8B 109.5 . . ?
H8A C8 H8B 109.5 . . ?
N1 C8 H8C 109.5 . . ?
H8A C8 H8C 109.5 . . ?
H8B C8 H8C 109.5 . . ?
N1 C9 H9A 109.5 . . ?
N1 C9 H9B 109.5 . . ?
H9A C9 H9B 109.5 . . ?
N1 C9 H9C 109.5 . . ?
H9A C9 H9C 109.5 . . ?
H9B C9 H9C 109.5 . . ?
O6 C10 N1 118.4(7) . . ?
O6 C10 H10 120.8 . . ?
N1 C10 H10 120.8 . . ?
C12 C11 N6 110.00(19) . . ?
C12 C11 H11 125.0 . . ?
N6 C11 H11 125.0 . . ?
C11 C12 N5 105.7(2) . . ?
C11 C12 H12 127.2 . . ?
N5 C12 H12 127.2 . . ?
N6 C13 N5 110.9(2) . . ?
N6 C13 H13 124.6 . . ?
N5 C13 H13 124.6 . . ?
C15 C14 N3 110.0(2) . . ?
C15 C14 H14 125.0 . . ?
N3 C14 H14 125.0 . . ?
C14 C15 N4 105.7(2) . . ?
C14 C15 H15 127.2 . . ?
N4 C15 H15 127.2 . . ?
N3 C16 N4 110.1(2) . . ?
N3 C16 H16 124.9 . . ?
N4 C16 H16 124.9 . . ?
C18 C17 C22 119.10(18) . . ?
C18 C17 N4 121.1(2) . . ?
C22 C17 N4 119.8(2) . . ?
C17 C18 C19 121.0(2) . . ?
C17 C18 H18 119.5 . . ?
C19 C18 H18 119.5 . . ?
C20 C19 C18 121.7(2) . . ?
C20 C19 H19 119.1 . . ?
C18 C19 H19 119.1 . . ?
C19 C20 C21 118.72(18) . . ?
C19 C20 N5 122.0(2) . . ?
C21 C20 N5 119.2(2) . . ?
N8 C21 C20 127.03(18) . . ?
N8 C21 C22 112.98(19) . . ?
C20 C21 C22 120.0(2) . . ?
N7 C22 C17 127.39(19) . . ?
N7 C22 C21 113.2(2) . . ?
C17 C22 C21 119.4(2) . . ?
C1 O2 Zn1 124.80(16) . . ?
N2 O3 Zn1 104.97(16) . . ?
 
_refine_diff_density_max    1.072
_refine_diff_density_min   -0.649
_refine_diff_density_rms    0.102

_shelx_res_file
;
TITL pvl1228_a.res in P-1
    pvl1228_a.res
    created by SHELXL-2018/3 at 12:06:52 on 12-Sep-2023

CELL  0.71073  10.3392  10.7697  10.9438   79.836   88.005   80.665
ZERR   2   0.0002   0.0002   0.0002    0.001    0.001    0.001
LATT  1
SFAC C H N O S ZN
UNIT 44 38 16 12 2 2
ACTA
TEMP -123

L.S. 10
BOND $H
LIST 4
OMIT 0

FMAP 2
PLAN 20
WGHT    0.052700
FVAR       0.51552
ZN1   6    0.100742    0.560140    0.608072    11.00000    0.01260    0.01679 =
         0.02022   -0.00480    0.00243    0.00236
S1    5    0.454722   -0.201998    0.762151    11.00000    0.02343    0.01559 =
         0.04320   -0.00148    0.00571   -0.00149
O1    4    0.051908    0.531538    0.326627    11.00000    0.01631    0.02934 =
         0.03200   -0.00120    0.00817    0.00040
N1    3    0.805058    0.056659    0.898563    11.00000    0.12457    0.06512 =
         0.04357   -0.01477   -0.00336    0.01433
N2    3    0.143376    0.709820    0.776395    11.00000    0.03403    0.03510 =
         0.03478   -0.00315   -0.00849   -0.01326
N3    3    0.968077   -0.274841    0.541251    11.00000    0.01924    0.02211 =
         0.02352   -0.00466    0.00072    0.00555
N4    3    0.808210   -0.111964    0.533199    11.00000    0.01759    0.01743 =
         0.02617   -0.00424    0.00105    0.00453
N5    3    0.381574    0.227275    0.691840    11.00000    0.01600    0.01490 =
         0.02617   -0.00336    0.00152    0.00131
N6    3    0.224266    0.393514    0.680716    11.00000    0.01406    0.01745 =
         0.03021   -0.00642    0.00157   -0.00040
N7    3    0.588097   -0.200471    0.682348    11.00000    0.02038    0.01781 =
         0.03642   -0.00620    0.00081   -0.00063
N8    3    0.404279   -0.050998    0.754980    11.00000    0.02080    0.01714 =
         0.03278   -0.00285    0.00183    0.00053
C1    1    0.168090    0.542539    0.347643    11.00000    0.01977    0.01574 =
         0.02031    0.00032    0.00534    0.00445
C2    1    0.266070    0.530940    0.244148    11.00000    0.01733    0.01628 =
         0.02239   -0.00311    0.00482    0.00048
C3    1    0.398461    0.531132    0.263604    11.00000    0.01975    0.02495 =
         0.02148   -0.01025    0.00520   -0.00436
AFIX  43
H3    2    0.426647    0.539805    0.342938    11.00000   -1.20000
AFIX   0
C4    1    0.489296    0.518901    0.169262    11.00000    0.01442    0.02648 =
         0.02512   -0.00950    0.00521   -0.00550
AFIX  43
H4    2    0.579145    0.518570    0.185000    11.00000   -1.20000
AFIX   0
C5    1    0.451530    0.506998    0.051040    11.00000    0.01654    0.01889 =
         0.01917   -0.00476    0.00387   -0.00078
C6    1    0.318530    0.507108    0.033516    11.00000    0.01633    0.05777 =
         0.02181   -0.01347    0.00377   -0.00336
AFIX  43
H6    2    0.289646    0.499303   -0.045843    11.00000   -1.20000
AFIX   0
C7    1    0.227506    0.518216    0.127995    11.00000    0.01493    0.04776 =
         0.02636   -0.01108    0.00425   -0.00232
AFIX  43
H7    2    0.137790    0.517096    0.112982    11.00000   -1.20000
AFIX   0
C8    1    0.682144    0.124540    0.930308    11.00000    0.10355    0.11015 =
         0.03396   -0.00872   -0.01774    0.01975
AFIX 137
H8A   2    0.652555    0.194217    0.861897    11.00000   -1.50000
H8B   2    0.691784    0.159901    1.005482    11.00000   -1.50000
H8C   2    0.617500    0.066217    0.945390    11.00000   -1.50000
AFIX   0
C9    1    0.921511    0.126671    0.891266    11.00000    0.14137    0.09405 =
         0.07989   -0.00910    0.04838   -0.01756
AFIX 137
H9A   2    1.002484    0.066297    0.885956    11.00000   -1.50000
H9B   2    0.923537    0.165321    0.965672    11.00000   -1.50000
H9C   2    0.913909    0.193722    0.817447    11.00000   -1.50000
AFIX   0
C10   1    0.824036   -0.063141    0.882950    11.00000    0.16520    0.08244 =
         0.06965   -0.03712   -0.03120    0.00738
AFIX  43
H10   2    0.908715   -0.104486    0.863782    11.00000   -1.20000
AFIX   0
C11   1    0.221849    0.319572    0.797159    11.00000    0.01949    0.02155 =
         0.02572   -0.00462    0.00427   -0.00057
AFIX  43
H11   2    0.161527    0.337977    0.861491    11.00000   -1.20000
AFIX   0
C12   1    0.318291    0.216739    0.806233    11.00000    0.02313    0.01848 =
         0.02546   -0.00133    0.00265   -0.00117
AFIX  43
H12   2    0.338327    0.151161    0.876325    11.00000   -1.20000
AFIX   0
C13   1    0.320974    0.335088    0.619596    11.00000    0.01500    0.01624 =
         0.02651   -0.00472    0.00089    0.00008
AFIX  43
H13   2    0.344944    0.364560    0.536208    11.00000   -1.20000
AFIX   0
C14   1    0.975646   -0.193196    0.430410    11.00000    0.02782    0.02965 =
         0.02649   -0.00264    0.00600    0.00956
AFIX  43
H14   2    1.040189   -0.205730    0.367941    11.00000   -1.20000
AFIX   0
C15   1    0.877530   -0.092239    0.423366    11.00000    0.02696    0.02648 =
         0.02793   -0.00141    0.00401    0.00783
AFIX  43
H15   2    0.860093   -0.022394    0.356668    11.00000   -1.20000
AFIX   0
C16   1    0.866770   -0.223410    0.602180    11.00000    0.01892    0.01763 =
         0.02541   -0.00366    0.00045    0.00349
AFIX  43
H16   2    0.838786   -0.258988    0.682496    11.00000   -1.20000
AFIX   0
C17   1    0.700804   -0.027349    0.571817    11.00000    0.01425    0.01790 =
         0.02612   -0.00526   -0.00035    0.00358
C18   1    0.693265    0.102230    0.539183    11.00000    0.01920    0.01793 =
         0.02839   -0.00244    0.00376    0.00010
AFIX  43
H18   2    0.759836    0.136181    0.488118    11.00000   -1.20000
AFIX   0
C19   1    0.587294    0.186927    0.580522    11.00000    0.02032    0.01459 =
         0.03199   -0.00335    0.00129    0.00175
AFIX  43
H19   2    0.585024    0.276466    0.556829    11.00000   -1.20000
AFIX   0
C20   1    0.489465    0.143236    0.652833    11.00000    0.01707    0.01530 =
         0.02461   -0.00479   -0.00168    0.00250
C21   1    0.493526    0.009174    0.687513    11.00000    0.01397    0.01762 =
         0.02592   -0.00379   -0.00084    0.00179
C22   1    0.599596   -0.077136    0.645422    11.00000    0.01530    0.01454 =
         0.02547   -0.00306   -0.00267    0.00191
O2    4    0.207893    0.563783    0.448012    11.00000    0.02271    0.03107 =
         0.02016   -0.00501    0.00708    0.00598
O3    4    0.209511    0.680105    0.682735    11.00000    0.03001    0.03119 =
         0.04458   -0.01779   -0.00350   -0.00052
O4    4    0.162527    0.803686    0.817806    11.00000    0.04971    0.08028 =
         0.06845   -0.05371    0.01817   -0.03129
O5    4    0.060235    0.642777    0.819483    11.00000    0.04576    0.07137 =
         0.05520    0.02303   -0.01398   -0.03641
O6    4    0.728596   -0.121005    0.893858    11.00000    0.21766    0.09638 =
         0.10711   -0.02148   -0.08713   -0.01605
HKLF 4




REM  pvl1228_a.res in P-1
REM wR2 = 0.1279, GooF = S = 1.078, Restrained GooF = 1.078 for all data
REM R1 = 0.0529 for 6366 Fo > 4sig(Fo) and 0.0801 for all 9027 data
REM 345 parameters refined using 0 restraints

END

WGHT      0.0534      0.0000

REM Highest difference peak  1.072,  deepest hole -0.649,  1-sigma level  0.102
Q1    1   0.5874  0.0096  0.9516  11.00000  0.05    1.07
Q2    1   0.6772  0.0351  0.5368  11.00000  0.05    0.48
Q3    1   0.6445 -0.0417  0.6024  11.00000  0.05    0.47
Q4    1   0.8323 -0.1055  0.4651  11.00000  0.05    0.47
Q5    1   0.4757  0.4813  0.1230  11.00000  0.05    0.47
Q6    1   0.5535 -0.0399  0.6734  11.00000  0.05    0.46
Q7    1   0.2609  0.2525  0.8037  11.00000  0.05    0.44
Q8    1   0.9240 -0.1372  0.4357  11.00000  0.05    0.44
Q9    1   0.4613  0.5161  0.1096  11.00000  0.05    0.43
Q10   1   0.0829  0.6248  0.8918  11.00000  0.05    0.42
Q11   1   0.4774  0.5726  0.1403  11.00000  0.05    0.41
Q12   1   0.8242 -0.1735  0.5682  11.00000  0.05    0.41
Q13   1   0.9035 -0.2588  0.5658  11.00000  0.05    0.41
Q14   1   0.6191 -0.1746  0.6598  11.00000  0.05    0.41
Q15   1   0.0843  0.6168  0.8175  11.00000  0.05    0.40
Q16   1   0.4834  0.0737  0.6642  11.00000  0.05    0.40
Q17   1   0.2414  0.3591  0.6386  11.00000  0.05    0.40
Q18   1   0.2650  0.5056  0.2004  11.00000  0.05    0.38
Q19   1   0.3471  0.2279  0.7460  11.00000  0.05    0.38
Q20   1   0.2680  0.5444  0.0689  11.00000  0.05    0.38
;
_shelx_res_checksum   14592

_shelx_hkl_file
;
  -1   0   0   34.40    2.10
  -1   0   0   36.50    2.10
  -1   0   0   34.20    2.20
  -1   0   0   36.50    2.10
  -2   0   0   22.10    2.70
  -2   0   0   23.90    2.50
  -2   0   0   22.20    2.50
  -2   0   0   20.30    2.50
   2   0   0   22.70    2.50
   2   0   0   17.60    2.30
   2   0   0   19.90    2.40
   2   0   0   24.60    2.50
  -3   0   0  957.20   30.00
  -3   0   0  943.71   30.60
  -3   0   0  944.71   30.20
  -3   0   0  960.20   29.70
   3   0   0  954.00   30.50
   3   0   0  978.90   30.00
   3   0   0  986.10   30.50
   3   0   0  961.80   29.90
  -4   0   0  172.18    9.20
  -4   0   0  179.18    9.60
  -4   0   0  154.28    9.30
  -4   0   0  167.18    8.90
   4   0   0  156.08    8.90
   4   0   0  158.58    9.30
   4   0   0  154.88    9.10
   4   0   0  162.68    9.00
  -5   0   0   51.19    5.50
  -5   0   0   43.50    5.00
  -5   0   0   61.49    6.30
   5   0   0   43.90    5.00
   5   0   0   44.30    5.80
   5   0   0   47.50    5.40
   5   0   0   55.49    5.80
   5   0   0   43.80    5.00
  -6   0   0  158.48   10.90
  -6   0   0  179.48   10.70
  -6   0   0  166.48   11.50
   6   0   0  167.98   10.80
   6   0   0  166.78   10.70
   6   0   0  148.89   12.40
   6   0   0  159.98   11.00
   6   0   0  167.28   12.10
  -7   0   0   42.00    6.00
  -7   0   0   38.40    7.80
  -7   0   0   33.40    5.00
   7   0   0   38.20    7.70
   7   0   0   32.90    7.30
   7   0   0   25.70    5.80
   7   0   0   26.10    5.70
  -8   0   0   40.10    8.00
  -8   0   0   24.60    6.30
  -8   0   0   33.10    6.50
   8   0   0   24.00    5.80
   8   0   0   31.00    7.30
   8   0   0   21.00    5.20
  -9   0   0  130.49   12.90
  -9   0   0  120.89   11.40
  -9   0   0  132.89   10.80
   9   0   0  118.29   12.80
 -10   0   0  297.87   19.40
 -10   0   0  279.77   20.00
  10   0   0  325.77   22.60
  10   0   0  265.37   18.20
 -11   0   0   17.70    7.70
 -11   0   0   17.70    6.40
  11   0   0   22.00    7.90
  11   0   0   36.10    9.00
 -12   0   0   12.50    7.00
 -12   0   0    4.70    4.80
  12   0   0   -2.60    2.80
  12   0   0    4.70    4.40
 -13   0   0    0.20    3.20
  13   0   0   -0.50    3.00
  13   0   0    2.70    4.90
 -14   0   0   75.79   12.10
  14   0   0   60.09   13.90
  14   0   0   97.09   12.80
  15   0   0   24.90   10.80
  15   0   0   22.40    8.50
  15  -1   0   15.30    8.70
  14  -1   0    5.50    4.90
  14  -1   0   13.80    7.90
 -14   1   0   10.90    5.90
 -14   1   0   14.10    7.90
  13  -1   0    2.10    4.50
  13  -1   0    3.80    3.90
 -13   1   0    3.10    5.10
 -13   1   0    5.40    4.70
  12  -1   0   43.10    9.40
  12  -1   0   26.20    8.50
 -12   1   0   46.90   10.00
 -12   1   0   39.60   11.00
  11  -1   0   11.80    6.40
  11  -1   0    9.90    5.20
 -11   1   0    9.00    6.20
 -11   1   0   19.20    6.60
  10  -1   0    5.80    4.50
  10  -1   0    9.90    4.60
 -10   1   0    2.70    4.20
 -10   1   0   15.40    5.60
   9  -1   0   91.79   11.30
   9  -1   0  103.99    9.70
   9  -1   0   87.39    9.30
  -9   1   0  137.39   25.20
  -9   1   0  108.29   10.50
   8  -1   0   46.40    7.80
   8  -1   0   49.30    6.80
   8  -1   0   59.89    6.90
   8  -1   0   35.60    5.70
  -8   1   0   48.10    7.50
  -8   1   0   54.79    7.10
   7  -1   0  218.78   13.00
   7  -1   0  249.68   13.60
   7  -1   0  222.58   13.90
   7  -1   0  232.28   14.10
   7  -1   0  205.38   15.10
  -7   1   0  232.18   15.10
  -7   1   0  241.08   14.20
   6  -1   0 1130.69   40.00
   6  -1   0 1202.58   42.50
   6  -1   0 1144.79   38.00
   6  -1   0 1093.59   39.20
   6  -1   0 1098.49   39.10
  -6   1   0 1176.58   39.60
  -6   1   0 1200.18   41.30
  -6   1   0 1140.19   37.00
   5  -1   0   32.80    5.30
   5  -1   0   31.90    4.00
   5  -1   0   32.70    4.40
   5  -1   0   36.40    4.60
  -5   1   0   31.30    4.80
  -5   1   0   33.70    4.40
  -5   1   0   38.30    4.00
   4  -1   0  145.79    8.40
   4  -1   0  142.89    8.70
   4  -1   0  137.99    8.40
   4  -1   0  154.58    9.80
   4  -1   0  139.99    7.50
  -4   1   0  140.39    7.20
  -4   1   0  153.68    9.30
  -4   1   0  141.69    8.20
   3  -1   0   81.39    5.70
   3  -1   0   80.89    4.70
   3  -1   0   83.79    6.40
   3  -1   0   79.29    5.30
  -3   1   0   81.19    5.90
  -3   1   0   86.39    5.50
  -3   1   0   78.59    4.40
  -3   1   0   72.59    5.90
   2  -1   0  388.36   11.80
   2  -1   0  387.66   14.50
   2  -1   0  376.86   11.70
   2  -1   0  368.96   12.80
   2  -1   0  355.66   13.20
  -2   1   0  359.76   13.50
  -2   1   0  374.76   14.20
  -2   1   0  370.06   12.70
   1  -1   0 2004.30   59.09
   1  -1   0 2040.90   64.69
  -1   1   0 2020.90   59.29
  -1   1   0 2068.09   64.79
  -1  -1   0 1166.78   40.40
   1   1   0 1180.88   40.60
  -2  -1   0  460.65   16.20
  -2  -1   0  445.36   15.90
  -2  -1   0  456.05   16.10
   2   1   0  453.75   15.80
   2   1   0  465.65   16.10
   2   1   0  453.95   16.10
   2   1   0  472.15   16.40
  -3  -1   0  697.23   24.30
  -3  -1   0  752.32   24.30
  -3  -1   0  716.53   24.60
  -3  -1   0  691.73   24.50
   3   1   0  734.53   25.00
   3   1   0  720.13   24.30
   3   1   0  757.02   24.70
   3   1   0  730.83   24.80
  -4  -1   0   73.49    6.10
  -4  -1   0   69.49    6.10
  -4  -1   0   59.09    5.80
   4   1   0   71.09    6.10
   4   1   0   56.49    5.60
   4   1   0   61.89    5.60
   4   1   0   65.49    5.90
  -5  -1   0  529.15   22.40
  -5  -1   0  569.84   22.40
  -5  -1   0  591.14   22.80
  -5  -1   0  568.44   22.90
   5   1   0  569.84   23.10
   5   1   0  552.04   22.60
   5   1   0  546.85   22.20
   5   1   0  549.54   22.60
  -6  -1   0   43.80    5.80
  -6  -1   0   35.40    5.50
  -6  -1   0   48.00    5.80
  -6  -1   0   48.20    5.90
   6   1   0   37.60    5.50
   6   1   0   36.20    5.20
   6   1   0   37.60    5.40
  -7  -1   0  314.37   17.80
  -7  -1   0  332.97   17.70
  -7  -1   0  346.47   17.80
  -7  -1   0  307.27   17.90
   7   1   0  330.27   17.60
   7   1   0  328.27   18.20
  -8  -1   0  155.78   11.90
  -8  -1   0  118.39   11.40
  -8  -1   0  127.79   10.90
  -8  -1   0  129.89   11.40
   8   1   0  122.89   12.30
   8   1   0  113.29   11.80
  -9  -1   0  412.16   21.40
  -9  -1   0  334.47   21.10
  -9  -1   0  358.96   21.30
   9   1   0  363.16   23.00
 -10  -1   0  123.79   13.00
 -10  -1   0  142.09   13.20
 -10  -1   0  114.39   11.50
  10   1   0  127.49   14.10
 -11  -1   0   75.49   10.50
 -11  -1   0   50.89    8.20
  11   1   0   81.29   10.80
  11   1   0   77.49   11.80
 -12  -1   0   18.60    7.50
  12   1   0   16.20    6.90
  12   1   0   14.80    6.90
 -13  -1   0   -3.00    3.40
  13   1   0    3.60    4.10
  13   1   0    0.90    4.20
  14   1   0   70.09   14.90
  14   1   0   58.69   13.40
  15   1   0   26.40   10.10
  15   1   0   23.30    9.30
 -15   2   0   15.50    8.50
  14  -2   0   29.00   10.60
 -14   2   0   34.00    9.90
 -14   2   0   48.90   13.00
  13  -2   0   15.10    7.90
  13  -2   0    3.00    3.60
 -13   2   0    4.60    4.50
  12  -2   0  168.78   13.60
  12  -2   0  141.89   16.50
 -12   2   0  170.18   17.70
 -12   2   0  149.69   14.10
  11  -2   0  119.99   11.00
 -11   2   0  111.79   13.60
 -11   2   0  121.49   14.80
  10  -2   0  144.79   11.30
  10  -2   0  147.19   11.60
  10  -2   0  156.48   15.40
 -10   2   0  157.28   15.00
 -10   2   0  123.69   11.80
   9  -2   0   22.30    5.50
   9  -2   0   22.10    6.10
   9  -2   0   36.00    9.30
  -9   2   0   34.50    8.60
  -9   2   0   23.70    5.80
   8  -2   0    3.10    3.00
   8  -2   0    5.30    4.10
   8  -2   0    4.20    3.00
   8  -2   0    2.10    2.30
  -8   2   0    1.10    2.40
  -8   2   0    1.50    3.30
   7  -2   0  627.44   23.50
   7  -2   0  586.44   25.10
   7  -2   0  584.54   25.60
   7  -2   0  592.14   23.00
   7  -2   0  594.54   28.50
  -7   2   0  591.44   27.10
  -7   2   0  579.14   24.80
   6  -2   0  171.78   10.80
   6  -2   0  154.88   12.30
   6  -2   0  171.98   12.90
   6  -2   0  169.78    9.40
   6  -2   0  155.48    8.90
  -6   2   0  158.48   10.30
  -6   2   0  167.88   11.90
   5  -2   0  526.75   23.50
   5  -2   0  478.45   20.70
   5  -2   0  539.25   18.60
   5  -2   0  507.25   21.50
   5  -2   0  557.04   18.80
   5  -2   0  511.25   20.40
  -5   2   0  503.85   20.20
  -5   2   0  507.15   22.00
   4  -2   0   11.20    2.20
   4  -2   0    9.60    2.20
   4  -2   0   14.60    3.60
   4  -2   0   10.40    4.20
   4  -2   0   17.10    3.60
  -4   2   0   15.60    3.80
  -4   2   0   13.10    3.80
  -4   2   0   10.00    2.80
   3  -2   0   93.89    6.40
   3  -2   0   92.39    5.60
   3  -2   0   98.59    7.60
   3  -2   0   93.59    4.40
   3  -2   0   86.49    4.20
  -3   2   0   84.09    6.90
  -3   2   0   94.29    6.70
  -3   2   0   98.89    5.80
   2  -2   0  776.92   21.70
   2  -2   0  742.63   23.30
   2  -2   0  801.32   26.70
  -2   2   0  743.83   26.30
  -2   2   0  774.92   23.50
  -2   2   0  768.52   25.20
   1  -2   0  781.12   22.70
   1  -2   0  785.32   26.40
   1  -2   0  838.92   24.30
  -1   2   0  790.12   26.30
  -1   2   0  783.42   22.80
  -1   2   0  801.12   23.40
   0  -2   0  945.31   27.90
   0  -2   0  960.10   30.00
   0   2   0  931.01   27.30
   0   2   0  935.21   29.90
   0   2   0  930.81   28.80
  -1  -2   0  306.27   12.80
  -1  -2   0  309.27   12.20
   1   2   0  302.07   12.70
   1   2   0  298.17   11.60
   1   2   0  316.37   12.30
  -2  -2   0 2328.47   80.89
   2   2   0 2426.26   82.49
  -3  -2   0  976.80   32.70
  -3  -2   0  976.30   35.40
   3   2   0 1002.10   33.40
   3   2   0  998.70   33.00
   3   2   0 1006.40   33.10
  -4  -2   0   66.99    6.50
  -4  -2   0   59.99    6.10
  -4  -2   0   60.19    5.90
   4   2   0   62.59    6.10
   4   2   0   62.09    6.20
   4   2   0   62.69    6.30
   4   2   0   48.60    5.40
  -5  -2   0  448.36   19.60
  -5  -2   0  463.95   20.50
  -5  -2   0  435.16   20.10
   5   2   0  457.75   20.20
   5   2   0  442.16   22.30
   5   2   0  431.66   20.20
  -6  -2   0  308.27   16.00
  -6  -2   0  244.08   15.30
  -6  -2   0  286.67   16.10
   6   2   0  285.67   16.50
   6   2   0  267.57   15.50
   6   2   0  296.87   16.50
  -7  -2   0   13.70    4.60
  -7  -2   0   14.50    5.00
  -7  -2   0    7.70    4.20
   7   2   0   10.00    4.30
  -8  -2   0  111.99   10.50
  -8  -2   0   94.69   10.10
  -8  -2   0  111.49   11.00
  -9  -2   0   27.00    7.50
  -9  -2   0   53.19    9.70
  -9  -2   0   38.20    8.20
 -10  -2   0  389.26   22.60
 -10  -2   0  374.56   23.10
 -10  -2   0  344.27   28.50
  10   2   0  373.56   25.10
 -11  -2   0   35.10    9.70
 -11  -2   0   35.90    9.00
  11   2   0   24.30    9.90
 -12  -2   0    2.40    3.60
 -12  -2   0    8.50    5.50
  12   2   0    3.60    4.80
 -13  -2   0  102.89   13.60
  13   2   0   94.99   13.50
  13   2   0   83.99   16.60
  14   2   0    8.60    7.10
  14   2   0   -1.80    3.80
  15   2   0   31.10   11.90
  15   2   0   31.20   10.70
  14  -3   0   20.30    9.90
 -14   3   0   30.60   11.20
  13  -3   0   70.89   14.60
 -13   3   0   51.39   12.40
 -13   3   0   59.99   11.20
  12  -3   0   37.30   10.80
  12  -3   0   41.00    6.30
 -12   3   0   44.60   11.20
 -12   3   0   60.79    9.00
  11  -3   0  178.68   12.10
  11  -3   0  205.08   19.00
 -11   3   0  169.98   16.90
 -11   3   0  181.08   14.60
  10  -3   0    5.70    3.10
  10  -3   0    6.10    5.40
  10  -3   0    6.70    3.60
 -10   3   0    9.20    4.30
 -10   3   0    7.80    5.20
   9  -3   0   18.20    4.50
   9  -3   0   15.60    4.20
   9  -3   0   19.30    6.90
  -9   3   0   16.90    6.80
  -9   3   0   17.50    5.40
   8  -3   0   34.70    4.50
   8  -3   0   45.50    6.30
   8  -3   0   41.00    9.30
  -8   3   0   49.40    9.50
  -8   3   0   53.89    6.80
   7  -3   0   79.99    8.40
   7  -3   0   95.59   10.80
   7  -3   0   86.79    8.10
   7  -3   0   90.59    6.40
   7  -3   0   81.99    6.20
  -7   3   0   96.99   10.10
  -7   3   0   84.69    7.80
   6  -3   0   37.90    3.80
   6  -3   0   38.80    3.70
   6  -3   0   28.40    6.80
   6  -3   0   33.30    4.70
  -6   3   0   26.10    5.90
  -6   3   0   37.20    7.30
  -6   3   0   42.30    5.10
   5  -3   0   91.29    4.90
   5  -3   0   81.49    5.00
   5  -3   0   82.19    6.50
   5  -3   0   93.09    9.30
  -5   3   0   85.29    8.50
  -5   3   0   87.19    8.20
   4  -3   0  404.06   12.80
   4  -3   0  395.86   13.10
   4  -3   0  423.76   20.10
   4  -3   0  409.26   15.80
  -4   3   0  403.16   19.50
  -4   3   0  397.76   16.10
  -4   3   0  400.56   18.30
   3  -3   0  360.26   13.30
   3  -3   0  354.96   17.20
   3  -3   0  349.57   10.50
   3  -3   0  348.67   10.80
  -3   3   0  352.16   15.60
  -3   3   0  327.47   13.40
  -3   3   0  327.87   16.70
   2  -3   0 1125.49   33.20
   2  -3   0 1140.09   38.70
   2  -3   0 1136.69   31.80
  -2   3   0 1160.58   31.90
  -2   3   0 1099.69   38.00
  -2   3   0 1096.69   33.60
   1  -3   0  127.99    6.00
   1  -3   0  124.79    6.00
   1  -3   0  128.79    8.90
  -1   3   0  125.59    6.20
  -1   3   0  117.69    6.00
  -1   3   0  118.49    8.50
   0  -3   0 3214.58  109.79
   0   3   0 3288.17   99.09
   0   3   0 3183.08  109.99
  -1  -3   0 1513.15   47.80
  -1  -3   0 1557.14   46.30
   1   3   0 1503.25   45.30
   1   3   0 1486.15   47.60
   1   3   0 1555.54   46.40
  -2  -3   0   21.50    4.20
  -2  -3   0   32.70    5.70
   2   3   0   20.10    3.90
   2   3   0   24.80    4.40
   2   3   0   27.10    5.40
  -3  -3   0 1362.46   44.10
  -3  -3   0 1288.17   43.50
  -3  -3   0 1381.16   43.40
   3   3   0 1331.17   44.10
   3   3   0 1366.06   43.30
   3   3   0 1319.07   44.20
  -4  -3   0 1395.56   46.30
  -4  -3   0 1343.17   45.20
  -4  -3   0 1408.06   45.80
   4   3   0 1363.26   45.80
   4   3   0 1332.87   46.30
   4   3   0 1372.36   45.70
  -5  -3   0  142.09   10.70
  -5  -3   0  147.29   11.20
  -5  -3   0  150.38   10.80
   5   3   0  132.29   10.00
   5   3   0  138.29   10.70
   5   3   0  161.68   11.90
   5   3   0  160.28   11.40
  -6  -3   0  101.69    9.40
  -6  -3   0   87.39    9.00
  -6  -3   0  106.09    9.90
   6   3   0  104.69    9.60
   6   3   0  115.19   11.10
  -7  -3   0  493.45   24.40
  -7  -3   0  464.35   23.80
  -7  -3   0  464.15   23.20
   7   3   0  471.05   26.30
  -8  -3   0   17.70    5.80
  -8  -3   0   27.50    6.80
  -8  -3   0   32.50    7.60
  -9  -3   0  178.48   15.20
  -9  -3   0  185.38   15.00
  -9  -3   0  183.68   15.40
 -10  -3   0    3.90    4.10
 -10  -3   0    0.90    3.00
 -10  -3   0    2.10    3.70
 -11  -3   0    3.20    4.40
 -11  -3   0   -4.30    2.00
 -11  -3   0    2.30    3.10
 -12  -3   0   30.60    8.90
 -12  -3   0   19.00    7.60
  12   3   0   13.90    7.40
 -13  -3   0   69.89   11.10
  13   3   0   96.09   14.70
  14   3   0   54.69   14.10
  14   3   0   73.29   15.50
  15   3   0    1.80    5.10
  15   3   0   -3.40    4.40
  14  -4   0    2.50    6.20
 -14   4   0    5.20    6.30
  13  -4   0   45.70   12.80
 -13   4   0   32.30    8.20
 -13   4   0   79.49   16.00
  12  -4   0   56.49   13.00
 -12   4   0   46.20    9.20
 -12   4   0   51.09   12.90
  11  -4   0   24.10    8.70
  11  -4   0   19.10    2.90
 -11   4   0   18.30    7.20
 -11   4   0   33.70    8.00
  10  -4   0   28.80    3.50
  10  -4   0   34.00    3.70
 -10   4   0   33.80    7.20
 -10   4   0   18.30    7.50
   9  -4   0   77.69   11.20
   9  -4   0   74.79    5.30
   9  -4   0   73.19    5.30
  -9   4   0   94.79   11.70
  -9   4   0   83.79    8.60
   8  -4   0  192.68   12.70
   8  -4   0  199.08    8.80
   8  -4   0  214.38    9.10
   8  -4   0  182.78   16.20
  -8   4   0  216.78   16.70
  -8   4   0  205.18   13.10
   7  -4   0    2.60    3.60
   7  -4   0    2.30    1.40
  -7   4   0    0.20    1.70
  -7   4   0    2.70    3.30
   6  -4   0  227.08    7.80
   6  -4   0  220.68   12.10
   6  -4   0  227.58   16.30
   6  -4   0  226.58    7.90
  -6   4   0  211.88   14.80
  -6   4   0  221.58   15.70
  -6   4   0  234.68   12.50
   5  -4   0   93.39    9.70
   5  -4   0   63.19    5.50
  -5   4   0   55.39    7.60
  -5   4   0   60.79    7.30
  -5   4   0   65.19    7.20
   4  -4   0    2.60    2.80
   4  -4   0    3.50    1.80
  -4   4   0   -0.60    1.80
  -4   4   0    1.40    1.50
  -4   4   0    7.70    3.30
   3  -4   0  507.75   17.70
   3  -4   0  496.05   15.10
   3  -4   0  499.55   23.40
  -3   4   0  467.95   22.70
  -3   4   0  528.05   21.40
  -3   4   0  513.75   18.50
  -3   4   0  507.55   15.00
   2  -4   0 1775.72   49.60
   2  -4   0 1809.72   57.89
   2  -4   0 1690.53   50.59
  -2   4   0 1816.52   49.99
  -2   4   0 1718.23   57.29
  -2   4   0 1755.32   51.49
   1  -4   0  220.78   13.80
   1  -4   0  255.77   10.40
   1  -4   0  243.58   10.40
  -1   4   0  258.87   10.70
  -1   4   0  245.38   10.70
  -1   4   0  223.48   13.70
   0  -4   0  436.26   16.00
   0  -4   0  437.46   16.90
   0  -4   0  467.25   20.50
   0   4   0  425.66   16.20
   0   4   0  410.56   19.80
   0   4   0  441.16   17.10
  -1  -4   0 2059.29   64.89
   1   4   0 2054.19   64.79
   1   4   0 2125.99   61.49
   1   4   0 2054.59   62.29
  -2  -4   0   50.59    5.80
  -2  -4   0   57.09    6.70
   2   4   0   51.89    6.40
   2   4   0   55.59    5.60
   2   4   0   49.99    5.80
  -3  -4   0  702.43   28.50
  -3  -4   0  708.73   27.70
   3   4   0  689.03   26.90
   3   4   0  700.83   28.10
   3   4   0  735.63   29.00
  -4  -4   0   27.90    6.10
  -4  -4   0   19.60    5.30
  -4  -4   0   19.90    5.20
   4   4   0   26.00    6.20
   4   4   0   25.90    6.00
   4   4   0   40.30    7.20
  -5  -4   0   84.19    8.70
  -5  -4   0   93.99    8.90
  -5  -4   0   73.69    8.50
   5   4   0   81.79   10.10
   5   4   0  104.49    9.80
  -6  -4   0  364.06   20.40
  -6  -4   0  351.96   19.70
  -6  -4   0  362.86   19.70
   6   4   0  335.47   19.90
  -7  -4   0  203.88   15.10
  -7  -4   0  204.58   14.80
  -7  -4   0  186.28   14.80
  -8  -4   0  394.26   23.10
  -8  -4   0  360.96   21.50
  -8  -4   0  381.96   22.60
  -9  -4   0    4.10    4.30
  -9  -4   0    6.10    4.50
  -9  -4   0    7.50    4.70
 -10  -4   0   -3.60    1.80
 -10  -4   0   -2.70    1.90
 -11  -4   0   33.60    9.50
 -11  -4   0   44.00   10.40
 -11  -4   0   39.30   10.20
 -12  -4   0   99.09   13.10
 -12  -4   0  105.29   13.70
 -13  -4   0   32.60    9.60
  13   4   0   41.70   12.80
 -14  -4   0   48.10   11.90
  14   4   0   45.80   12.60
  14   4   0   44.90   13.40
  15   4   0   10.10    6.80
 -14   5   0    9.90    7.20
  13  -5   0   34.40   11.70
 -13   5   0   60.19   12.40
 -13   5   0   53.79   12.70
  12  -5   0   42.70   12.50
 -12   5   0   25.20    6.80
 -12   5   0   40.60   11.90
  11  -5   0    2.00    4.00
 -11   5   0    8.70    6.00
 -11   5   0    0.30    2.40
  10  -5   0    5.50    4.80
 -10   5   0    0.80    3.50
 -10   5   0   -0.60    2.10
   9  -5   0  144.09   18.10
  -9   5   0  145.09   14.90
  -9   5   0  163.68   11.70
   8  -5   0  223.88   13.30
   8  -5   0  225.88   18.60
  -8   5   0  237.58   17.90
  -8   5   0  223.08   13.50
   7  -5   0  162.28   15.30
   7  -5   0  181.98   11.50
  -7   5   0  180.88   14.80
  -7   5   0  179.08   11.30
   6  -5   0    0.30    3.20
   6  -5   0    1.90    1.80
  -6   5   0   -0.30    1.40
  -6   5   0    4.20    3.70
   5  -5   0   60.79    8.80
   5  -5   0   49.50    4.90
  -5   5   0   58.79    7.70
  -5   5   0   52.79    5.50
   4  -5   0   41.90    8.60
   4  -5   0   33.00    3.80
  -4   5   0   29.30    4.00
  -4   5   0   43.80    6.30
  -4   5   0   55.59   10.30
   3  -5   0  235.98    8.70
   3  -5   0  240.78   10.80
   3  -5   0  205.38   15.10
  -3   5   0  244.88   14.10
  -3   5   0  235.28   15.80
  -3   5   0  239.88   11.50
   2  -5   0    2.10    1.60
   2  -5   0    7.90    4.10
   2  -5   0    4.40    1.70
  -2   5   0    2.20    1.70
  -2   5   0    4.10    2.10
  -2   5   0    4.20    2.90
   1  -5   0 1006.50   38.30
   1  -5   0  973.40   32.00
   1  -5   0  970.00   31.40
  -1   5   0 1016.70   32.20
  -1   5   0  947.81   38.10
  -1   5   0 1025.20   32.70
   0  -5   0   -0.10    2.80
   0  -5   0    6.40    3.50
   0   5   0    3.10    1.80
   0   5   0    1.00    2.60
   0   5   0   -0.60    1.40
  -1  -5   0  175.98   11.00
  -1  -5   0  169.58   12.70
   1   5   0  168.28    9.90
   1   5   0  211.88   11.90
   1   5   0  162.28   10.10
   1   5   0  183.38   13.20
  -2  -5   0 1298.17   45.40
  -2  -5   0 1368.56   48.30
   2   5   0 1385.16   44.00
   2   5   0 1397.26   45.00
   2   5   0 1314.27   47.90
   2   5   0 1385.46   46.60
  -3  -5   0   35.40    5.50
  -3  -5   0   29.60    6.60
   3   5   0   21.40    5.10
   3   5   0   27.10    7.10
   3   5   0   26.30    6.00
  -4  -5   0   85.79    9.00
  -4  -5   0   54.99    7.40
   4   5   0   87.59    9.40
   4   5   0   85.19    8.30
   4   5   0   67.79    8.20
  -5  -5   0    2.40    2.90
  -5  -5   0    1.60    2.30
  -6  -5   0  181.48   14.40
  -6  -5   0  167.68   13.60
  -7  -5   0   87.59   10.50
  -7  -5   0   77.89    9.60
  -7  -5   0   73.49    9.60
  -8  -5   0  184.48   15.80
  -8  -5   0  206.08   16.30
  -8  -5   0  178.38   15.80
  -9  -5   0   -2.70    2.40
  -9  -5   0   -0.90    2.30
  -9  -5   0   -3.60    3.00
 -10  -5   0   -1.70    3.20
 -10  -5   0   -1.60    2.10
 -11  -5   0  110.69   14.20
 -11  -5   0  137.29   14.90
 -12  -5   0   44.60   10.50
 -12  -5   0   58.89   13.40
 -13  -5   0  118.09   15.20
 -13  -5   0   86.49   13.10
 -14  -5   0    0.50    4.20
  14   5   0   -1.30    4.30
  15   5   0    1.60    5.60
  15   5   0   -4.40    3.60
  13  -6   0   24.40   10.30
 -13   6   0   41.50   12.70
  12  -6   0    3.70    5.30
 -12   6   0    5.40    4.10
 -12   6   0    4.70    5.70
  11  -6   0    0.70    4.30
 -11   6   0    0.20    2.70
 -11   6   0   -5.10    4.70
  10  -6   0   14.60    7.60
 -10   6   0   18.90    7.70
 -10   6   0   14.00    4.50
   9  -6   0  144.59   16.10
   9  -6   0  114.69    9.40
  -9   6   0  122.79    9.80
  -9   6   0  138.59   15.00
   8  -6   0   62.09    6.60
  -8   6   0   88.79    7.90
  -8   6   0   47.00   10.10
   7  -6   0  168.28   16.20
   7  -6   0  168.68   10.40
  -7   6   0  170.88   15.00
  -7   6   0  173.28   11.00
   6  -6   0   35.80    4.60
   6  -6   0   64.19   12.30
  -6   6   0   43.60    8.90
  -6   6   0   44.80    5.50
   5  -6   0   13.70    5.80
   5  -6   0   21.60    4.10
  -5   6   0   17.00    4.00
  -5   6   0   23.10    6.40
   4  -6   0 1318.67   51.69
   4  -6   0 1294.47   41.20
  -4   6   0 1330.57   42.80
  -4   6   0 1378.46   48.50
   3  -6   0   77.09    4.80
   3  -6   0   94.69   10.70
   3  -6   0   81.39    6.00
  -3   6   0   94.19    7.00
  -3   6   0   74.69    4.90
   2  -6   0  382.66   21.80
   2  -6   0  342.87   14.70
   2  -6   0  368.46   14.60
  -2   6   0  342.97   15.50
  -2   6   0  360.36   15.10
   1  -6   0   10.10    2.90
   1  -6   0   15.00    5.60
  -1   6   0    8.40    3.10
  -1   6   0   12.40    3.60
  -1   6   0   11.60    4.90
   0  -6   0   13.50    5.30
   0  -6   0    6.90    3.00
   0   6   0    7.00    2.90
   0   6   0    5.80    3.50
   0   6   0    4.60    2.90
  -1  -6   0 2125.69   65.29
  -1  -6   0 2145.59   70.39
   1   6   0 2073.79   70.69
   1   6   0 2033.50   63.29
   1   6   0 2022.20   65.29
  -2  -6   0   93.29   10.20
  -2  -6   0  103.99    9.10
   2   6   0  102.49    8.40
   2   6   0   94.49    8.50
   2   6   0  109.09    9.60
  -3  -6   0   18.50    5.30
  -3  -6   0   23.60    6.90
   3   6   0   40.30    8.80
   3   6   0   38.40    5.80
   3   6   0   33.40    6.20
  -4  -6   0   31.60    7.80
  -4  -6   0   23.20    6.60
  -5  -6   0  106.89   11.50
  -5  -6   0  127.29   12.00
  -6  -6   0  189.78   15.50
  -6  -6   0  196.98   15.80
  -7  -6   0  226.48   17.50
  -7  -6   0  222.28   17.70
  -8  -6   0   10.80    6.70
  -8  -6   0    7.40    4.80
  -9  -6   0   16.20    7.40
  -9  -6   0    0.10    2.90
 -10  -6   0  113.29   14.50
 -10  -6   0  183.18   16.80
 -11  -6   0  187.78   17.90
 -11  -6   0  143.39   16.70
 -12  -6   0   11.50    6.90
 -12  -6   0   -2.20    3.00
 -13  -6   0   12.10    7.50
 -13  -6   0   22.10    8.20
 -14  -6   0    4.00    5.80
 -14  -6   0    0.80    4.30
 -15  -6   0    6.20    6.00
  15   6   0   -0.40    4.90
  15   6   0   -1.20    4.10
  15   6   0    0.30    5.50
 -13   7   0  119.69   17.70
  12  -7   0    0.90    5.40
 -12   7   0   -0.40    4.20
  11  -7   0    9.30    7.10
 -11   7   0   12.90    7.00
 -11   7   0    8.30    6.50
  10  -7   0  152.68   17.90
 -10   7   0  132.39   10.00
 -10   7   0  199.38   19.20
   9  -7   0   18.70    8.10
  -9   7   0   10.30    3.80
  -9   7   0   -2.20    2.80
   8  -7   0  116.69    9.30
   8  -7   0  171.68   17.60
  -8   7   0  139.69    9.80
  -8   7   0  135.19   14.60
   7  -7   0    7.50    2.90
   7  -7   0   16.40    7.80
  -7   7   0    6.80    4.70
  -7   7   0   11.60    3.50
   6  -7   0   27.80    4.10
   6  -7   0   31.90    9.40
  -6   7   0   31.60    5.80
  -6   7   0   34.30    9.20
   5  -7   0  408.66   17.20
   5  -7   0  402.26   26.10
  -5   7   0  431.76   23.80
  -5   7   0  424.06   18.50
   4  -7   0   56.79    5.40
   4  -7   0   83.39   11.30
  -4   7   0   58.59    6.20
  -4   7   0   58.79    8.00
   3  -7   0  407.86   14.70
   3  -7   0  365.06   23.60
   3  -7   0  386.36   16.30
  -3   7   0  386.26   17.50
  -3   7   0  381.86   15.00
   2  -7   0  225.78   11.30
   2  -7   0  199.48   10.90
   2  -7   0  205.58   16.70
  -2   7   0  208.48   11.50
  -2   7   0  213.08   12.00
   1  -7   0    6.90    4.30
   1  -7   0    9.70    3.30
  -1   7   0    5.30    2.90
  -1   7   0    4.60    2.50
   0  -7   0   21.40    7.30
   0  -7   0   33.90    5.10
   0   7   0   29.40    5.60
   0   7   0   33.20    5.40
  -1  -7   0 2248.97   76.19
  -1  -7   0 2170.28   69.59
   1   7   0 2244.18   69.29
   1   7   0 2245.98   68.49
   1   7   0 2125.19   70.49
  -2  -7   0  122.79   12.60
  -2  -7   0  129.79   11.00
   2   7   0  114.69    9.60
   2   7   0  119.69   14.00
  -3  -7   0   40.60    7.90
  -3  -7   0   31.60    8.30
   3   7   0   45.80    6.40
  -4  -7   0  316.27   19.50
  -4  -7   0  281.47   19.90
   4   7   0  269.27   16.60
  -5  -7   0   82.69   10.40
  -5  -7   0   88.19   11.20
   5   7   0   85.39    9.40
  -6  -7   0    0.40    1.90
  -6  -7   0    6.90    4.50
  -7  -7   0  237.08   19.20
  -7  -7   0  257.27   19.70
  -8  -7   0   22.80    7.40
  -8  -7   0   48.80   12.10
  -9  -7   0   23.50    7.70
  -9  -7   0   17.40    7.40
 -10  -7   0   72.29   14.40
 -10  -7   0   76.19   11.60
 -11  -7   0   42.90   10.90
 -11  -7   0   93.49   17.90
 -12  -7   0   21.00    9.60
 -12  -7   0   31.70   10.10
 -13  -7   0   13.10    7.80
 -13  -7   0   17.70    8.60
 -14  -7   0   -1.60    3.60
 -14  -7   0    3.00    5.80
  14   7   0   -0.40    3.90
 -15  -7   0   82.09   16.50
 -15  -7   0   58.59   15.20
  15   7   0   83.59   17.70
 -12   8   0    0.50    5.40
  11  -8   0   37.80   12.90
 -11   8   0   23.60   10.30
  10  -8   0  145.79   18.30
 -10   8   0  150.38   18.00
   9  -8   0   83.79   13.90
  -9   8   0   58.89   12.50
  -9   8   0   56.39    6.00
   8  -8   0   18.60    8.20
  -8   8   0   10.00    6.20
  -8   8   0    4.60    2.70
   7  -8   0   40.30   11.60
   7  -8   0   33.20    4.80
  -7   8   0   22.60    4.80
  -7   8   0   43.40   10.80
   6  -8   0  133.89   15.90
   6  -8   0  107.59    7.90
  -6   8   0  130.69   14.00
  -6   8   0  116.29    9.00
   5  -8   0  197.28   10.90
   5  -8   0  182.48   18.00
  -5   8   0  165.68   15.20
  -5   8   0  216.28   12.50
   4  -8   0  225.38   12.10
  -4   8   0  266.87   18.30
  -4   8   0  232.08   13.30
   3  -8   0   72.19   10.90
   3  -8   0   64.69    5.20
  -3   8   0   62.69    5.50
  -3   8   0   69.09    7.00
   2  -8   0    7.90    3.20
   2  -8   0   10.50    5.90
  -2   8   0   12.10    3.80
  -2   8   0   15.20    4.20
   1  -8   0   63.49   10.10
   1  -8   0   61.69    6.70
  -1   8   0   67.39    7.30
  -1   8   0   68.29    7.30
   0  -8   0  517.55   29.70
   0  -8   0  539.95   24.10
   0   8   0  524.15   24.70
   0   8   0  537.35   23.80
   0   8   0  563.14   24.10
  -1  -8   0  175.68   13.00
  -1  -8   0  167.18   15.80
   1   8   0  188.58   12.70
  -2  -8   0   58.19   11.60
  -2  -8   0   45.50    7.20
   2   8   0   48.40    6.80
  -3  -8   0  101.79   10.80
  -3  -8   0   90.89   11.90
   3   8   0   91.79    9.40
  -4  -8   0  189.58   15.60
  -4  -8   0  186.98   18.60
   4   8   0  208.48   14.90
  -5  -8   0  229.38   18.40
  -5  -8   0  270.47   20.50
   5   8   0  250.67   20.30
  -6  -8   0  222.08   19.40
  -6  -8   0  253.27   19.40
   6   8   0  244.68   17.70
  -7  -8   0   99.39   12.90
  -7  -8   0  113.19   14.00
   7   8   0  114.09   12.50
  -8  -8   0   21.40    8.40
  -8  -8   0   11.90    5.50
   8   8   0   14.90    6.30
  -9  -8   0  195.88   18.90
  -9  -8   0  172.28   17.60
   9   8   0  139.99   15.30
 -10  -8   0   -2.10    3.60
 -10  -8   0   15.00    8.70
 -11  -8   0   31.70   10.10
 -11  -8   0   49.50   13.70
 -12  -8   0    9.90    7.30
 -12  -8   0   -0.80    4.20
  12   8   0   -0.80    4.50
 -13  -8   0   -2.60    3.50
 -13  -8   0    2.50    4.50
  13   8   0    3.50    5.20
 -14  -8   0   20.40    9.90
 -14  -8   0   11.30    7.90
  14   8   0   17.60    8.50
  11  -9   0   74.59   17.00
 -11   9   0   47.80   12.90
  10  -9   0   63.29   14.70
 -10   9   0   63.79   14.70
   9  -9   0   39.00   12.10
  -9   9   0   39.70   11.90
   8  -9   0   47.20   12.40
  -8   9   0   68.19   14.60
  -8   9   0   44.30    5.30
   7  -9   0    3.80    4.90
  -7   9   0    3.30    2.60
  -7   9   0   -2.40    2.70
   6  -9   0  161.38   18.00
  -6   9   0  149.19   10.40
  -6   9   0  158.48   16.20
   5  -9   0  183.88   18.70
   5  -9   0  141.19    9.90
  -5   9   0  178.08   16.20
  -5   9   0  183.08   11.70
   4  -9   0  184.48   18.50
  -4   9   0  192.58   16.20
  -4   9   0  169.08   11.70
   3  -9   0    7.20    5.30
   3  -9   0   14.40    4.40
  -3   9   0   19.50    4.30
  -3   9   0   20.60    5.50
   2  -9   0    1.50    2.10
   2  -9   0    1.70    4.00
  -2   9   0   -1.00    1.80
  -2   9   0    3.50    2.70
   1  -9   0   91.89   12.90
   1  -9   0   83.89    8.20
  -1   9   0   83.39    8.80
  -1   9   0   91.19    8.90
   0  -9   0  492.15   23.40
   0  -9   0  453.35   29.00
   0   9   0  479.45   22.90
  -1  -9   0   67.09    8.60
  -1  -9   0   94.59   12.90
   1   9   0   62.99    8.10
  -2  -9   0    7.80    4.10
  -2  -9   0    7.60    5.40
   2   9   0    9.80    4.50
  -3  -9   0   68.89    9.70
  -3  -9   0   56.19   13.00
   3   9   0   67.69    8.80
  -4  -9   0   58.49   11.90
  -4  -9   0   45.60   10.90
   4   9   0   48.60    9.40
  -5  -9   0  129.29   15.20
  -5  -9   0  164.08   15.70
   5   9   0  199.88   15.70
  -6  -9   0   32.50    9.50
  -6  -9   0   27.50    9.00
   6   9   0   45.10    9.70
  -7  -9   0   81.79   12.30
  -7  -9   0   79.99   12.70
   7   9   0   94.19   12.20
  -8  -9   0   40.00   10.20
  -8  -9   0   64.09   13.80
   8   9   0   36.70    9.60
  -9  -9   0   50.99   13.20
  -9  -9   0   72.39   15.30
   9   9   0   46.40   11.00
 -10  -9   0  129.49   16.50
 -10  -9   0  119.39   16.30
  10   9   0  103.69   14.30
 -11  -9   0   13.80    7.60
 -11  -9   0   15.90    8.60
  11   9   0    7.30    6.50
 -12  -9   0    1.40    5.30
 -12  -9   0   15.40    8.70
  12   9   0    7.30    6.80
 -13  -9   0   -2.60    3.50
 -13  -9   0    5.00    5.70
  13   9   0    1.90    4.70
 -14  -9   0   50.99   15.10
 -14  -9   0   65.69   16.00
  14   9   0   60.09   17.30
  10 -10   0   66.69   15.80
 -10  10   0   61.69   15.70
   9 -10   0   19.70   10.00
  -9  10   0    6.50    6.60
   8 -10   0    5.10    6.30
  -8  10   0    3.60    5.20
   7 -10   0  131.39   17.20
  -7  10   0  109.49    8.00
  -7  10   0  179.58   35.00
   6 -10   0   35.80   11.30
  -6  10   0   28.80    5.80
  -6  10   0   33.70   10.50
   5 -10   0   32.60   10.50
  -5  10   0   36.30    5.80
  -5  10   0   39.70    9.90
   4 -10   0   68.49   15.40
  -4  10   0   70.19   10.80
  -4  10   0   74.39    8.10
   3 -10   0   63.19   15.20
   3 -10   0   53.19    5.30
  -3  10   0   56.49    7.40
  -3  10   0   58.19    6.00
   2 -10   0   47.70   12.80
   2 -10   0   61.99    6.70
  -2  10   0   64.49    7.90
  -2  10   0   54.69    7.30
   1 -10   0  112.99   15.00
   1 -10   0  105.79    9.70
  -1  10   0   91.19    9.50
  -1  10   0   95.49   13.50
   0 -10   0    7.20    3.80
   0 -10   0    6.70    5.20
   0  10   0   11.80    4.70
  -1 -10   0  325.77   20.20
  -1 -10   0  373.46   27.00
   1  10   0  334.37   19.90
  -2 -10   0  115.09   12.10
  -2 -10   0  108.29   14.60
   2  10   0  119.99   11.70
  -3 -10   0   13.00    7.60
  -3 -10   0    5.00    4.00
   3  10   0    1.00    3.40
  -4 -10   0  143.89   14.80
  -4 -10   0  154.58   17.40
   4  10   0  160.58   14.50
  -5 -10   0   82.79   11.80
  -5 -10   0   72.29   15.10
   5  10   0   95.89   11.70
  -6 -10   0   30.70    9.70
  -6 -10   0   37.20   11.70
   6  10   0   37.40    9.90
  -7 -10   0    5.60    5.50
  -7 -10   0   -1.00    3.10
   7  10   0   -3.80    2.80
  -8 -10   0  115.89   15.30
  -8 -10   0  119.69   16.20
   8  10   0  116.49   14.40
  -9 -10   0    1.70    4.30
  -9 -10   0   -3.00    2.10
   9  10   0   -3.20    2.80
 -10 -10   0   32.50   11.20
 -10 -10   0   17.70    8.30
  10  10   0   31.60   10.30
 -11 -10   0    7.30    6.70
 -11 -10   0   -3.20    3.20
  11  10   0    1.10    4.70
 -12 -10   0   -0.90    4.30
 -12 -10   0   14.80    8.40
  12  10   0    1.50    5.50
 -13 -10   0   40.00   13.20
 -13 -10   0   45.70   13.30
  13  10   0   51.39   14.20
   9 -11   0   37.60   12.60
  -9  11   0   46.70   13.60
   8 -11   0   20.70   10.00
  -8  11   0   14.30    7.80
   7 -11   0   51.49   13.90
  -7  11   0   38.90   11.40
   6 -11   0   -0.30    4.40
  -6  11   0   -1.50    4.10
  -6  11   0    0.10    2.10
   5 -11   0   57.79   14.40
  -5  11   0   77.59   15.30
  -5  11   0   49.40    6.90
   4 -11   0   -2.50    3.50
  -4  11   0    7.70    3.70
  -4  11   0    1.30    4.30
   3 -11   0    0.50    1.60
   3 -11   0    5.00    5.90
  -3  11   0   -2.10    2.10
  -3  11   0    0.10    2.10
   2 -11   0  377.06   29.10
   2 -11   0  368.66   18.40
  -2  11   0  376.56   20.10
  -2  11   0  349.87   20.40
   1 -11   0  146.39   17.90
   1 -11   0  135.49   11.50
  -1  11   0  137.59   12.20
   0 -11   0   39.30    8.30
   0 -11   0   42.60   12.00
   0  11   0   43.80    8.90
  -1 -11   0   25.70    7.70
  -1 -11   0   26.30    9.00
   1  11   0   19.60    6.20
  -2 -11   0   42.70    9.80
  -2 -11   0   34.60   11.00
   2  11   0   36.50    9.00
  -3 -11   0   15.50    6.70
  -3 -11   0    6.30    6.80
   3  11   0   10.90    5.60
  -4 -11   0  162.98   18.70
  -4 -11   0  145.09   15.40
   4  11   0  122.89   13.60
  -5 -11   0   -2.90    2.00
  -5 -11   0    7.00    6.90
   5  11   0   -1.00    3.50
  -6 -11   0   51.99   13.00
  -6 -11   0   37.20   11.30
   6  11   0   73.09   14.40
  -7 -11   0  116.19   16.60
  -7 -11   0  168.98   18.00
   7  11   0  136.49   15.70
  -8 -11   0   12.00    8.20
  -8 -11   0   24.80   10.30
   8  11   0   17.50    8.40
  -9 -11   0   35.50   11.00
  -9 -11   0   32.20   12.70
   9  11   0   43.50   12.50
 -10 -11   0    8.20    7.30
 -10 -11   0   -2.80    4.00
  10  11   0   -3.10    3.60
 -11 -11   0    0.60    4.80
 -11 -11   0    3.50    6.20
  11  11   0   10.90    6.90
 -12 -11   0    5.70    7.20
 -12 -11   0   17.30   10.30
  12  11   0   14.60    9.20
 -13 -11   0   18.40    9.80
 -13 -11   0   22.80   11.50
  13  11   0   29.30   11.60
   8 -12   0  151.98   21.10
  -8  12   0  118.79   17.60
   7 -12   0   21.20   10.70
  -7  12   0   24.00    9.20
   6 -12   0   64.99   17.00
  -6  12   0   78.99   16.10
  -5  12   0    8.90    6.70
  -5  12   0    1.70    2.90
   4 -12   0   -3.70    3.60
  -4  12   0    1.30    3.00
  -4  12   0    5.60    5.70
   3 -12   0   42.50   12.80
  -3  12   0   47.90   13.50
  -3  12   0   50.69    7.90
   2 -12   0  113.29   16.90
   2 -12   0   90.79    8.70
  -2  12   0   82.79   10.20
   1 -12   0   51.89   14.80
   1 -12   0   46.00    9.30
   0 -12   0  112.09   16.70
   0 -12   0   98.59   10.80
   0  12   0   81.99   10.40
  -1 -12   0   43.80   10.00
  -1 -12   0   35.70   11.70
   1  12   0   48.60    9.80
  -2 -12   0   16.90    8.60
  -2 -12   0   11.10    5.70
   2  12   0   18.60    6.80
  -3 -12   0  118.79   13.90
  -3 -12   0  133.29   17.60
   3  12   0  116.29   13.40
  -4 -12   0    1.20    3.40
  -4 -12   0   14.30    8.20
   4  12   0    7.40    5.60
  -5 -12   0    0.30    4.30
  -5 -12   0   -2.40    2.70
   5  12   0    0.20    4.20
  -6 -12   0    6.00    6.60
  -6 -12   0   21.60    7.90
   6  12   0   28.30    9.30
  -7 -12   0   98.59   22.40
  -7 -12   0  108.49   17.10
   7  12   0  136.89   16.70
  -8 -12   0   36.50   11.20
  -8 -12   0   39.10   13.30
   8  12   0   48.30   12.60
  -9 -12   0   11.20    8.00
  -9 -12   0   -0.90    3.70
   9  12   0   19.30    8.50
 -10 -12   0    0.70    4.50
 -10 -12   0   -2.30    4.10
  10  12   0   16.30    8.20
 -11 -12   0   -1.40    5.10
 -11 -12   0    0.50    5.80
  11  12   0   -1.90    4.50
 -12 -12   0   -2.70    6.70
 -12 -12   0    3.90    7.80
  12  12   0    6.90   14.50
   7 -13   0   73.49   18.20
  -7  13   0   84.99   16.90
   6 -13   0    7.40    7.70
  -6  13   0   13.80    9.00
   5 -13   0   -1.90    4.40
  -5  13   0   -2.30    4.90
   4 -13   0   13.20    9.40
  -4  13   0    3.60    4.70
  -4  13   0   -0.30    3.30
   3 -13   0   30.80   11.70
  -3  13   0   16.50    6.00
  -3  13   0   28.90    9.70
   2 -13   0   17.90    5.00
   2 -13   0    1.60    5.00
  -2  13   0   29.60    8.20
   1 -13   0   62.69   16.20
   1 -13   0   59.79    8.40
  -1  13   0   50.39   10.30
   0 -13   0   11.60    5.90
   0 -13   0    1.30    6.90
   0  13   0   15.10    6.10
  -1 -13   0   36.80   17.10
  -1 -13   0   25.80    8.00
   1  13   0   22.10    7.60
  -2 -13   0  127.19   14.20
  -2 -13   0  155.18   23.50
   2  13   0  144.89   15.00
  -3 -13   0   68.79   13.90
  -3 -13   0   76.99   17.50
   3  13   0   72.99   13.90
  -4 -13   0    1.60    4.00
  -4 -13   0    6.70    7.80
   4  13   0    1.80    4.30
  -5 -13   0   12.50    8.10
  -5 -13   0   -1.70    2.60
   5  13   0    5.30    5.50
  -6 -13   0   42.00   12.60
  -6 -13   0   41.90   13.30
   6  13   0   59.09   18.50
  -7 -13   0   -4.10    5.00
  -7 -13   0   -2.50    2.50
   7  13   0   -1.60    3.60
  -8 -13   0  195.88   21.70
  -8 -13   0  186.48   23.00
   8  13   0  187.38   20.60
  -9 -13   0    1.40    5.60
  -9 -13   0    3.80    5.80
   9  13   0   -4.80    3.30
 -10 -13   0    4.10    7.80
 -10 -13   0   -3.50    3.30
  10  13   0    2.40    5.90
 -11 -13   0   15.30    9.70
 -11 -13   0   46.90   21.00
   5 -14   0   15.80    9.50
  -5  14   0   -0.30    4.60
   4 -14   0  141.49   21.20
  -4  14   0   94.59   18.70
   3 -14   0   16.80    9.90
  -3  14   0   15.30    7.80
  -3  14   0    3.40    5.80
   2 -14   0   -5.30    3.50
  -2  14   0    5.40    4.60
   1 -14   0    3.60    5.40
   1 -14   0    0.50    3.10
  -1  14   0    2.00    3.90
   0 -14   0    4.80    3.60
   0 -14   0   13.10    9.20
   0  14   0    6.20    4.90
  -1 -14   0    1.60    6.20
  -1 -14   0    1.90    3.30
   1  14   0    2.00    4.20
  -2 -14   0  264.67   21.50
  -2 -14   0  286.47   28.30
   2  14   0  288.47   21.90
  -3 -14   0    5.50    5.40
  -3 -14   0   25.30   11.00
   3  14   0    9.60    5.90
  -4 -14   0   10.50    9.10
  -4 -14   0   23.70    9.30
   4  14   0   23.30    9.50
  -5 -14   0   63.09   16.90
  -5 -14   0   87.09   14.10
   5  14   0   96.09   14.30
  -6 -14   0   -8.10    3.70
  -6 -14   0    4.80    5.60
   6  14   0    3.60    5.60
  -7 -14   0   21.90   11.20
  -7 -14   0    0.70    4.00
   7  14   0   14.00    8.10
  -8 -14   0    0.00    4.00
  -8 -14   0    1.20    5.10
   8  14   0   16.50    8.70
  -9 -14   0   -1.40    5.20
  -9 -14   0   10.10    8.20
   9  14   0    6.40    7.30
 -10 -14   0    3.30    5.90
 -10 -14   0    1.70   10.80
  10  14   0   10.50   10.10
   3 -15   0   18.40   11.20
  -3  15   0   16.70    9.70
   2 -15   0   23.40   11.90
  -2  15   0   12.90    8.50
   1 -15   0   18.10   11.50
  -1  15   0   16.70    7.20
   0 -15   0    1.40    3.70
   0 -15   0    2.30    6.70
   0  15   0    0.20    4.50
  -1 -15   0  116.09   19.50
  -1 -15   0  138.09   14.70
   1  15   0  148.39   16.10
  -2 -15   0   16.80   10.80
  -2 -15   0    0.40    3.40
   2  15   0    0.00    4.00
  -3 -15   0   43.50   13.90
  -3 -15   0   44.30   16.20
   3  15   0   32.30   10.50
  -4 -15   0   23.20   10.10
  -4 -15   0   10.40    8.20
   4  15   0    7.80    6.40
  -5 -15   0   96.79   18.20
  -5 -15   0   38.30   14.20
   5  15   0   72.89   15.50
  -6 -15   0    8.40    8.70
  -6 -15   0    7.30    6.20
   6  15   0   -3.10    3.90
  -7 -15   0   32.90   12.60
  -7 -15   0   19.80   11.30
   7  15   0    6.20    6.30
  -8 -15   0    6.70    7.30
  -8 -15   0   -0.60    5.10
   8  15   0   -2.20    4.80
   0 -16   0   -4.20    6.40
   0  16   0    6.70    6.20
  -1 -16   0   -0.10    3.90
   1  16   0    3.90    5.90
  -2 -16   0   37.10   11.00
   2  16   0   38.00   12.10
  -3 -16   0    5.00    5.90
  -3 -16   0   16.70   17.40
   3  16   0    5.20    5.70
  -4 -16   0   -1.80    4.90
  -4 -16   0   16.40    7.70
   4  16   0   25.50    9.90
  -5 -16   0   -0.40    5.90
  -5 -16   0   -3.10    3.70
   5  16   0   -1.10    4.70
   4  16  -1    0.90    5.20
  -4 -16   1    1.80    4.70
  -4 -16   1    0.00    5.40
   3  16  -1    1.20    5.00
  -3 -16   1    9.50    9.30
  -3 -16   1   -2.00    4.00
   2  16  -1   15.10    7.40
  -2 -16   1    0.40    7.30
  -2 -16   1    3.60    5.90
  -1 -16   1   57.89   13.00
  -1 -16   1   43.10   16.80
   7  15  -1   50.39   13.90
  -7 -15   1   52.19   15.10
   6  15  -1    3.60    6.50
  -6 -15   1    6.20    6.70
  -6 -15   1    6.10    7.90
   5  15  -1    3.00    4.90
  -5 -15   1   24.30   11.30
  -5 -15   1    1.40    4.30
   4  15  -1   -0.10    4.20
  -4 -15   1    6.60    5.90
  -4 -15   1    7.70    8.50
   3  15  -1   31.80   10.20
  -3 -15   1   41.20   14.20
  -3 -15   1   25.80    9.50
   2  15  -1    1.10    4.30
  -2 -15   1    3.20    6.10
  -2 -15   1   -1.70    3.20
   1  15  -1   82.59   12.50
  -1 -15   1   57.99   17.20
  -1 -15   1   87.09   15.60
   0  15  -1    5.40    4.90
   0 -15   1   -1.00    3.30
   0 -15   1    1.70    6.20
   1 -15   1   -2.10    4.90
   2 -15   1  103.99   23.40
   3 -15   1   80.89   23.80
   9  14  -1   -0.10    5.60
  -9 -14   1   -2.40    4.70
  -9 -14   1    8.60    8.60
   8  14  -1    3.20    5.60
  -8 -14   1   -3.60    5.00
  -8 -14   1    0.90    5.30
   7  14  -1    3.70    5.60
  -7 -14   1   -0.80    3.00
  -7 -14   1   -2.80    4.00
   6  14  -1   37.40   11.30
  -6 -14   1   21.50    9.20
  -6 -14   1   56.89   16.40
   5  14  -1   17.90    8.30
  -5 -14   1   30.60    9.70
  -5 -14   1    9.50    8.30
   4  14  -1   23.80    9.10
  -4 -14   1   22.90    9.30
  -4 -14   1   11.70    8.90
   3  14  -1    8.70    6.10
  -3 -14   1   32.70   12.00
  -3 -14   1   14.10    7.20
   2  14  -1   95.09   12.60
  -2 -14   1   71.49   11.80
  -2 -14   1   90.99   21.00
   1  14  -1   -0.10    3.50
  -1 -14   1    1.20    3.00
  -1 -14   1    3.40    6.40
   0  14  -1   -1.10    3.40
   0 -14   1    0.40    3.00
   0 -14   1   -3.50    4.80
  -1  14  -1   87.19   11.20
   1 -14   1  100.69   11.40
   1 -14   1   86.29   20.50
   2 -14   1    5.20    7.30
  -3  14  -1   83.89   16.50
   3 -14   1   96.39   22.50
  -4  14  -1   27.40   10.70
   4 -14   1   26.70   12.00
  -5  14  -1    1.80    5.50
   5 -14   1   -2.50    5.30
  11  13  -1    0.40    6.50
 -11 -13   1   -1.20    4.40
 -11 -13   1    6.60    7.00
  10  13  -1    4.40    5.80
 -10 -13   1    3.50    6.10
 -10 -13   1   -0.30    4.70
   9  13  -1   19.00    8.90
  -9 -13   1    8.00    6.90
  -9 -13   1    0.10    5.40
   8  13  -1   80.19   17.20
  -8 -13   1   62.09   16.00
  -8 -13   1   32.60   12.70
   7  13  -1   -0.90    3.90
  -7 -13   1    9.90    8.00
  -7 -13   1   14.70    8.40
   6  13  -1    0.20    5.60
  -6 -13   1   -3.20    2.70
  -6 -13   1   -1.80    4.90
   5  13  -1   30.30    9.70
  -5 -13   1   12.70    7.50
  -5 -13   1   19.00    9.80
   4  13  -1   22.00    8.10
  -4 -13   1   31.40   12.10
  -4 -13   1   14.40    6.60
   3  13  -1  208.88   18.50
  -3 -13   1  206.58   23.70
  -3 -13   1  207.88   19.60
   2  13  -1    2.30    4.20
  -2 -13   1   -0.90    2.40
  -2 -13   1   -3.50    3.70
   1  13  -1   57.59    9.40
  -1 -13   1   58.39   12.00
  -1 -13   1   53.69   14.70
   0  13  -1  113.39   12.30
   0 -13   1  114.69   23.50
   0 -13   1   89.79   11.40
  -1  13  -1    6.20    4.60
   1 -13   1    5.70    4.40
   1 -13   1    9.70    9.10
  -2  13  -1  140.79   12.70
   2 -13   1  177.18   22.30
   2 -13   1  120.19   11.00
  -3  13  -1   -0.30    4.50
  -3  13  -1    0.40    3.00
   3 -13   1    4.00    6.90
  -4  13  -1    5.80    6.20
   4 -13   1    7.60    8.60
  -5  13  -1   20.30    8.90
   5 -13   1   -0.50    7.00
  -6  13  -1  116.69   17.20
   6 -13   1  112.49   23.20
  -7  13  -1    6.20    6.80
   7 -13   1   10.70    9.70
  12  12  -1   26.40   10.70
 -12 -12   1   11.60    7.80
 -12 -12   1    7.60    8.10
  11  12  -1    2.40    5.90
 -11 -12   1    6.30    6.90
 -11 -12   1    2.40    5.80
  10  12  -1   -4.50    3.30
 -10 -12   1   -0.50    4.10
 -10 -12   1   -0.70    4.70
   9  12  -1   47.50   13.10
  -9 -12   1   36.30   12.90
  -9 -12   1   35.20   11.80
   8  12  -1    2.10    5.10
  -8 -12   1   13.10    8.40
  -8 -12   1   28.60   11.90
   7  12  -1   46.40   14.90
  -7 -12   1   33.50   12.00
  -7 -12   1   62.49   15.50
   6  12  -1   25.60    8.80
  -6 -12   1   19.60   13.30
  -6 -12   1   29.50   10.20
   5  12  -1    7.60    5.50
  -5 -12   1    6.80    6.80
  -5 -12   1    8.30    5.90
   4  12  -1   34.00    9.20
  -4 -12   1   17.30    8.60
  -4 -12   1   34.20   10.70
   3  12  -1   34.50    9.20
  -3 -12   1   36.50   10.50
  -3 -12   1   30.10   11.00
   2  12  -1    3.20    3.50
  -2 -12   1   11.90    6.00
  -2 -12   1   15.40    8.50
   1  12  -1    7.90    4.80
  -1 -12   1    2.70    5.00
  -1 -12   1    4.50    4.20
   0  12  -1  222.78   19.40
   0 -12   1  184.78   15.50
   0 -12   1  186.98   21.90
  -1  12  -1   74.59    9.40
   1 -12   1   67.09   16.80
   1 -12   1   72.59    9.30
  -2  12  -1   77.99    9.20
   2 -12   1   92.49    9.40
   2 -12   1   90.19   18.20
  -3  12  -1   11.40    4.10
   3 -12   1    8.70    3.50
   3 -12   1   -5.20    3.50
  -4  12  -1   13.20    7.00
  -4  12  -1   12.90    4.20
   4 -12   1    7.00    7.40
  -5  12  -1   77.59   16.20
   5 -12   1   72.79   18.20
  -6  12  -1   39.80   11.90
   6 -12   1   39.30   13.60
  -7  12  -1  109.59   16.50
   7 -12   1  113.99   22.40
  -8  12  -1   20.00   10.00
   8 -12   1   14.40   10.40
  13  11  -1   30.10   11.20
 -13 -11   1   30.10   12.80
 -13 -11   1   22.40   10.80
  12  11  -1    5.00    6.60
 -12 -11   1    3.30    6.90
 -12 -11   1   14.10    8.90
  11  11  -1   27.50   11.00
 -11 -11   1   27.00   10.70
 -11 -11   1   34.50   12.10
  10  11  -1   89.99   14.70
 -10 -11   1   64.69   16.00
 -10 -11   1   91.89   18.60
   9  11  -1   32.90   10.30
  -9 -11   1   43.20   15.10
  -9 -11   1   23.30    9.80
   8  11  -1   10.20    6.20
  -8 -11   1   43.70   14.10
   7  11  -1   -3.60    2.80
  -7 -11   1    1.00    4.40
  -7 -11   1    8.00    6.20
   6  11  -1  173.78   17.00
  -6 -11   1  152.38   18.60
  -6 -11   1  150.28   17.00
   5  11  -1   83.19   14.90
  -5 -11   1   63.09   15.00
  -5 -11   1   69.19   15.10
   4  11  -1   -3.10    2.00
  -4 -11   1   11.00    7.20
  -4 -11   1    7.30    5.40
   3  11  -1   13.50    5.80
  -3 -11   1    9.40    6.40
  -3 -11   1   14.40    8.00
   2  11  -1   -0.40    2.70
  -2 -11   1   -5.00    3.50
  -2 -11   1    6.70    4.80
   1  11  -1   13.80    5.00
  -1 -11   1    3.50    3.60
  -1 -11   1   -1.80    3.60
   0  11  -1  215.88   15.20
   0 -11   1  205.68   15.90
   0 -11   1  203.08   21.40
  -1  11  -1  448.56   22.60
   1 -11   1  396.86   30.90
   1 -11   1  437.56   23.20
  -2  11  -1    5.20    3.70
   2 -11   1    6.60    3.40
   2 -11   1    8.50    7.00
  -3  11  -1   11.10    5.70
  -3  11  -1   11.70    4.60
  -3  11  -1   12.60    4.50
   3 -11   1   -3.60    4.10
   3 -11   1   15.00    4.30
  -4  11  -1   76.29    5.60
  -4  11  -1   76.79    7.50
  -4  11  -1   69.49   14.10
   4 -11   1   83.19    5.70
   4 -11   1   93.19   18.30
  -5  11  -1    4.80    5.00
  -5  11  -1    8.70    3.40
   5 -11   1   -2.30    4.30
  -6  11  -1    1.30    4.30
   6 -11   1    7.90    6.50
  -7  11  -1   29.80    9.70
   7 -11   1   38.40   13.00
  -8  11  -1   10.50    7.50
   8 -11   1    8.60    8.00
  -9  11  -1    0.90    4.70
   9 -11   1    7.20    8.40
  13  10  -1    4.30    6.80
 -13 -10   1    5.60    6.20
 -13 -10   1   -0.90    4.60
  12  10  -1   -2.00    3.70
 -12 -10   1    0.50    5.30
 -12 -10   1    6.80    6.20
  11  10  -1   61.69   15.10
 -11 -10   1   61.39   14.30
 -11 -10   1   59.09   14.80
  10  10  -1    3.40    6.10
 -10 -10   1   10.70    7.20
 -10 -10   1    0.40    5.40
   9  10  -1    6.60    5.80
  -9 -10   1   -4.10    3.80
  -9 -10   1   -3.00    2.90
   8  10  -1   56.19   12.90
  -8 -10   1   40.90   12.80
  -8 -10   1   72.69   16.10
   7  10  -1   58.69   12.30
  -7 -10   1   44.80   12.30
  -7 -10   1   60.69   14.50
   6  10  -1   48.60   11.00
  -6 -10   1   43.10   11.90
  -6 -10   1   34.60   10.60
   5  10  -1  286.57   20.40
  -5 -10   1  308.47   23.00
  -5 -10   1  265.77   23.60
   4  10  -1   12.60    6.00
  -4 -10   1    3.70    5.60
  -4 -10   1   19.80    8.10
   3  10  -1   25.20    6.90
  -3 -10   1   25.80    9.40
  -3 -10   1   28.10    7.80
   2  10  -1    1.40    3.00
  -2 -10   1   -0.80    2.90
  -2 -10   1    0.30    3.10
   1  10  -1   35.10    7.60
  -1 -10   1    1.80    4.10
  -1 -10   1   19.50    6.50
   0  10  -1  147.89   11.80
   0 -10   1  156.18   13.10
   0 -10   1  121.49   15.80
  -1  10  -1  136.99   11.10
   1 -10   1  132.59   16.70
   1 -10   1  135.49   11.70
  -2  10  -1   60.79    7.30
  -2  10  -1   59.19    7.90
  -2  10  -1   50.59    6.70
   2 -10   1   66.69    7.60
   2 -10   1   62.19   14.50
  -3  10  -1   82.39    8.60
  -3  10  -1   80.99    7.80
  -3  10  -1   92.39    8.40
   3 -10   1   83.89    7.50
   3 -10   1   91.09   14.40
  -4  10  -1   82.59    6.20
  -4  10  -1  114.89   13.20
  -4  10  -1   86.89    7.50
  -4  10  -1   68.49    6.70
   4 -10   1   87.69    6.20
   4 -10   1  105.69   19.60
  -5  10  -1   23.50    6.30
  -5  10  -1   23.50    3.60
  -5  10  -1   29.40    9.10
   5 -10   1   15.70    8.00
  -6  10  -1   73.59   11.90
   6 -10   1   79.29   16.70
  -7  10  -1   14.70    6.90
   7 -10   1    2.40    6.00
  -8  10  -1   12.10    7.30
   8 -10   1    6.40    7.40
  -9  10  -1  134.49   17.40
   9 -10   1  137.09   19.60
 -10  10  -1    2.90    4.90
  10 -10   1   29.10   12.50
  14   9  -1   12.30   13.30
 -14  -9   1    3.40    6.10
 -14  -9   1    4.70    6.90
  13   9  -1   -1.60    4.60
 -13  -9   1    5.60    6.10
 -13  -9   1    3.10    4.70
  12   9  -1   12.00    7.80
 -12  -9   1   36.90   12.60
 -12  -9   1   26.20   10.40
  11   9  -1   46.40   12.60
 -11  -9   1   62.49   15.30
 -11  -9   1   48.60   12.20
 -10  -9   1   24.60    9.20
 -10  -9   1   14.80   11.40
  -9  -9   1   23.90    9.60
  -9  -9   1   25.70    8.80
   8   9  -1   24.70    8.00
  -8  -9   1   29.30    9.60
  -8  -9   1   32.40   10.10
   7   9  -1    1.40    3.60
  -7  -9   1    5.00    5.10
  -7  -9   1    0.00    3.80
   6   9  -1   35.00    8.50
  -6  -9   1   21.50    8.40
  -6  -9   1   40.10   10.30
   5   9  -1   91.29   11.10
  -5  -9   1   98.99   13.60
  -5  -9   1   98.69   12.80
   4   9  -1   46.90    9.40
  -4  -9   1   41.70   11.30
  -4  -9   1   49.30   10.60
   3   9  -1   63.39    8.60
  -3  -9   1   66.99   12.80
  -3  -9   1   58.29   12.70
   2   9  -1   69.69    8.40
  -2  -9   1   49.40    9.70
  -2  -9   1   59.09   12.80
   1   9  -1   -1.90    1.50
  -1  -9   1    2.20    2.40
  -1  -9   1   -2.00    3.90
   0   9  -1 1201.88   42.90
   0  -9   1 1181.98   44.90
   0  -9   1 1217.28   53.69
  -1   9  -1    1.40    2.50
  -1   9  -1    3.20    2.60
  -1   9  -1    4.20    3.10
   1  -9   1    7.70    6.50
   1  -9   1    4.40    3.00
  -2   9  -1    6.70    3.40
  -2   9  -1    8.50    3.20
  -2   9  -1    9.60    4.10
   2  -9   1   12.20    4.10
   2  -9   1    6.70    5.50
  -3   9  -1  568.04   23.10
  -3   9  -1  560.84   23.50
  -3   9  -1  583.54   22.70
   3  -9   1  550.64   34.10
   3  -9   1  538.25   22.30
  -4   9  -1  101.69    6.90
  -4   9  -1   97.79   11.60
  -4   9  -1  116.09    8.30
  -4   9  -1   92.99    7.10
   4  -9   1  122.49   15.70
   4  -9   1   97.29    6.50
  -5   9  -1  110.29   13.00
  -5   9  -1  124.69    8.10
  -5   9  -1  122.89    7.50
   5  -9   1  158.78   18.30
  -6   9  -1    3.30    1.50
  -6   9  -1    5.60    1.80
  -6   9  -1   -0.40    3.00
   6  -9   1    6.50    7.00
  -7   9  -1    1.50    4.20
   7  -9   1   -0.50    5.20
  -8   9  -1   24.90    9.40
   8  -9   1   46.70   13.60
  -9   9  -1   19.20    8.50
   9  -9   1   13.60    8.50
 -10   9  -1   29.60   10.50
  10  -9   1   46.90   13.90
 -11   9  -1   20.90    9.60
  11  -9   1    0.90    5.90
  14   8  -1    3.80    6.00
 -14  -8   1   11.60    9.70
 -14  -8   1   -0.80    4.70
 -13  -8   1    5.50    5.90
 -13  -8   1    1.50    5.30
 -12  -8   1   68.19   14.70
 -12  -8   1   52.89   14.10
 -11  -8   1   10.80   10.60
 -11  -8   1   13.70    7.00
 -10  -8   1   90.19   13.10
 -10  -8   1   51.29   12.20
  -9  -8   1    6.00    5.00
  -9  -8   1    0.60    3.30
  -8  -8   1   47.90   11.60
  -8  -8   1   19.90    8.10
  -7  -8   1    5.00    5.70
  -7  -8   1   -2.50    1.70
  -6  -8   1  336.97   24.00
  -6  -8   1  339.07   23.60
   5   8  -1    4.70    3.90
  -5  -8   1    2.10    4.00
  -5  -8   1   15.60    7.50
   4   8  -1   48.10    7.40
  -4  -8   1   60.99   11.80
   3   8  -1  212.08   14.20
  -3  -8   1  198.78   17.50
  -3  -8   1  184.48   15.30
   2   8  -1   75.69    8.20
  -2  -8   1   76.19    9.40
  -2  -8   1   65.59   10.60
   1   8  -1  362.46   18.90
  -1  -8   1  423.16   22.10
  -1  -8   1  409.56   26.10
   0   8  -1  409.36   21.90
   0   8  -1  408.66   19.30
   0   8  -1  389.26   19.30
   0  -8   1  423.56   21.40
   0  -8   1  440.76   27.20
  -1   8  -1    1.70    2.00
  -1   8  -1    2.20    2.30
  -1   8  -1    1.50    2.60
   1  -8   1   -0.60    2.90
   1  -8   1    1.10    2.10
  -2   8  -1  125.49    9.00
  -2   8  -1  120.09    9.90
  -2   8  -1  136.09    9.10
   2  -8   1  118.69    9.30
  -3   8  -1    1.50    1.80
  -3   8  -1    1.50    1.90
  -3   8  -1    7.20    3.20
   3  -8   1    5.60    2.80
   3  -8   1    2.90    4.80
  -4   8  -1  355.06   14.60
  -4   8  -1  389.26   22.40
   4  -8   1  339.87   25.40
   4  -8   1  358.36   14.40
  -5   8  -1  166.28    9.10
  -5   8  -1  167.48   15.20
   5  -8   1  181.18   18.70
  -6   8  -1    0.70    1.40
  -6   8  -1   -2.80    2.60
   6  -8   1    1.00    4.40
  -7   8  -1    4.10    4.50
  -7   8  -1   -0.10    1.00
   7  -8   1    3.10    5.10
  -8   8  -1  121.99   14.30
   8  -8   1   99.09   18.90
  -9   8  -1   27.90    9.60
   9  -8   1   46.30   12.80
 -10   8  -1   17.40    8.80
  10  -8   1   27.50   11.50
 -11   8  -1   12.50    7.20
 -12   8  -1    2.30    5.60
  12  -8   1    3.20    6.50
 -15  -7   1    5.20    6.50
 -15  -7   1    8.50    7.00
 -14  -7   1   34.30   10.50
 -14  -7   1   27.40   10.50
 -13  -7   1   10.50    6.90
 -13  -7   1   12.80    7.80
 -12  -7   1   90.99   14.60
 -12  -7   1   69.69   14.40
 -11  -7   1   48.00   11.90
 -11  -7   1   30.20    9.60
 -10  -7   1   17.80    7.10
 -10  -7   1   31.00    9.60
  -9  -7   1   41.30    9.60
  -9  -7   1   26.20    8.60
  -8  -7   1   60.89   11.80
  -8  -7   1   41.10   10.00
  -7  -7   1  858.01   41.00
  -7  -7   1  883.21   41.40
  -6  -7   1   -0.70    2.80
  -6  -7   1    3.90    3.40
  -5  -7   1  112.09   12.70
  -5  -7   1  117.59   12.30
  -4  -7   1   61.29   11.50
  -4  -7   1   50.69   10.80
   3   7  -1   66.89    7.50
  -3  -7   1   71.19    9.10
  -3  -7   1   80.99   10.50
   2   7  -1  827.62   31.50
   2   7  -1  861.11   36.10
  -2  -7   1  755.92   36.60
  -2  -7   1  829.12   34.50
   1   7  -1  317.37   16.60
   1   7  -1  298.37   15.70
   1   7  -1  303.37   18.20
  -1  -7   1  358.16   22.30
  -1  -7   1  312.17   17.80
   0   7  -1  198.68   11.60
   0   7  -1  200.78   13.70
   0  -7   1  216.38   17.20
   0  -7   1  208.58   13.30
  -1   7  -1    0.70    1.50
  -1   7  -1   -0.30    1.20
  -1   7  -1    4.20    2.80
   1  -7   1    1.90    4.30
   1  -7   1    2.00    2.30
  -2   7  -1  673.73   24.70
  -2   7  -1  673.83   26.70
  -2   7  -1  671.33   24.60
   2  -7   1  685.23   34.40
   2  -7   1  699.03   26.10
  -3   7  -1  354.66   17.20
  -3   7  -1  349.37   16.00
   3  -7   1  399.86   20.10
   3  -7   1  376.06   24.60
  -4   7  -1   48.20    4.80
  -4   7  -1   40.10    8.40
  -4   7  -1   50.59    4.50
   4  -7   1   64.29   10.50
   4  -7   1   47.20    4.30
  -5   7  -1    7.10    3.90
  -5   7  -1    2.10    1.60
   5  -7   1    5.40    2.00
   5  -7   1    3.00    1.10
  -6   7  -1    1.30    1.50
  -6   7  -1   -4.30    1.80
   6  -7   1   -2.10    3.00
   6  -7   1    0.20    1.00
  -7   7  -1  111.29    6.40
  -7   7  -1  106.89   12.40
   7  -7   1  101.39    6.00
   7  -7   1  106.49   14.50
  -8   7  -1   25.60    3.10
  -8   7  -1   41.00   10.20
   8  -7   1   47.70   12.00
   8  -7   1   31.70    3.30
  -9   7  -1   17.90    3.00
  -9   7  -1   24.60    8.50
   9  -7   1    2.50    5.00
 -10   7  -1    2.20    5.20
  10  -7   1    6.80    7.20
 -11   7  -1    4.20    5.60
  11  -7   1    4.80    6.30
 -12   7  -1   17.10    8.60
  15   6  -1    5.00    7.70
 -15  -6   1    1.60    5.00
 -14  -6   1   -0.80    4.30
 -14  -6   1   -1.70    3.70
 -13  -6   1   78.39   16.20
 -13  -6   1   68.59   14.20
 -12  -6   1   -1.60    2.90
 -12  -6   1    3.70    4.60
 -11  -6   1   42.30   12.00
 -11  -6   1   37.90   10.20
 -10  -6   1   12.10    7.20
 -10  -6   1   12.80    6.50
 -10  -6   1   10.90    6.60
  -9  -6   1   36.00    9.10
  -9  -6   1   62.09   12.20
  -9  -6   1   23.90    7.60
  -8  -6   1  155.08   15.60
  -8  -6   1  182.08   16.20
  -8  -6   1  153.48   14.70
  -7  -6   1  226.48   17.90
  -7  -6   1  282.77   20.20
  -7  -6   1  289.67   19.70
  -6  -6   1  252.17   17.70
  -6  -6   1  256.57   18.40
  -6  -6   1  253.17   18.40
  -5  -6   1    0.20    2.20
  -5  -6   1   -1.80    1.80
  -4  -6   1  140.49   12.60
  -4  -6   1  165.28   13.90
   3   6  -1   50.89    7.40
  -3  -6   1   56.19    8.30
  -3  -6   1   46.50    7.00
   2   6  -1  487.75   22.20
   2   6  -1  538.45   21.90
   2   6  -1  515.05   24.70
  -2  -6   1  483.75   25.80
  -2  -6   1  509.65   23.80
   1   6  -1   61.29    7.40
   1   6  -1   72.09    6.90
   1   6  -1   64.29    6.20
  -1  -6   1   79.99    9.60
  -1  -6   1   81.29    8.10
   0   6  -1  956.20   33.50
   0   6  -1 1017.00   33.40
   0   6  -1  973.00   36.10
   0  -6   1  965.70   40.50
   0  -6   1 1023.30   36.10
  -1   6  -1  553.64   23.10
  -1   6  -1  561.14   21.10
  -1   6  -1  542.35   21.00
   1  -6   1  557.64   28.40
   1  -6   1  605.44   23.30
  -2   6  -1    9.90    2.70
  -2   6  -1   11.20    3.50
   2  -6   1    7.50    4.60
  -3   6  -1  732.13   25.80
  -3   6  -1  731.13   24.90
   3  -6   1  744.63   25.70
   3  -6   1  761.42   35.50
  -4   6  -1  135.69    7.40
  -4   6  -1  159.58   12.20
  -4   6  -1  135.19    7.70
   4  -6   1  151.68    7.30
   4  -6   1  138.99    7.60
   4  -6   1  143.29   14.40
  -5   6  -1   -3.10    1.50
  -5   6  -1    0.10    1.20
   5  -6   1    0.40    1.00
   5  -6   1    3.30    3.90
   5  -6   1    1.00    1.00
  -6   6  -1    6.40    2.10
   6  -6   1   10.30    2.60
   6  -6   1    4.00    5.20
  -7   6  -1  441.46   25.10
  -7   6  -1  434.56   17.00
   7  -6   1  455.15   16.80
   7  -6   1  475.25   30.10
  -8   6  -1   12.50    6.20
   8  -6   1    8.90    6.40
   8  -6   1   14.80    3.30
  -9   6  -1   60.19   12.70
  -9   6  -1   54.09    5.20
   9  -6   1   53.49   13.10
   9  -6   1   31.50    4.30
 -10   6  -1    8.50    6.30
 -10   6  -1    9.10    3.10
  10  -6   1    1.00    5.30
 -11   6  -1   12.30    6.70
  11  -6   1   17.40    8.40
 -12   6  -1   69.19   14.20
  12  -6   1   74.19   16.40
 -13   6  -1   -1.40    5.50
  13  -6   1    2.20    6.30
  15   5  -1    7.20   10.70
 -15  -5   1    0.70    4.80
  14   5  -1   56.39   15.10
 -14  -5   1   92.99   13.30
 -14  -5   1   86.09   17.10
 -13  -5   1   94.29   13.30
 -13  -5   1  109.79   20.30
 -12  -5   1   28.00    8.70
 -12  -5   1   15.20    7.70
 -12  -5   1   18.30    8.20
 -11  -5   1    3.50    4.00
 -11  -5   1   -2.10    2.70
 -11  -5   1   -2.20    2.40
 -10  -5   1  204.68   16.90
 -10  -5   1  120.99   14.40
 -10  -5   1  142.59   15.50
  -9  -5   1   81.49   11.40
  -9  -5   1   89.19   10.70
  -9  -5   1   94.09   12.20
  -8  -5   1  329.57   20.90
  -8  -5   1  333.97   22.50
  -8  -5   1  349.37   22.40
  -7  -5   1    5.30    4.10
  -7  -5   1    9.70    4.90
  -7  -5   1   10.50    4.80
  -6  -5   1   80.59    9.60
  -6  -5   1   93.19   10.50
  -6  -5   1   99.19   10.40
  -5  -5   1  414.46   21.80
  -5  -5   1  357.56   20.20
  -5  -5   1  378.76   21.50
   4   5  -1  523.85   25.70
  -4  -5   1  500.25   25.00
  -4  -5   1  557.54   25.90
  -4  -5   1  520.75   24.00
   3   5  -1  651.73   29.20
   3   5  -1  659.43   28.50
   3   5  -1  671.03   27.10
  -3  -5   1  643.04   28.00
  -3  -5   1  629.04   28.70
   2   5  -1  144.29    9.90
   2   5  -1  128.29   11.40
   2   5  -1  146.99   11.20
  -2  -5   1  160.98   12.60
  -2  -5   1  160.28   11.30
   1   5  -1  229.78   15.40
   1   5  -1  244.58   11.70
   1   5  -1  247.08   12.40
   1   5  -1  193.88   12.80
  -1  -5   1  218.18   15.00
  -1  -5   1  230.58   13.50
   0   5  -1  109.49    8.40
   0   5  -1   95.29    6.90
   0   5  -1   95.79    9.90
   0   5  -1  106.49    7.90
   0  -5   1  115.09   10.70
   0  -5   1  106.69    8.20
  -1   5  -1  756.42   27.00
  -1   5  -1  745.03   24.70
  -1   5  -1  730.23   31.70
  -1   5  -1  742.23   24.50
   1  -5   1  719.13   28.60
   1  -5   1  700.23   31.60
  -2   5  -1  357.96   15.20
  -2   5  -1  336.87   13.30
  -2   5  -1  336.27   20.00
   2  -5   1  359.36   20.70
   2  -5   1  349.57   14.80
  -3   5  -1  372.96   13.90
  -3   5  -1  355.36   21.20
  -3   5  -1  363.96   14.60
   3  -5   1  362.86   13.00
   3  -5   1  383.76   21.90
   3  -5   1  355.46   14.50
  -4   5  -1   15.10    4.80
  -4   5  -1   13.10    2.80
  -4   5  -1   11.50    2.60
   4  -5   1    9.90    4.80
   4  -5   1   14.30    3.00
   4  -5   1   12.80    2.40
  -5   5  -1    6.50    3.70
  -5   5  -1    2.50    1.70
   5  -5   1    0.50    1.20
   5  -5   1    2.00    1.20
   5  -5   1    2.30    1.30
   5  -5   1    2.30    3.40
  -6   5  -1  102.19    6.60
  -6   5  -1  106.39   10.50
   6  -5   1   94.89    5.40
   6  -5   1  110.49    6.50
   6  -5   1  101.29    5.90
   6  -5   1  107.79   12.70
  -7   5  -1    2.90    4.60
   7  -5   1    2.40    1.60
   7  -5   1    5.00    4.60
   7  -5   1    3.80    1.50
  -8   5  -1  271.87   19.20
  -8   5  -1  315.57   14.10
   8  -5   1  288.87   13.60
   8  -5   1  247.88    8.70
   8  -5   1  311.87    9.90
  -9   5  -1   -0.30    3.80
  -9   5  -1    2.70    2.20
   9  -5   1    1.30    4.10
   9  -5   1    0.30    2.10
 -10   5  -1    2.50    4.20
 -10   5  -1   -2.20    1.50
  10  -5   1    1.70    4.70
 -11   5  -1   39.70    5.80
 -11   5  -1   20.10    7.70
  11  -5   1   48.40   12.80
  12  -5   1   35.40   10.80
 -13   5  -1   56.89   13.70
  13  -5   1   34.20   12.00
 -14   5  -1   11.10    7.60
  14  -5   1    7.50    8.60
  15   4  -1   29.80   11.10
  15   4  -1   23.80   10.00
 -15  -4   1   28.10   10.50
  14   4  -1   -1.60    4.00
 -14  -4   1    1.10    4.30
  13   4  -1   59.69   14.20
 -13  -4   1   53.69   11.10
 -13  -4   1   58.89   12.50
 -13  -4   1   41.40   15.00
 -12  -4   1   27.60    9.40
 -12  -4   1   22.90    8.20
 -12  -4   1   24.60    7.80
 -11  -4   1   85.19   12.20
 -11  -4   1   72.49   14.40
 -11  -4   1   54.59   11.00
 -10  -4   1    7.80    5.20
 -10  -4   1   10.10    5.20
 -10  -4   1   17.80    6.20
  -9  -4   1  347.37   21.40
  -9  -4   1  344.47   22.70
  -9  -4   1  364.06   23.40
  -8  -4   1  115.09   11.10
  -8  -4   1   93.89   12.40
  -8  -4   1  101.29   11.60
  -7  -4   1  212.08   15.60
  -7  -4   1  185.08   13.90
  -7  -4   1  199.08   15.50
   6   4  -1  105.49   10.40
  -6  -4   1  110.09   10.50
  -6  -4   1  129.59   10.90
  -6  -4   1  102.99   10.50
   5   4  -1  913.91   35.70
  -5  -4   1  931.41   35.50
  -5  -4   1  841.62   35.50
  -5  -4   1  888.21   35.00
   4   4  -1  659.73   28.50
   4   4  -1  658.13   27.40
  -4  -4   1  653.13   27.10
  -4  -4   1  654.23   27.70
  -4  -4   1  664.03   28.30
   3   4  -1  425.56   20.70
   3   4  -1  438.56   19.80
   3   4  -1  446.46   23.30
  -3  -4   1  445.06   20.60
  -3  -4   1  420.16   19.20
  -3  -4   1  420.96   20.60
   2   4  -1   50.49    6.10
   2   4  -1   49.99    5.40
   2   4  -1   41.10    7.60
  -2  -4   1   58.89    6.50
  -2  -4   1   54.29    5.60
  -2  -4   1   47.00    6.40
   1   4  -1   39.20    5.20
   1   4  -1   38.80    4.40
   1   4  -1   44.00    6.10
  -1  -4   1   43.30    6.20
  -1  -4   1   39.80    5.20
   0   4  -1   44.00    3.90
   0   4  -1   56.29    6.90
   0   4  -1   46.60    4.30
   0   4  -1   46.90    5.30
   0  -4   1   42.50    6.20
   0  -4   1   43.90    5.00
  -1   4  -1 1767.22   58.69
  -1   4  -1 1800.02   50.99
  -1   4  -1 1718.83   53.49
   1  -4   1 1819.82   53.59
   1  -4   1 1837.22   59.29
  -2   4  -1 2012.70   56.69
  -2   4  -1 2002.30   59.09
  -2   4  -1 2008.60   68.69
   2  -4   1 1995.20   56.09
   2  -4   1 2057.29   58.99
   2  -4   1 2073.59   66.59
  -3   4  -1  107.99    8.20
  -3   4  -1   94.79    9.70
  -3   4  -1  111.39    6.40
  -3   4  -1  114.79    5.80
   3  -4   1  113.79    5.40
   3  -4   1   95.39    9.90
   3  -4   1  115.39    6.70
  -4   4  -1    1.10    1.20
  -4   4  -1   -0.80    1.60
  -4   4  -1    1.10    1.10
  -4   4  -1   -1.70    1.40
   4  -4   1    0.50    2.10
   4  -4   1    0.10    0.80
   4  -4   1   -0.40    1.00
  -5   4  -1  240.88   10.50
  -5   4  -1  267.97   15.10
   5  -4   1  231.28   10.10
   5  -4   1  228.28    9.80
   5  -4   1  251.07   17.50
   5  -4   1  231.78   10.50
  -6   4  -1   93.89    6.40
  -6   4  -1   82.39    8.80
   6  -4   1   80.49    6.00
   6  -4   1   83.59    5.50
   6  -4   1   97.89    6.30
   6  -4   1   99.39   11.50
  -7   4  -1   44.10    4.90
  -7   4  -1   46.50    7.40
   7  -4   1   47.10   10.50
   7  -4   1   39.20    4.10
   7  -4   1   38.50    4.70
   7  -4   1   47.20    4.80
  -8   4  -1   31.00    8.80
  -8   4  -1   26.20    5.00
   8  -4   1   22.80    5.10
   8  -4   1   27.50    4.00
   8  -4   1   25.10    3.80
   8  -4   1   20.90    7.70
  -9   4  -1    5.80    4.30
  -9   4  -1    3.60    2.50
   9  -4   1    6.20    3.50
   9  -4   1    0.60    4.70
   9  -4   1    5.90    4.00
   9  -4   1    4.80    2.60
 -10   4  -1    5.60    4.80
 -10   4  -1   11.90    4.30
  10  -4   1    2.90    2.30
  10  -4   1    7.70    5.90
 -11   4  -1  183.98   13.10
 -11   4  -1  203.08   18.60
  11  -4   1  253.27   22.40
 -12   4  -1    5.40    6.10
  12  -4   1    3.00    5.80
 -13   4  -1   12.20    7.00
  13  -4   1    9.10    7.80
 -14   4  -1   10.20    7.80
  14  -4   1    9.70    9.80
  15   3  -1   33.00   11.40
  15   3  -1   56.69   14.80
  14   3  -1    3.30    5.70
 -14  -3   1   11.70    7.10
 -14  -3   1   17.50    8.00
  13   3  -1  117.79   15.50
 -13  -3   1   77.69   11.80
 -13  -3   1   71.69   14.30
  12   3  -1   28.60    9.40
 -12  -3   1   42.40   10.90
 -12  -3   1   23.90    7.80
 -11  -3   1   26.00    8.30
 -11  -3   1   38.90    9.00
 -11  -3   1   27.20    8.70
 -10  -3   1  144.39   13.00
 -10  -3   1   96.99   11.90
 -10  -3   1  113.99   13.20
  -9  -3   1   40.60    9.00
  -9  -3   1   40.80    8.50
  -9  -3   1   56.29    9.00
  -8  -3   1   63.49   11.70
  -8  -3   1   49.70    7.30
  -8  -3   1   48.70    7.90
   7   3  -1   19.20    5.60
  -7  -3   1   18.20    5.10
  -7  -3   1   21.00    6.40
  -7  -3   1   18.60    6.00
   6   3  -1 1044.10   39.70
  -6  -3   1 1134.79   41.70
  -6  -3   1 1115.59   41.30
  -6  -3   1 1041.10   38.90
   5   3  -1   83.99    8.50
   5   3  -1  105.09    9.00
   5   3  -1   95.29    9.30
   5   3  -1   99.39    8.80
  -5  -3   1  102.19    9.40
  -5  -3   1  114.59    9.60
  -5  -3   1   93.29    8.40
   4   3  -1 1643.74   54.49
   4   3  -1 1726.73   56.79
   4   3  -1 1658.13   54.29
  -4  -3   1 1732.53   54.29
  -4  -3   1 1672.43   55.29
  -4  -3   1 1689.63   54.39
   3   3  -1    2.00    2.40
   3   3  -1    1.40    2.10
   3   3  -1    7.50    2.90
  -3  -3   1    0.50    1.90
  -3  -3   1   -0.20    1.60
  -3  -3   1    1.50    1.90
   2   3  -1   43.60    4.80
   2   3  -1   61.09    6.20
   2   3  -1   53.59    5.90
  -2  -3   1   56.79    5.90
   1   3  -1  109.89    7.90
   1   3  -1  115.99    7.00
   1   3  -1  127.89    9.10
  -1  -3   1  129.19    8.30
  -1  -3   1  126.39    9.10
  -1  -3   1  126.89    7.20
   0   3  -1   88.09    4.90
   0   3  -1   94.09    5.40
   0   3  -1   82.99    7.50
   0   3  -1   88.99    6.40
   0  -3   1   81.89    6.20
   0  -3   1   94.39    9.20
  -1   3  -1 3438.46  100.19
  -2   3  -1 1394.26   38.70
  -2   3  -1 1373.16   41.00
  -2   3  -1 1392.86   46.60
   2  -3   1 1380.86   46.70
   2  -3   1 1372.66   38.30
   2  -3   1 1387.36   41.10
  -3   3  -1  249.28   10.10
  -3   3  -1  242.88   14.50
  -3   3  -1  237.58   11.90
  -3   3  -1  215.78    8.70
   3  -3   1  260.37   15.30
   3  -3   1  240.58   10.40
  -4   3  -1  400.06   14.30
  -4   3  -1  406.56   18.10
   4  -3   1  408.26   15.40
   4  -3   1  393.56   14.20
   4  -3   1  433.86   21.70
  -5   3  -1   14.40    5.00
  -5   3  -1   12.80    2.70
  -5   3  -1   19.90    5.00
   5  -3   1   16.90    5.90
   5  -3   1   18.20    3.30
   5  -3   1   18.40    3.70
   5  -3   1   19.70    3.50
  -6   3  -1  108.99    8.00
  -6   3  -1  102.89    9.40
   6  -3   1  109.79    7.00
   6  -3   1   99.79    7.20
   6  -3   1  119.89   12.00
   6  -3   1  107.79    7.40
  -7   3  -1  246.98   16.00
  -7   3  -1  254.77   12.80
   7  -3   1  247.58   18.40
   7  -3   1  227.58   11.70
   7  -3   1  212.58   12.30
  -8   3  -1   64.39    6.70
  -8   3  -1   75.89    9.30
   8  -3   1   45.10   10.20
   8  -3   1   50.79    7.20
   8  -3   1   54.99    6.10
   8  -3   1   68.69    6.40
  -9   3  -1   11.00    3.90
  -9   3  -1    4.90    3.50
   9  -3   1   12.30    3.90
   9  -3   1    4.30    5.20
   9  -3   1    4.00    2.90
   9  -3   1    2.80    2.60
 -10   3  -1  455.35   21.70
 -10   3  -1  390.76   24.90
  10  -3   1  500.15   30.60
  10  -3   1  405.06   20.20
  10  -3   1  408.96   21.90
 -11   3  -1   99.29   12.70
 -11   3  -1   77.69    9.00
  11  -3   1   80.59    8.60
  11  -3   1   98.09   14.30
 -12   3  -1   21.80    6.30
 -12   3  -1   25.50    8.50
  12  -3   1   19.10    8.40
  12  -3   1   25.60    6.20
  13  -3   1   -3.00    4.50
 -14   3  -1   36.40   10.60
  14  -3   1   35.00   11.90
  15   2  -1    4.80    6.40
  15   2  -1   13.00    7.60
  14   2  -1   15.10    8.50
  14   2  -1   14.70    7.50
 -14  -2   1    8.10    6.50
  13   2  -1   10.90    6.90
 -13  -2   1   19.70    7.70
 -13  -2   1   14.70    6.90
  12   2  -1    4.60    4.50
 -12  -2   1   19.90    7.10
 -12  -2   1    1.70    4.20
  11   2  -1   31.00    8.50
 -11  -2   1   33.50    9.20
 -11  -2   1   31.80    8.20
 -10  -2   1  418.76   23.00
 -10  -2   1  433.36   25.90
  -9  -2   1    3.80    3.80
  -9  -2   1   13.80    5.10
  -9  -2   1    0.90    4.40
   8   2  -1   96.49    9.60
  -8  -2   1   86.99    9.70
  -8  -2   1   89.39   10.20
  -8  -2   1  106.69    9.80
   7   2  -1  571.74   25.40
  -7  -2   1  601.44   25.40
  -7  -2   1  573.04   26.60
  -7  -2   1  575.14   27.00
   6   2  -1  155.08   11.90
   6   2  -1  132.99   10.00
  -6  -2   1  129.49    9.60
  -6  -2   1  127.69   10.70
  -6  -2   1  132.49   10.70
   5   2  -1 1778.82   56.39
   5   2  -1 1765.62   57.89
   5   2  -1 1764.72   58.39
   5   2  -1 1818.52   62.69
  -5  -2   1 1849.91   58.69
  -5  -2   1 1851.51   56.29
  -5  -2   1 1811.22   58.09
   4   2  -1    7.20    3.00
   4   2  -1    5.40    2.60
   4   2  -1    1.00    2.00
   4   2  -1    8.00    3.00
  -4  -2   1    3.10    2.00
  -4  -2   1    1.80    2.50
  -4  -2   1    2.40    2.40
   3   2  -1  106.39    7.40
   3   2  -1  100.99    7.20
   3   2  -1   90.19    7.10
   3   2  -1  110.99    8.10
  -3  -2   1  103.49    7.10
  -3  -2   1   94.99    7.60
  -3  -2   1   99.69    7.40
   2   2  -1  181.58   10.00
   2   2  -1  200.78   10.00
   2   2  -1  201.28   10.70
  -2  -2   1  210.08   10.80
  -2  -2   1  213.88   10.20
  -2  -2   1  200.28   10.20
   1   2  -1  116.29    6.40
   1   2  -1  118.99    7.30
   1   2  -1  101.29    7.10
  -1  -2   1  121.39    7.50
  -1  -2   1  100.69    6.70
  -1  -2   1  113.79    6.30
   0   2  -1   69.19    5.80
   0   2  -1   76.69    5.30
   0  -2   1   64.29    5.90
   0  -2   1   70.69    3.90
   0  -2   1   61.99    4.80
  -1   2  -1 9694.13  258.47
  -1   2  -1 9369.16  279.37
   1  -2   1 9999.00  281.17
  -2   2  -1  644.74   22.00
  -2   2  -1  664.03   19.10
  -2   2  -1  675.23   25.60
  -2   2  -1  686.23   21.60
   2  -2   1  673.43   19.00
   2  -2   1  722.33   26.10
   2  -2   1  676.43   21.80
  -3   2  -1    3.10    2.50
  -3   2  -1    0.30    0.90
  -3   2  -1    0.10    1.30
  -3   2  -1    1.90    1.20
   3  -2   1    0.20    2.10
   3  -2   1   -0.50    1.10
  -4   2  -1 1622.44   56.59
  -4   2  -1 1756.22   50.59
  -4   2  -1 1736.93   53.69
   4  -2   1 1803.22   51.89
   4  -2   1 1758.82   50.79
   4  -2   1 1837.12   58.49
   4  -2   1 1765.82   50.89
   4  -2   1 1788.82   53.19
  -5   2  -1 1030.60   33.00
  -5   2  -1 1103.49   36.70
   5  -2   1 1018.70   33.00
   5  -2   1 1026.30   33.40
   5  -2   1 1038.40   34.00
   5  -2   1 1030.90   40.00
  -6   2  -1   30.30    5.90
  -6   2  -1   22.70    4.40
   6  -2   1   24.60    5.90
   6  -2   1   20.10    6.20
   6  -2   1   23.30    3.50
   6  -2   1   27.60    4.40
   6  -2   1   27.90    7.90
   6  -2   1   23.60    4.60
  -7   2  -1    3.50    2.80
  -7   2  -1   -1.10    1.30
   7  -2   1   -1.90    2.20
   7  -2   1    1.50    1.60
   7  -2   1   -0.10    1.50
   7  -2   1    0.00    1.60
  -8   2  -1    1.20    2.50
  -8   2  -1    1.90    3.20
   8  -2   1    1.00    2.00
   8  -2   1    1.20    1.90
   8  -2   1    0.30    3.40
   8  -2   1   -0.70    1.50
  -9   2  -1   48.00    6.60
   9  -2   1   73.29   13.90
   9  -2   1   51.09    6.80
   9  -2   1   47.50    6.70
 -10   2  -1  113.59   10.40
 -10   2  -1  102.89   12.10
  10  -2   1  108.49   10.30
  10  -2   1  107.49   11.70
 -11   2  -1  217.48   18.50
 -11   2  -1  229.88   16.00
  11  -2   1  231.68   21.00
  11  -2   1  220.28   15.80
 -12   2  -1    6.60    4.40
 -12   2  -1   17.30    7.20
  12  -2   1    8.50    4.70
  12  -2   1   19.50    8.70
 -13   2  -1   58.69   13.10
  13  -2   1   37.60   11.70
  13  -2   1   54.09    8.70
 -14   2  -1    0.70    4.40
  14  -2   1    3.00    5.80
  15  -2   1   72.59   18.90
  15   1  -1    2.10    6.20
  15   1  -1    9.20    7.30
 -15  -1   1    4.60    5.50
  14   1  -1    4.10    4.90
  14   1  -1   -1.40    3.90
 -14  -1   1   -1.20    4.60
  13   1  -1    7.80    5.60
  13   1  -1   16.10    7.10
 -13  -1   1   13.60    7.00
 -12  -1   1   17.10    7.00
 -12  -1   1   12.20    5.60
  11   1  -1  326.17   23.10
 -11  -1   1  369.66   22.40
 -11  -1   1  366.26   24.10
  10   1  -1   55.79   11.00
 -10  -1   1   58.89   11.30
 -10  -1   1   45.00   10.10
 -10  -1   1   41.60    8.60
   9   1  -1   71.39    9.50
  -9  -1   1   76.29    9.80
  -9  -1   1   76.49   10.00
  -9  -1   1   75.59    9.20
   8   1  -1   22.30    5.60
  -8  -1   1   24.30    6.70
  -8  -1   1   30.70    6.30
  -8  -1   1   24.60    6.20
  -8  -1   1   30.20    7.10
   7   1  -1   15.90    4.70
   7   1  -1   12.80    4.40
  -7  -1   1    9.30    4.20
  -7  -1   1    7.00    3.50
  -7  -1   1    8.10    4.40
  -7  -1   1   11.40    3.70
   6   1  -1  312.27   15.60
   6   1  -1  333.17   17.60
   6   1  -1  319.57   18.80
   6   1  -1  310.77   17.40
  -6  -1   1  323.77   15.50
  -6  -1   1  339.87   17.80
  -6  -1   1  310.07   16.50
  -6  -1   1  312.47   17.20
   5   1  -1  134.69    9.90
   5   1  -1  142.99    9.00
   5   1  -1  148.59   10.30
   5   1  -1  132.69   11.60
  -5  -1   1  142.49    9.70
  -5  -1   1  135.39   10.10
  -5  -1   1  153.88    9.20
  -5  -1   1  140.99   10.20
   4   1  -1   84.09    6.20
   4   1  -1   86.79    7.20
   4   1  -1   90.09    7.30
   4   1  -1   99.69    7.80
  -4  -1   1  101.19    7.70
  -4  -1   1   77.99    6.90
  -4  -1   1   92.09    7.50
  -4  -1   1   95.59    6.40
   3   1  -1  562.74   19.60
   3   1  -1  575.54   21.40
   3   1  -1  574.74   21.20
   3   1  -1  553.84   21.00
  -3  -1   1  585.14   21.40
  -3  -1   1  579.54   21.40
  -3  -1   1  568.34   19.40
  -3  -1   1  556.84   21.00
   2   1  -1 1332.67   39.60
   2   1  -1 1330.77   40.80
   2   1  -1 1365.66   41.10
  -2  -1   1 1374.26   39.50
  -2  -1   1 1365.76   41.10
   1   1  -1 4216.98  124.29
   1   1  -1 4290.57  125.19
  -1  -1   1 4269.67  124.79
  -1  -1   1 4320.57  124.39
   0   1  -1  891.91   27.30
   0   1  -1  892.11   26.80
   0  -1   1  868.81   24.90
  -1   1  -1  751.12   24.70
   1  -1   1  750.42   24.70
   1  -1   1  727.03   22.70
  -2   1  -1  279.27   10.30
  -2   1  -1  260.17   12.50
  -2   1  -1  267.17   10.20
  -2   1  -1  253.67    8.50
   2  -1   1  260.47    8.60
   2  -1   1  267.87    9.90
   2  -1   1  277.77   10.50
   2  -1   1  265.27   12.60
  -3   1  -1 1692.23   52.79
  -3   1  -1 1705.03   47.90
   3  -1   1 1648.44   52.99
   3  -1   1 1703.13   48.10
   3  -1   1 1730.83   48.80
  -4   1  -1 1460.35   45.80
  -4   1  -1 1451.55   43.60
   4  -1   1 1491.35   47.00
   4  -1   1 1444.76   43.90
   4  -1   1 1509.05   44.40
   4  -1   1 1474.25   49.20
   4  -1   1 1483.45   45.10
   4  -1   1 1482.05   44.90
  -5   1  -1   13.60    3.70
  -5   1  -1   10.50    2.90
   5  -1   1   11.40    3.10
   5  -1   1    4.00    2.20
   5  -1   1    3.80    2.50
   5  -1   1   11.50    3.40
   5  -1   1   12.50    4.70
   5  -1   1   10.50    3.30
  -6   1  -1  405.56   19.40
  -6   1  -1  390.16   17.60
   6  -1   1  418.56   18.20
   6  -1   1  395.56   18.20
   6  -1   1  435.06   19.30
   6  -1   1  453.55   19.10
   6  -1   1  434.96   20.40
   6  -1   1  442.56   22.80
  -7   1  -1    2.60    2.60
  -7   1  -1    5.60    3.10
   7  -1   1    4.70    2.80
   7  -1   1   13.00    4.70
   7  -1   1    3.70    3.00
   7  -1   1   10.50    3.80
   7  -1   1   10.50    5.40
  -8   1  -1    1.00    2.80
  -8   1  -1    1.80    2.30
   8  -1   1    3.30    3.00
   8  -1   1    3.80    3.70
   8  -1   1    9.00    3.60
   8  -1   1   -0.20    1.50
  -9   1  -1  225.98   16.40
  -9   1  -1  231.88   14.90
   9  -1   1  214.48   18.20
   9  -1   1  208.98   14.70
 -10   1  -1   33.00    7.00
 -10   1  -1   14.00    5.80
  10  -1   1   15.20    5.40
  10  -1   1   10.20    6.00
 -11   1  -1  107.29   12.90
 -11   1  -1  105.59   11.40
  11  -1   1   81.99   13.20
  11  -1   1  102.09   11.00
 -12   1  -1   19.90    6.80
 -12   1  -1   12.60    6.30
  12  -1   1   11.90    6.90
  12  -1   1   22.30    7.20
 -13   1  -1   14.60    7.50
  13  -1   1    5.70    4.40
  13  -1   1   18.80    9.10
  14  -1   1   85.59   12.00
  14  -1   1   57.99   14.70
  15   0  -1   44.90   11.00
 -15   0   1   25.00    9.90
  14   0  -1    2.00    4.70
  14   0  -1    3.70    4.20
 -14   0   1    1.50    4.40
  13   0  -1    8.80    5.90
  13   0  -1   28.20    8.40
 -13   0   1   17.30    8.00
 -13   0   1   29.00   11.20
  12   0  -1    0.30    2.60
  12   0  -1   15.60    6.80
 -12   0   1   15.20    7.10
 -12   0   1    2.00    4.50
  11   0  -1   57.79    9.60
 -11   0   1   82.49   11.00
 -11   0   1   47.00    7.50
 -11   0   1   74.59   11.40
  10   0  -1  377.96   23.30
 -10   0   1  362.96   23.60
 -10   0   1  362.96   20.20
 -10   0   1  368.06   22.70
   9   0  -1   39.20    6.40
   9   0  -1   48.30    8.00
  -9   0   1   40.00    6.40
  -9   0   1   49.10   10.30
  -9   0   1   43.50    8.80
   8   0  -1  316.77   17.10
   8   0  -1  317.07   18.10
   8   0  -1  334.07   19.20
  -8   0   1  317.37   19.80
  -8   0   1  348.27   18.00
  -8   0   1  297.77   18.60
   7   0  -1   26.30    5.80
   7   0  -1   33.30    5.50
   7   0  -1   33.10    5.00
  -7   0   1   43.40    6.50
  -7   0   1   51.39    9.50
  -7   0   1   34.60    5.30
   6   0  -1  483.35   21.40
   6   0  -1  513.15   23.20
   6   0  -1  545.55   22.40
   6   0  -1  490.55   20.30
   6   0  -1  514.65   25.20
  -6   0   1  515.05   23.30
  -6   0   1  495.75   22.60
  -6   0   1  473.85   20.80
   5   0  -1   26.50    4.10
   5   0  -1   28.50    4.60
   5   0  -1   27.00    3.60
   5   0  -1   27.80    4.50
  -5   0   1   33.40    6.30
  -5   0   1   26.90    5.20
  -5   0   1   30.70    3.90
  -5   0   1   30.70    4.30
   4   0  -1  342.87   15.80
   4   0  -1  361.46   15.10
   4   0  -1  347.97   16.10
   4   0  -1  347.87   13.60
  -4   0   1  349.47   16.00
  -4   0   1  348.57   15.80
  -4   0   1  344.27   13.60
  -4   0   1  353.36   14.70
   3   0  -1  179.68    8.00
   3   0  -1  199.88    9.40
   3   0  -1  204.38   10.40
   3   0  -1  208.78   10.20
  -3   0   1  185.18    9.90
  -3   0   1  197.58    8.10
  -3   0   1  196.88    9.20
  -3   0   1  181.58    9.80
   2   0  -1 1000.30   30.70
   2   0  -1  974.20   30.10
   2   0  -1 1016.50   28.30
   2   0  -1 1021.90   31.00
  -2   0   1  976.10   30.10
  -2   0   1 1010.40   31.10
  -2   0   1  988.30   28.20
   1   0  -1 1578.24   41.90
  -1   0   1 1514.25   41.40
  -1   0  -1  204.98    6.50
  -1   0  -1  214.38    6.90
   1   0   1  223.18    9.10
   1   0   1  217.68    7.00
   1   0   1  213.98    8.50
   1   0   1  214.98    6.80
   1   0   1  224.58    8.40
  -2   0  -1   23.80    2.30
  -2   0  -1   25.20    2.30
   2   0   1   18.60    2.40
   2   0   1   21.00    3.00
   2   0   1   22.00    2.50
   2   0   1   20.00    2.70
   2   0   1   18.90    3.70
  -3   0  -1  621.44   21.30
  -3   0  -1  640.34   21.10
   3   0   1  649.83   22.90
   3   0   1  667.33   24.40
   3   0   1  668.93   22.00
   3   0   1  646.54   21.30
   3   0   1  660.03   22.30
   3   0   1  641.64   21.20
  -4   0  -1  202.48    9.90
  -4   0  -1  208.18   10.40
   4   0   1  192.78   10.40
   4   0   1  197.68   10.20
   4   0   1  201.58   11.10
   4   0   1  200.98    9.90
   4   0   1  186.58    9.70
   4   0   1  213.48   12.40
  -5   0  -1    9.60    3.10
  -5   0  -1    4.60    2.40
   5   0   1    6.80    3.70
   5   0   1    8.00    2.60
   5   0   1    7.00    3.00
   5   0   1    3.60    2.20
   5   0   1    5.80    2.60
   5   0   1    5.60    2.50
  -6   0  -1    3.40    2.30
  -6   0  -1    5.30    2.90
   6   0   1    5.20    2.70
   6   0   1    9.10    3.40
   6   0   1    4.40    2.40
   6   0   1    3.70    3.00
   6   0   1    4.00    2.30
   6   0   1    4.60    2.70
  -7   0  -1    4.80    2.90
  -7   0  -1   -1.20    1.80
   7   0   1    0.30    1.40
   7   0   1    2.30    2.20
   7   0   1   -1.80    1.30
   7   0   1    1.50    1.90
   7   0   1    7.00    4.20
  -8   0  -1  700.03   29.50
  -8   0  -1  705.63   30.90
   8   0   1  759.82   31.20
   8   0   1  715.63   30.40
   8   0   1  693.43   34.00
  -9   0  -1   37.00    7.90
  -9   0  -1   32.40    7.30
   9   0   1   26.20    6.70
   9   0   1   35.20    9.20
 -10   0  -1  256.17   18.50
 -10   0  -1  237.28   16.70
  10   0   1  258.47   21.20
  10   0   1  248.28   17.50
 -11   0  -1   30.80    7.80
 -11   0  -1   18.10    7.20
  11   0   1   37.10    9.60
  11   0   1   30.60    9.90
 -12   0  -1   33.90    9.90
 -12   0  -1   17.00    6.20
  12   0   1   25.50    9.40
  12   0   1   25.70    8.00
  13   0   1   69.39   13.70
  13   0   1   65.39   14.90
  14   0   1  141.29   15.70
  14   0   1  160.98   19.90
  15   0   1    7.40    6.60
  15   0   1    3.50    6.90
 -15   1   1   12.20    7.20
  14  -1  -1   15.80    6.60
  14  -1  -1   14.50    7.70
 -14   1   1   18.70    8.60
 -14   1   1   11.40    6.30
  13  -1  -1   -1.10    3.80
  13  -1  -1    7.20    5.60
 -13   1   1    0.10    3.70
 -13   1   1   -0.20    4.80
  12  -1  -1  180.18   14.70
  12  -1  -1  144.39   15.50
 -12   1   1  170.38   17.60
 -12   1   1  162.38   15.90
  11  -1  -1   50.09    9.60
  11  -1  -1   23.50    7.90
 -11   1   1   21.60    6.70
 -11   1   1   29.10    8.90
  10  -1  -1  155.88   12.50
  10  -1  -1  125.09   13.10
 -10   1   1  168.68   18.50
 -10   1   1  144.39   14.80
   9  -1  -1  160.78   12.40
   9  -1  -1  165.08   12.40
   9  -1  -1  178.98   14.30
  -9   1   1  179.18   15.40
  -9   1   1  180.28   14.30
  -9   1   1  159.88   11.40
   8  -1  -1  127.69   10.10
   8  -1  -1  142.69   10.90
   8  -1  -1  119.09   11.20
  -8   1   1  135.09    9.80
  -8   1   1  129.99   12.30
  -8   1   1  148.59   12.20
   7  -1  -1 1574.14   51.49
   7  -1  -1 1677.93   54.39
   7  -1  -1 1542.75   50.99
   7  -1  -1 1585.74   58.19
  -7   1   1 1607.84   55.79
  -7   1   1 1610.94   50.49
  -7   1   1 1541.15   53.69
   6  -1  -1  172.18   11.60
   6  -1  -1  197.28   11.10
   6  -1  -1  194.98   12.50
   6  -1  -1  197.78   11.00
  -6   1   1  200.08   10.70
  -6   1   1  190.38   12.30
  -6   1   1  184.98   12.90
   5  -1  -1   74.89    6.00
   5  -1  -1   73.59    7.10
   5  -1  -1   66.29    5.60
   5  -1  -1   66.29    6.50
   5  -1  -1   86.29    7.10
  -5   1   1   65.99    6.90
  -5   1   1   70.59    6.90
  -5   1   1   65.59    5.50
   4  -1  -1   46.30    5.10
   4  -1  -1   35.40    3.70
   4  -1  -1   34.80    4.10
   4  -1  -1   30.70    3.50
   4  -1  -1   32.60    4.30
  -4   1   1   35.30    4.60
  -4   1   1   38.00    3.70
  -4   1   1   39.80    5.10
   3  -1  -1   80.59    5.30
   3  -1  -1   78.69    6.10
   3  -1  -1   88.99    6.30
   3  -1  -1   86.89    5.10
   3  -1  -1   92.89    5.10
  -3   1   1   96.89    5.10
  -3   1   1   86.69    6.30
   2  -1  -1    1.10    1.50
   2  -1  -1    3.60    1.40
   2  -1  -1    2.20    1.60
   2  -1  -1    3.10    1.30
  -2   1   1    4.60    1.90
  -2   1   1    3.80    1.40
  -2   1   1    2.70    1.20
  -2   1   1    7.70    2.20
   1  -1  -1 1080.19   30.30
  -1   1   1 1092.79   32.80
  -1   1   1 1092.49   30.30
   0  -1  -1   29.30    2.50
   0   1   1   26.70    2.30
   0   1   1   24.20    2.00
   0   1   1   28.80    2.10
  -1  -1  -1  614.14   19.60
  -1  -1  -1  630.64   18.80
   1   1   1  616.24   19.60
   1   1   1  597.84   19.20
   1   1   1  618.94   19.70
   1   1   1  626.44   18.90
   2   1   1 1733.93   48.90
   2   1   1 1753.12   49.80
  -3  -1  -1  859.11   27.90
  -3  -1  -1  859.21   28.90
  -3  -1  -1  848.32   28.30
   3   1   1  857.31   27.30
   3   1   1  895.01   28.10
   3   1   1  850.31   28.80
   3   1   1  860.01   28.60
  -4  -1  -1  319.47   14.90
  -4  -1  -1  381.66   15.00
  -4  -1  -1  343.67   15.70
   4   1   1  350.66   15.80
   4   1   1  334.07   14.80
   4   1   1  335.37   14.50
   4   1   1  345.57   15.40
  -5  -1  -1    2.50    2.00
  -5  -1  -1   -1.00    1.40
  -5  -1  -1    3.00    2.10
  -5  -1  -1    3.10    2.30
   5   1   1   -1.40    1.10
   5   1   1    1.40    1.90
   5   1   1    4.60    2.60
   5   1   1   -1.00    1.40
  -6  -1  -1    1.00    1.70
  -6  -1  -1    2.30    2.20
  -6  -1  -1    6.40    3.40
  -6  -1  -1    1.60    2.20
   6   1   1    4.10    2.40
   6   1   1    1.00    1.60
   6   1   1    1.10    1.90
   6   1   1    3.00    2.50
  -7  -1  -1   28.40    6.70
  -7  -1  -1   13.70    4.40
  -7  -1  -1   29.10    6.50
  -7  -1  -1   17.60    4.90
   7   1   1   19.30    5.60
   7   1   1   11.80    4.40
   7   1   1   18.40    5.20
   7   1   1   13.90    4.50
  -8  -1  -1  670.43   28.60
  -8  -1  -1  579.44   27.80
  -8  -1  -1  623.64   27.80
   8   1   1  722.43   33.40
  -9  -1  -1  465.15   24.40
  -9  -1  -1  454.75   24.50
   9   1   1  512.95   26.30
   9   1   1  509.35   29.10
 -10  -1  -1   32.80    7.80
 -10  -1  -1   16.10    5.60
  10   1   1   28.80    9.00
  10   1   1   29.60    8.00
 -11  -1  -1    1.50    2.90
  11   1   1   -0.50    2.40
  11   1   1    1.70    4.60
  12   1   1    7.40    5.20
  12   1   1   21.00    8.90
  13   1   1   39.30   11.60
  13   1   1   44.20   12.00
  14   1   1   54.29   14.10
  14   1   1   79.89   12.60
  15   1   1   32.60   10.40
  15   1   1   34.10   14.10
 -15   2   1   -0.40    5.90
 -15   2   1   13.60    7.50
  14  -2  -1    3.50    5.60
 -14   2   1    3.30    4.50
 -14   2   1   13.20    8.70
  13  -2  -1   97.09   10.70
  13  -2  -1  101.69   13.60
 -13   2   1  132.89   14.50
 -13   2   1  138.99   17.20
  12  -2  -1  133.19   11.80
  12  -2  -1  161.68   16.20
 -12   2   1  156.78   15.10
 -12   2   1  151.08   17.00
  11  -2  -1  175.68   15.90
  11  -2  -1  147.49   11.90
 -11   2   1  153.08   16.10
 -11   2   1  157.38   14.50
  10  -2  -1   10.10    5.00
  10  -2  -1    3.10    3.10
  10  -2  -1    8.90    3.70
 -10   2   1   27.70    8.80
 -10   2   1   27.50    7.40
   9  -2  -1  106.29   11.70
   9  -2  -1  113.69    9.30
   9  -2  -1   87.09   10.40
  -9   2   1  119.29   11.40
  -9   2   1  115.59   12.60
   8  -2  -1  241.18   13.40
   8  -2  -1  250.87   13.30
   8  -2  -1  232.88   16.00
   8  -2  -1  221.08   14.00
  -8   2   1  239.08   15.60
  -8   2   1  221.18   16.60
   7  -2  -1  640.84   24.30
   7  -2  -1  656.13   28.40
   7  -2  -1  667.23   28.20
   7  -2  -1  655.73   26.10
  -7   2   1  618.84   29.00
  -7   2   1  658.23   27.70
   6  -2  -1  213.58   11.70
   6  -2  -1  198.98   12.60
   6  -2  -1  214.28   13.20
   6  -2  -1  193.98   10.20
  -6   2   1  189.88   13.40
  -6   2   1  197.28   12.50
  -6   2   1  203.08    9.60
   5  -2  -1   61.69    6.20
   5  -2  -1   48.70    5.80
   5  -2  -1   58.69    7.10
   5  -2  -1   60.39    4.70
   5  -2  -1   57.59    5.40
  -5   2   1   66.29    7.20
  -5   2   1   58.69    6.20
  -5   2   1   68.19    4.50
   4  -2  -1   21.00    2.50
   4  -2  -1   26.10    4.90
   4  -2  -1   26.80    4.00
   4  -2  -1   25.80    5.60
  -4   2   1   15.70    3.70
  -4   2   1   21.50    2.30
  -4   2   1   27.80    5.40
  -4   2   1   22.70    3.60
   3  -2  -1  253.97    8.30
   3  -2  -1  224.18   11.00
   3  -2  -1  226.68   11.60
   3  -2  -1  265.37   11.80
  -3   2   1  233.48   11.20
  -3   2   1  249.08   12.30
  -3   2   1  236.28    7.90
  -3   2   1  247.58   11.20
   2  -2  -1  300.17   12.20
   2  -2  -1  302.87   12.50
   2  -2  -1  292.37   12.10
  -2   2   1  314.37   12.90
  -2   2   1  275.17   11.90
  -2   2   1  309.87   12.40
   1  -2  -1  591.24   19.40
   1  -2  -1  567.94   18.90
  -1   2   1  574.34   16.70
  -1   2   1  576.24   19.20
  -1   2   1  591.44   19.40
  -1   2   1  572.74   19.40
   0  -2  -1   26.60    2.40
   0  -2  -1   26.90    3.20
   0  -2  -1   21.90    2.60
   0   2   1   20.30    3.00
   0   2   1   22.90    2.60
  -1  -2  -1   49.00    3.70
  -1  -2  -1   52.89    4.50
  -1  -2  -1   48.30    4.00
   1   2   1   53.89    4.20
   1   2   1   48.90    3.80
   1   2   1   50.39    4.50
  -2  -2  -1 3907.41  123.29
   2   2   1 3952.10  124.49
   3   2   1 2106.99   62.49
   3   2   1 2121.69   63.59
   3   2   1 2149.48   63.39
  -4  -2  -1   91.69    7.20
  -4  -2  -1   88.49    7.50
  -4  -2  -1   80.59    7.20
   4   2   1   95.59    7.80
   4   2   1   81.69    6.50
   4   2   1   95.79    7.30
   4   2   1   86.59    7.40
  -5  -2  -1  207.18   12.40
  -5  -2  -1  217.78   13.10
  -5  -2  -1  211.38   12.90
   5   2   1  225.18   12.30
   5   2   1  218.38   12.80
   5   2   1  215.48   13.00
  -6  -2  -1   -1.40    1.40
  -6  -2  -1    2.30    2.40
  -6  -2  -1   13.60    4.20
   6   2   1    2.70    2.40
   6   2   1    1.00    1.90
   6   2   1    3.30    2.90
   6   2   1    4.90    3.10
  -7  -2  -1  868.91   35.10
  -7  -2  -1  873.01   34.40
  -7  -2  -1  849.91   34.30
  -8  -2  -1   50.29    7.60
  -8  -2  -1   46.20    7.10
  -8  -2  -1   67.29    8.60
  -9  -2  -1  188.38   14.70
  -9  -2  -1  172.38   14.60
  -9  -2  -1  141.49   12.80
 -10  -2  -1    2.40    3.50
  10   2   1    5.80    5.30
 -11  -2  -1   45.30   10.10
  11   2   1   39.50   10.80
  11   2   1   62.59   10.10
  12   2   1  217.68   19.60
  12   2   1  251.17   23.20
  13   2   1   14.30    9.10
  13   2   1   63.19   13.80
  14   2   1    1.00    3.70
  14   2   1   -2.30    4.10
  15   2   1   11.60    8.40
  14  -3  -1  180.08   23.30
 -14   3   1  203.38   21.70
 -14   3   1  159.08   16.40
  13  -3  -1    0.60    4.60
 -13   3   1    5.90    6.30
 -13   3   1   12.00    6.10
  12  -3  -1  163.48   23.10
  12  -3  -1  127.09    9.80
 -12   3   1  142.79   14.10
 -12   3   1  151.18   17.20
  11  -3  -1   50.19    6.00
  11  -3  -1   19.00    5.70
  11  -3  -1   33.00    8.50
 -11   3   1   38.80    8.60
 -11   3   1   53.19   11.50
  10  -3  -1   91.59    7.90
  10  -3  -1   98.19    8.00
  10  -3  -1  124.69   13.10
 -10   3   1  104.29   11.10
 -10   3   1   77.09   14.00
   9  -3  -1    8.80    3.20
   9  -3  -1   14.80    6.00
   9  -3  -1   17.70    4.20
  -9   3   1   19.70    5.80
  -9   3   1   11.50    5.70
   8  -3  -1  167.18    9.20
   8  -3  -1  170.78    9.60
   8  -3  -1  151.98   11.80
   8  -3  -1  163.68   13.70
  -8   3   1  171.68   12.80
  -8   3   1  165.38   14.30
   7  -3  -1    5.20    3.60
   7  -3  -1    4.70    2.00
   7  -3  -1    8.00    2.40
   7  -3  -1    0.70    2.20
   7  -3  -1    5.60    3.10
  -7   3   1    3.10    2.50
  -7   3   1    3.60    3.00
   6  -3  -1  312.67   17.40
   6  -3  -1  315.17   11.60
   6  -3  -1  289.97   15.80
   6  -3  -1  289.97   15.00
   6  -3  -1  310.07   11.80
  -6   3   1  288.37   15.70
  -6   3   1  297.07   17.60
   5  -3  -1  105.89    4.80
   5  -3  -1   90.19    7.60
   5  -3  -1   95.39    8.50
   5  -3  -1  100.89    4.60
  -5   3   1  108.39    8.40
  -5   3   1   93.29    8.80
  -5   3   1   91.79    8.10
   4  -3  -1  463.45   19.00
   4  -3  -1  471.55   20.20
  -4   3   1  489.35   19.50
  -4   3   1  479.25   20.30
  -4   3   1  474.85   21.00
   3  -3  -1   28.70    3.70
   3  -3  -1   26.00    4.90
  -3   3   1   29.70    4.00
  -3   3   1   26.90    4.20
  -3   3   1   30.40    5.70
   2  -3  -1  818.92   26.50
   2  -3  -1  825.12   28.40
  -2   3   1  807.32   27.80
  -2   3   1  800.52   28.10
  -2   3   1  797.72   26.70
   1  -3  -1    2.30    2.10
   1  -3  -1    1.80    1.00
   1  -3  -1    2.70    1.40
  -1   3   1    0.80    0.90
  -1   3   1    2.30    2.10
  -1   3   1    1.20    1.60
   0  -3  -1  155.98    7.80
   0  -3  -1  151.98    9.10
   0  -3  -1  145.89    7.20
   0   3   1  144.89    8.90
   0   3   1  161.68    8.10
   0   3   1  164.88    7.60
  -1  -3  -1  966.10   30.80
  -1  -3  -1  952.80   30.20
  -1  -3  -1  965.60   32.40
   1   3   1  958.50   30.80
   1   3   1  956.50   32.60
   1   3   1  989.50   30.70
  -2  -3  -1   96.59    7.10
   2   3   1   98.59    7.70
   2   3   1   89.89    6.90
   3   3   1 3063.99   90.09
   3   3   1 3113.29   91.09
   3   3   1 3118.39   89.39
  -4  -3  -1   61.39    6.60
  -4  -3  -1   64.79    6.90
   4   3   1   47.30    6.00
   4   3   1   57.09    6.50
   4   3   1   52.19    5.90
  -5  -3  -1  565.04   24.40
  -5  -3  -1  529.85   23.90
   5   3   1  559.84   24.70
   5   3   1  555.44   24.70
   5   3   1  533.55   23.60
   5   3   1  550.34   25.00
  -6  -3  -1  670.83   29.30
  -6  -3  -1  707.13   29.50
  -6  -3  -1  698.73   29.00
   6   3   1  647.74   29.30
   6   3   1  687.73   28.00
  -7  -3  -1   49.50    7.10
  -7  -3  -1   58.69    7.90
  -7  -3  -1   64.79    8.20
  -8  -3  -1  162.68   13.40
  -8  -3  -1  136.59   12.60
  -8  -3  -1  156.18   13.30
  -9  -3  -1   34.10    8.70
  -9  -3  -1   16.30    6.40
  -9  -3  -1   24.80    8.30
 -10  -3  -1   35.20   12.50
 -10  -3  -1   17.40    6.20
 -11  -3  -1   75.59   10.70
 -11  -3  -1   67.39   10.60
  12   3   1  304.07   25.70
  12   3   1  322.07   24.80
  13   3   1   52.09   12.50
  13   3   1   66.09   15.20
  14   3   1   25.80   10.20
  14   3   1   38.30   12.30
  15   3   1   27.40   11.20
  15   3   1   30.60   13.10
 -14   4   1   26.60    8.00
 -14   4   1   51.39   14.00
  13  -4  -1   22.40    8.60
 -13   4   1   13.90    8.40
 -13   4   1   33.70    9.00
  12  -4  -1  114.09   13.90
 -12   4   1  100.19   21.10
 -12   4   1   71.49   10.20
  11  -4  -1   14.20    6.40
 -11   4   1   11.20    6.30
 -11   4   1    6.10    4.20
  10  -4  -1   25.50    7.90
 -10   4   1   23.90    8.70
 -10   4   1   21.20    6.50
   9  -4  -1  726.83   23.70
   9  -4  -1  953.80   39.70
  -9   4   1  994.90   41.90
  -9   4   1  970.50   36.80
   8  -4  -1   43.60    9.10
  -8   4   1   32.60    7.10
  -8   4   1   39.80    9.20
   7  -4  -1  106.49    9.40
   7  -4  -1  115.39    9.70
   7  -4  -1   97.79   10.40
  -7   4   1  106.59    9.60
  -7   4   1  103.19   11.00
   6  -4  -1   42.00    5.70
   6  -4  -1   46.80    7.10
  -6   4   1   39.10    5.70
  -6   4   1   51.89    7.60
  -6   4   1   45.60    6.60
   5  -4  -1  113.49   10.20
   5  -4  -1  120.89    8.80
  -5   4   1  119.39   10.10
  -5   4   1  143.19   11.30
  -5   4   1  118.09    8.90
   4  -4  -1  158.18   11.50
   4  -4  -1  166.28    9.70
  -4   4   1  178.78   10.50
  -4   4   1  149.09   11.10
  -4   4   1  146.69   11.10
   3  -4  -1 2159.68   65.79
   3  -4  -1 2029.70   61.29
  -3   4   1 2024.80   64.49
  -3   4   1 2138.39   65.59
   2  -4  -1   57.89    4.90
   2  -4  -1   68.19    6.90
  -2   4   1   55.89    2.90
  -2   4   1   46.30    5.90
  -2   4   1   50.79    3.00
  -2   4   1   64.59    5.60
   1  -4  -1  430.66   14.70
   1  -4  -1  414.56   16.10
   1  -4  -1  441.46   19.30
  -1   4   1  402.06   14.80
  -1   4   1  456.05   19.70
  -1   4   1  425.26   16.70
   0  -4  -1    7.70    2.40
   0  -4  -1    6.60    2.10
   0  -4  -1    3.00    2.40
   0   4   1   11.10    3.60
   0   4   1    8.10    2.60
   0   4   1    8.10    2.80
  -1  -4  -1    3.80    2.20
  -1  -4  -1    2.50    1.60
  -1  -4  -1    3.60    2.70
   1   4   1    3.10    2.00
   1   4   1    8.60    3.80
   1   4   1    1.50    2.10
  -2  -4  -1   62.49    7.00
  -2  -4  -1   58.29    6.00
   2   4   1   58.29    6.00
   2   4   1   72.29    7.40
   2   4   1   71.19    6.00
  -3  -4  -1   13.80    4.30
  -3  -4  -1   13.60    4.20
   3   4   1   15.50    4.50
   3   4   1   19.50    4.60
   3   4   1   24.60    5.10
   3   4   1   18.20    4.30
  -4  -4  -1    4.80    3.20
  -4  -4  -1    9.70    4.00
   4   4   1    8.80    3.90
   4   4   1   17.50    4.60
   4   4   1   11.00    3.50
  -5  -4  -1  919.61   35.80
  -5  -4  -1  891.71   35.40
   5   4   1  900.61   36.30
   5   4   1  874.91   35.80
   5   4   1  949.60   35.30
  -6  -4  -1  133.19   11.60
  -6  -4  -1  124.19   11.20
  -7  -4  -1  101.89   10.50
  -7  -4  -1   88.39   10.10
  -8  -4  -1   94.89   11.10
  -8  -4  -1  118.89   12.00
  -9  -4  -1  119.29   12.80
  -9  -4  -1  137.99   13.70
 -10  -4  -1    7.50    5.10
 -10  -4  -1    4.40    4.40
 -11  -4  -1  261.97   20.60
 -11  -4  -1  255.87   20.60
 -12  -4  -1   84.79   12.80
 -12  -4  -1   84.49   12.20
  13   4   1   83.79   17.40
  13   4   1   77.29   15.80
  14   4   1    0.70    4.20
  14   4   1   16.60    9.40
  15   4   1   27.50   12.20
  15   4   1   17.50    7.90
  15   4   1   62.69   16.30
 -14   5   1   -2.40    4.50
  13  -5  -1   11.70    7.00
 -13   5   1   26.30   10.00
 -13   5   1   19.70    7.00
  12  -5  -1   11.20    7.10
 -12   5   1    3.60    4.20
 -12   5   1   20.30    8.70
  11  -5  -1    1.50    3.50
 -11   5   1   -3.30    3.30
 -11   5   1    1.20    3.70
  10  -5  -1   64.49   10.70
 -10   5   1   59.19    8.40
 -10   5   1   73.99   13.90
   9  -5  -1  588.44   31.10
  -9   5   1  584.54   32.00
  -9   5   1  550.74   26.50
   8  -5  -1  160.18   14.90
  -8   5   1  157.28   15.10
  -8   5   1  162.48   12.40
   7  -5  -1  138.79   10.80
   7  -5  -1  172.78   14.70
  -7   5   1  160.98   14.20
  -7   5   1  176.08   12.20
   6  -5  -1  145.79   12.90
   6  -5  -1  143.69   10.10
  -6   5   1  128.59   11.90
  -6   5   1  139.19   10.60
  -6   5   1  176.88   13.80
   5  -5  -1   34.20    7.50
   5  -5  -1   28.40    4.30
  -5   5   1   25.50    5.40
  -5   5   1   23.40    6.20
  -5   5   1   24.90    6.10
   4  -5  -1  525.15   24.60
   4  -5  -1  467.65   19.50
  -4   5   1  515.25   23.40
  -4   5   1  474.05   20.50
  -4   5   1  458.85   23.30
   3  -5  -1   77.29    6.10
   3  -5  -1   67.39    8.10
  -3   5   1   57.09    5.90
  -3   5   1   71.89    7.50
   2  -5  -1  171.98   12.40
   2  -5  -1  167.58    7.10
   2  -5  -1  181.18    9.80
  -2   5   1  192.48   13.00
  -2   5   1  176.28   10.30
  -2   5   1  172.28    7.60
   1  -5  -1   16.60    3.10
   1  -5  -1   16.40    5.10
   1  -5  -1   14.50    3.30
  -1   5   1   15.60    4.00
  -1   5   1   18.40    5.50
  -1   5   1   18.20    3.60
   0  -5  -1  382.96   19.40
   0  -5  -1  373.26   15.80
   0  -5  -1  374.06   15.70
   0   5   1  358.46   15.80
   0   5   1  408.56   16.80
   0   5   1  365.76   19.20
  -1  -5  -1   30.50    4.10
  -1  -5  -1   36.40    4.70
  -1  -5  -1   40.40    7.50
   1   5   1   39.90    4.90
   1   5   1   34.00    4.70
  -2  -5  -1 1100.69   40.10
  -2  -5  -1 1080.69   37.50
   2   5   1 1081.19   37.90
   2   5   1 1041.30   39.80
   2   5   1 1064.79   36.60
  -3  -5  -1    2.90    2.60
  -3  -5  -1    8.40    3.50
   3   5   1    8.90    3.60
   3   5   1    1.10    2.40
   3   5   1    0.80    2.40
   3   5   1    2.40    2.30
  -4  -5  -1    1.00    3.00
  -4  -5  -1    9.50    3.70
   4   5   1    8.20    3.20
   4   5   1    9.10    3.70
   4   5   1    7.60    3.60
   4   5   1    9.80    4.40
  -5  -5  -1  907.11   36.80
  -5  -5  -1  917.91   37.30
  -6  -5  -1  138.09   12.50
  -6  -5  -1  132.99   12.10
  -7  -5  -1   72.09    9.60
  -7  -5  -1   86.99   10.40
  -8  -5  -1   10.70    5.70
  -8  -5  -1    7.20    4.70
  -9  -5  -1   29.60    8.70
  -9  -5  -1   29.40    8.10
 -10  -5  -1  230.88   19.30
 -10  -5  -1  209.98   18.30
 -11  -5  -1    9.50    5.80
 -11  -5  -1    8.20    5.90
 -12  -5  -1   53.49   12.60
 -12  -5  -1   80.29   12.30
 -13  -5  -1   11.40    6.90
 -13  -5  -1   16.50    7.30
  14   5   1   17.30    7.90
  14   5   1    8.30    6.90
  14   5   1   11.50    9.80
  15   5   1   -1.20    3.90
  15   5   1    3.20    5.90
  15   5   1    1.60    5.90
 -13   6   1   -2.00    4.60
  12  -6  -1    2.50    5.20
 -12   6   1    4.20    3.90
 -12   6   1   -0.30    4.60
  11  -6  -1    5.30    4.90
 -11   6   1    8.40    6.20
 -11   6   1    0.00    3.20
  10  -6  -1  105.29   13.70
 -10   6   1  129.49   11.60
 -10   6   1  106.89   14.30
   9  -6  -1  234.28   19.40
  -9   6   1  220.98   19.60
  -9   6   1  262.67   16.30
   8  -6  -1  123.49   13.70
  -8   6   1  127.79   10.90
  -8   6   1  112.29   13.30
   7  -6  -1  114.69    9.40
   7  -6  -1  120.79   13.10
  -7   6   1  102.29   12.10
  -7   6   1  114.29   10.10
   6  -6  -1   45.40    5.80
   6  -6  -1   60.89    9.20
  -6   6   1   39.30    6.00
  -6   6   1   52.49   10.20
   5  -6  -1  155.48   14.00
   5  -6  -1  168.78   12.00
  -5   6   1  178.68   14.20
  -5   6   1  159.38   11.20
   4  -6  -1  190.78   11.20
   4  -6  -1  185.88   14.80
  -4   6   1  209.38   14.60
  -4   6   1  203.88   12.30
   3  -6  -1    1.90    1.70
   3  -6  -1   -0.70    2.30
  -3   6   1   -0.20    1.80
  -3   6   1    0.80    2.20
  -3   6   1   -1.80    1.40
   2  -6  -1  339.07   15.90
   2  -6  -1  376.86   13.80
   2  -6  -1  426.56   21.90
  -2   6   1  387.06   21.30
  -2   6   1  382.36   17.40
  -2   6   1  364.46   14.40
   1  -6  -1  178.28   10.30
   1  -6  -1  183.38   13.90
   1  -6  -1  182.48    9.50
  -1   6   1  171.28    9.80
  -1   6   1  188.88   11.10
  -1   6   1  189.98   14.20
   0  -6  -1   57.09    5.80
   0  -6  -1   68.49    8.50
   0  -6  -1   65.29    6.20
   0   6   1   48.20    7.40
   0   6   1   62.29    6.40
   0   6   1   62.29    6.10
  -1  -6  -1 1991.50   61.49
  -1  -6  -1 1993.30   66.39
   1   6   1 1935.11   61.99
   1   6   1 1954.90   66.29
   1   6   1 1964.80   61.29
  -2  -6  -1    1.60    2.10
  -2  -6  -1    0.80    2.70
   2   6   1    0.80    2.40
   2   6   1    1.10    2.00
   2   6   1   -0.70    1.60
  -3  -6  -1    0.90    2.00
  -3  -6  -1    6.40    3.60
   3   6   1    3.70    3.30
   3   6   1    7.70    3.40
  -4  -6  -1  357.56   19.90
  -4  -6  -1  346.27   20.70
   4   6   1  317.47   17.60
  -5  -6  -1  180.28   14.40
  -5  -6  -1  207.58   15.80
   5   6   1  184.78   13.30
  -6  -6  -1   50.29    8.30
  -6  -6  -1   57.09    8.50
   6   6   1   45.60    9.00
  -7  -6  -1   21.00    6.80
  -7  -6  -1   13.90    6.00
  -8  -6  -1   33.40    8.80
  -8  -6  -1   45.00   10.50
  -9  -6  -1  126.99   14.40
  -9  -6  -1  143.39   14.80
 -10  -6  -1  124.19   14.60
 -10  -6  -1  162.38   16.60
 -11  -6  -1   53.89   12.70
 -11  -6  -1   29.40    9.20
 -12  -6  -1   -1.40    3.90
 -12  -6  -1    2.10    4.40
 -13  -6  -1   12.20    7.50
 -13  -6  -1    1.60    3.90
  13   6   1    3.90    5.10
 -14  -6  -1    7.30    6.60
 -14  -6  -1   14.00    7.70
  14   6   1   -4.30    2.70
  14   6   1   -0.80    4.50
  15   6   1   53.89   15.70
  15   6   1   54.39   13.60
  15   6   1   33.20   12.60
 -13   7   1   19.60   10.00
  12  -7  -1   22.90    9.30
 -12   7   1   10.10    8.40
  11  -7  -1  117.19   15.30
 -11   7   1  106.59   10.60
 -11   7   1  125.89   16.50
  10  -7  -1  101.79   14.00
 -10   7   1   97.39   10.00
   9  -7  -1  121.39   14.90
  -9   7   1  137.79   15.70
  -9   7   1  147.19   11.80
   8  -7  -1    3.10    4.80
  -8   7   1    0.20    2.30
  -8   7   1   -1.30    2.80
   7  -7  -1  152.58   15.40
   7  -7  -1  130.29   14.80
  -7   7   1  143.19   14.50
  -7   7   1  131.49   10.90
   6  -7  -1  169.38   16.00
   6  -7  -1  192.08   12.10
  -6   7   1  202.28   16.60
  -6   7   1  203.08   13.10
   5  -7  -1  202.68   17.00
   5  -7  -1  194.98   12.00
  -5   7   1  245.78   14.40
  -5   7   1  211.88   16.30
   4  -7  -1    3.80    2.30
   4  -7  -1    0.30    3.10
  -4   7   1    2.30    2.60
   3  -7  -1  264.07   13.80
   3  -7  -1  245.28   18.00
  -3   7   1  273.17   15.00
  -3   7   1  276.57    9.50
  -3   7   1  282.17   17.50
   2  -7  -1   25.30    3.30
   2  -7  -1   16.90    5.90
   2  -7  -1   22.60    4.70
  -2   7   1   22.70    3.50
  -2   7   1   32.40    5.10
   1  -7  -1   38.70    8.80
   1  -7  -1   29.60    4.20
   1  -7  -1   19.10    4.30
  -1   7   1   27.00    4.40
  -1   7   1   22.50    5.10
   0  -7  -1  564.94   27.80
   0  -7  -1  504.05   21.50
   0  -7  -1  474.95   21.00
   0   7   1  540.15   22.80
   0   7   1  505.05   22.10
  -1  -7  -1  159.38   11.30
  -1  -7  -1  156.68   13.90
   1   7   1  163.68   11.30
   1   7   1  137.49   10.90
  -2  -7  -1   37.10    7.20
  -2  -7  -1   40.40    9.00
   2   7   1   36.00    5.70
   2   7   1   37.20    8.10
  -3  -7  -1  119.09   10.90
  -3  -7  -1  100.09   11.40
   3   7   1  118.29   10.20
  -4  -7  -1  205.98   15.20
  -4  -7  -1  189.38   15.90
   4   7   1  206.38   14.20
  -5  -7  -1   56.69    8.50
  -5  -7  -1   50.89   10.60
   5   7   1   62.49    8.10
  -6  -7  -1    1.90    3.30
  -7  -7  -1   -1.00    2.60
  -7  -7  -1    5.90    4.00
   7   7   1   -4.50    1.80
  -8  -7  -1   19.70    7.00
   8   7   1   22.30    6.80
  -9  -7  -1  182.38   17.60
  -9  -7  -1  177.78   17.80
   9   7   1  199.58   17.30
 -10  -7  -1   47.30   11.00
 -10  -7  -1   43.70   12.00
  10   7   1   49.70   10.90
 -11  -7  -1   55.59   13.00
 -11  -7  -1   72.59   12.00
  11   7   1   56.19   12.50
 -12  -7  -1   -1.50    3.30
  12   7   1    2.90    5.00
 -13  -7  -1    3.90    5.60
 -13  -7  -1    4.10    6.20
  13   7   1    3.20    5.00
 -14  -7  -1    9.50    6.30
 -14  -7  -1   16.60    8.90
  14   7   1   35.10   10.60
 -15  -7  -1   87.99   18.30
  15   7   1  137.49   20.60
  15   7   1  116.39   17.10
  12  -8  -1   29.70   10.70
 -12   8   1   71.79   17.20
  11  -8  -1   65.79   14.20
 -11   8   1   60.99   14.40
  10  -8  -1   80.39   13.20
 -10   8   1   86.49   16.70
 -10   8   1   85.59    9.10
   9  -8  -1  165.58   17.70
  -9   8   1  194.08   19.60
  -9   8   1  177.18   12.80
   8  -8  -1  107.29   14.10
  -8   8   1  104.89    9.90
  -8   8   1   86.99   12.80
   7  -8  -1   61.69   12.70
  -7   8   1   52.49    7.20
  -7   8   1   32.50    8.90
   6  -8  -1  524.75   30.60
   6  -8  -1  432.96   20.90
  -6   8   1  485.85   22.60
  -6   8   1  468.05   27.90
   5  -8  -1   58.39   12.20
   5  -8  -1   53.99    6.20
  -5   8   1   43.90    6.40
  -5   8   1   44.20    9.70
   4  -8  -1   71.99    7.10
   4  -8  -1  102.19   12.30
  -4   8   1   70.39    7.90
  -4   8   1   66.79    9.40
   3  -8  -1    1.60    1.80
   3  -8  -1    0.30    3.40
  -3   8   1   -1.40    1.60
  -3   8   1    4.90    1.60
  -3   8   1    4.10    1.70
  -3   8   1    0.60    2.50
   2  -8  -1  364.16   20.30
   2  -8  -1  349.37   17.00
   2  -8  -1  377.96   23.90
  -2   8   1  342.57   18.20
  -2   8   1  347.87   15.80
   1  -8  -1  185.58   11.10
   1  -8  -1  196.28   16.80
   1  -8  -1  170.38   11.40
  -1   8   1  172.68   11.50
  -1   8   1  197.38   12.90
   0  -8  -1  173.38   11.70
   0  -8  -1  183.78   16.20
   0   8   1  179.78   12.60
   0   8   1  180.68   12.40
  -1  -8  -1   47.70    6.60
  -1  -8  -1   49.50   10.90
   1   8   1   45.30    8.60
   1   8   1   37.70    7.20
  -2  -8  -1   19.90    5.60
  -2  -8  -1   10.40    6.00
   2   8   1    5.40    3.30
  -3  -8  -1  402.16   22.80
  -3  -8  -1  437.06   26.20
   3   8   1  452.95   22.80
  -4  -8  -1    4.10    3.50
  -4  -8  -1    4.60    4.10
   4   8   1   -2.50    1.80
  -5  -8  -1   74.69   11.20
   5   8   1   81.59   11.50
  -6  -8  -1   11.20    5.00
  -6  -8  -1   16.90    7.10
   6   8   1    3.60    3.80
  -7  -8  -1   -4.60    1.60
  -7  -8  -1   -2.30    2.70
   7   8   1    3.00    3.90
  -8  -8  -1   78.19   12.20
  -8  -8  -1  104.89   13.50
   8   8   1  103.99   12.40
  -9  -8  -1  159.38   17.00
  -9  -8  -1  128.09   15.80
   9   8   1  160.38   16.10
 -10  -8  -1    1.30    4.80
 -10  -8  -1   13.40    6.70
  10   8   1    9.30    6.10
 -11  -8  -1   22.90    9.50
 -11  -8  -1    9.90    6.40
  11   8   1   18.70    8.40
 -12  -8  -1   12.00    7.30
 -12  -8  -1   14.10    7.30
  12   8   1   19.50    7.80
 -13  -8  -1   16.70    9.10
 -13  -8  -1    5.00    5.30
  13   8   1   14.70    7.80
 -14  -8  -1   40.50   12.60
 -14  -8  -1   11.90    8.60
  14   8   1    6.10    7.40
  11  -9  -1   67.89   14.50
 -11   9   1   92.09   19.00
  10  -9  -1   57.29   13.50
 -10   9   1  100.69   18.90
   9  -9  -1   17.20    8.10
  -9   9   1   11.40    6.60
  -9   9   1    6.00    3.80
   8  -9  -1  188.68   19.40
  -8   9   1  200.68   22.00
  -8   9   1  208.98   13.80
   7  -9  -1   24.50    8.60
  -7   9   1   18.90    5.70
  -7   9   1   18.90    8.00
   6  -9  -1   77.79   12.30
  -6   9   1   76.29   11.50
  -6   9   1   60.39    7.80
   5  -9  -1   15.90    7.40
  -5   9   1   37.70    7.40
  -5   9   1   37.40    9.70
   4  -9  -1   14.80    7.30
  -4   9   1   11.30    5.30
  -4   9   1   19.00    5.80
   3  -9  -1   43.60   10.70
  -3   9   1   38.30    3.70
  -3   9   1   47.10    4.20
  -3   9   1   72.29    9.80
  -3   9   1   43.50    6.70
   2  -9  -1   68.59   11.10
   2  -9  -1   61.59    5.80
  -2   9   1   57.79    6.20
  -2   9   1   52.59    7.30
   1  -9  -1  668.33   26.70
   1  -9  -1  613.54   38.20
  -1   9   1  717.83   31.20
  -1   9   1  664.63   28.90
   0  -9  -1   11.00    5.80
   0  -9  -1    1.60    2.90
   0   9   1    6.50    3.70
   0   9   1    6.30    3.40
  -1  -9  -1   15.80    7.00
  -1  -9  -1   39.20    7.70
   1   9   1   16.60    5.30
  -2  -9  -1  129.19   12.20
  -2  -9  -1  142.89   15.40
   2   9   1  161.08   12.90
  -3  -9  -1   63.69   11.70
  -3  -9  -1   53.99   12.00
   3   9   1   46.80    7.70
  -4  -9  -1  290.47   22.20
   4   9   1  242.58   17.60
  -5  -9  -1  161.78   15.20
  -5  -9  -1  132.09   15.20
   5   9   1  155.88   14.20
  -6  -9  -1   28.70    9.30
  -6  -9  -1   44.20   11.50
   6   9   1   43.10    9.70
  -7  -9  -1   10.30    6.10
  -7  -9  -1    6.00    5.30
   7   9   1    4.10    4.30
  -8  -9  -1  171.28   17.70
  -8  -9  -1  156.98   17.60
   8   9   1  154.68   15.90
  -9  -9  -1  173.88   18.60
  -9  -9  -1  176.08   18.90
   9   9   1  178.98   17.70
 -10  -9  -1   72.99   15.90
 -10  -9  -1   60.69   13.90
  10   9   1   64.39   13.70
 -11  -9  -1   12.30    6.80
 -11  -9  -1    0.30    4.10
  11   9   1   26.50    9.30
 -12  -9  -1   16.40    8.00
 -12  -9  -1   18.30    8.90
  12   9   1   17.00    9.60
 -13  -9  -1   14.60    7.90
 -13  -9  -1   12.10    8.30
  13   9   1   26.40   10.60
 -14  -9  -1   16.20    9.30
 -14  -9  -1   47.80   14.50
  14   9   1   35.10   12.60
  10 -10  -1   20.20    9.10
 -10  10   1   38.40   13.00
   9 -10  -1   27.10   10.40
  -9  10   1   20.10    8.60
   8 -10  -1   28.60   10.50
  -8  10   1   16.80    8.00
  -8  10   1   18.00    5.10
   7 -10  -1  278.77   24.30
  -7  10   1  282.27   16.60
   6 -10  -1    0.90    5.00
  -6  10   1   11.00    6.90
  -6  10   1    9.00    4.40
   5 -10  -1   36.30   10.60
  -5  10   1   32.90    7.40
  -5  10   1   47.20   10.70
   4 -10  -1   46.40   12.40
  -4  10   1   20.40    7.80
  -4  10   1   39.50    8.10
   3 -10  -1   91.09   13.50
  -3  10   1   90.59   11.80
  -3  10   1   75.29    9.20
  -3  10   1   94.49    6.30
  -3  10   1   98.09    6.10
   2 -10  -1  103.89    7.90
   2 -10  -1   84.89   12.90
  -2  10   1   99.59   10.30
  -2  10   1   90.29    8.30
   1 -10  -1    1.60    2.60
   1 -10  -1   15.80    7.70
  -1  10   1    1.10    2.60
  -1  10   1    2.60    3.10
   0 -10  -1   -1.80    1.60
   0 -10  -1   -2.30    3.40
   0  10   1   -0.10    2.80
  -1 -10  -1   -0.90    3.60
  -1 -10  -1   17.80    6.40
   1  10   1    5.70    4.30
  -2 -10  -1   19.40    8.30
  -2 -10  -1   44.60    9.10
  -3 -10  -1   96.99   13.70
  -3 -10  -1   81.39   10.60
   3  10   1   80.49   10.40
  -4 -10  -1  215.48   20.40
  -4 -10  -1  280.37   20.10
   4  10   1  254.57   18.70
  -5 -10  -1   55.49   12.20
  -5 -10  -1   42.10   12.00
   5  10   1   16.90    6.60
  -6 -10  -1    3.90    5.50
  -6 -10  -1    9.90    6.10
   6  10   1    1.90    4.10
  -7 -10  -1  107.39   14.30
  -7 -10  -1  146.59   17.40
   7  10   1  135.29   15.00
  -8 -10  -1   55.59   13.00
  -8 -10  -1   38.30   11.90
   8  10   1   16.10    6.80
  -9 -10  -1   99.39   15.20
  -9 -10  -1   90.89   17.80
   9  10   1   92.39   13.60
 -10 -10  -1   -1.70    3.30
 -10 -10  -1    3.60    5.90
  10  10   1   -1.10    4.10
 -11 -10  -1   29.60   10.20
 -11 -10  -1    4.20    5.80
  11  10   1   27.20   10.30
 -12 -10  -1   12.30    7.80
 -12 -10  -1   19.80    9.80
  12  10   1    6.70    6.40
 -13 -10  -1    6.40    7.20
 -13 -10  -1   -0.90    5.20
  13  10   1   15.20    9.00
 -14 -10  -1    2.00    6.80
 -14 -10  -1    1.40    5.20
  14  10   1   12.90    8.40
   9 -11  -1    4.20    6.30
  -9  11   1   22.80   10.70
   8 -11  -1  237.08   24.00
  -8  11   1  253.57   23.80
   7 -11  -1   -3.10    3.50
  -7  11   1    0.20    2.90
  -7  11   1    0.40    4.40
   6 -11  -1   58.39   15.20
  -6  11   1   52.99    7.60
  -6  11   1   74.69   15.10
   5 -11  -1   10.50    7.70
  -5  11   1    5.80    4.20
  -5  11   1    5.00    5.80
   4 -11  -1   41.70   11.90
  -4  11   1   23.30    8.30
  -4  11   1   31.20    7.90
   3 -11  -1   36.70   11.30
  -3  11   1   34.60    3.80
  -3  11   1   52.09    9.80
  -3  11   1   43.80   11.20
  -3  11   1   39.90    4.40
   2 -11  -1  450.65   31.20
   2 -11  -1  429.46   19.00
  -2  11   1  436.56   24.10
   1 -11  -1    1.40    2.60
   1 -11  -1   -2.90    4.10
  -1  11   1   -0.30    3.20
   0 -11  -1   32.10   10.20
   0 -11  -1   39.40    8.00
  -1 -11  -1   48.80    9.60
  -1 -11  -1   47.90   12.70
   1  11   1   51.59    9.70
  -2 -11  -1  183.68   19.20
  -2 -11  -1  170.38   14.80
   2  11   1  120.49   13.00
  -3 -11  -1  119.69   15.90
  -3 -11  -1  143.39   14.30
   3  11   1  114.79   12.80
  -4 -11  -1    6.90    5.10
  -4 -11  -1    7.40    5.50
   4  11   1    4.10    4.50
  -5 -11  -1   -0.50    4.80
  -5 -11  -1    1.70    3.70
   5  11   1    0.40    3.80
  -6 -11  -1  195.28   18.90
  -6 -11  -1  212.78   21.60
   6  11   1  177.98   17.40
  -7 -11  -1  107.79   16.00
  -7 -11  -1   99.89   14.40
   7  11   1  131.99   15.30
  -8 -11  -1   12.50    6.90
  -8 -11  -1   11.10    7.30
   8  11   1    6.60    5.90
  -9 -11  -1   10.10    8.30
  -9 -11  -1   22.00    9.40
   9  11   1   16.80    8.30
 -10 -11  -1    7.00    7.00
 -10 -11  -1   24.80   11.00
  10  11   1   10.60    7.40
 -11 -11  -1    2.50    5.00
 -11 -11  -1   -0.60    4.60
  11  11   1    4.60    6.10
 -12 -11  -1  105.19   17.30
 -12 -11  -1   98.99   20.10
  12  11   1   95.89   19.80
 -13 -11  -1    0.40   10.00
 -13 -11  -1    1.00    6.00
  13  11   1   -3.90    7.00
   8 -12  -1  105.69   17.30
  -8  12   1  105.99   16.50
   7 -12  -1    3.70    6.50
  -7  12   1   17.40    8.10
  -6  12   1   26.50    6.70
  -6  12   1   17.40    8.50
   5 -12  -1   68.99   15.60
  -5  12   1   59.09   14.70
  -5  12   1   59.59    8.60
   4 -12  -1    2.00    5.10
  -4  12   1    2.20    3.60
  -4  12   1    0.30    4.20
   3 -12  -1  140.89   18.60
  -3  12   1  139.99   18.70
  -3  12   1  132.79    6.80
  -3  12   1  169.18   14.60
   2 -12  -1   -0.50    5.60
  -2  12   1   -0.50    3.30
  -2  12   1    1.60    2.30
   1 -12  -1   27.00    6.50
   1 -12  -1   37.10   11.70
  -1  12   1   40.30    9.20
   0 -12  -1  153.68   18.50
   0 -12  -1  103.99   10.80
   0  12   1  100.19   11.80
  -1 -12  -1   19.80    6.40
  -1 -12  -1   20.60    8.60
   1  12   1   17.40    6.60
  -2 -12  -1    6.10    6.60
  -2 -12  -1    9.60    5.20
   2  12   1    9.50    4.90
  -3 -12  -1  109.89   13.10
  -3 -12  -1  137.89   17.70
   3  12   1  111.79   13.30
  -4 -12  -1   -2.50    3.20
  -4 -12  -1   16.00    7.20
   4  12   1   10.30    6.00
  -5 -12  -1   21.80   10.10
  -5 -12  -1   25.90    8.70
   5  12   1   20.70    8.20
  -6 -12  -1  120.59   15.50
  -6 -12  -1  155.38   19.50
   6  12   1  129.49   15.60
  -7 -12  -1   73.99   15.70
  -7 -12  -1   76.39   19.60
   7  12   1   68.09   14.70
  -8 -12  -1   36.80   11.60
  -8 -12  -1   49.99   14.30
   8  12   1   69.39   15.30
  -9 -12  -1   -1.40    4.50
  -9 -12  -1   -1.00    3.30
   9  12   1    0.40    3.80
 -10 -12  -1    2.40    7.30
 -10 -12  -1   -2.10    3.70
  10  12   1    1.50    5.20
 -11 -12  -1   21.80   10.60
 -11 -12  -1   22.40   11.20
  11  12   1   18.30    9.60
 -12 -12  -1   -2.30    4.10
   7 -13  -1   21.20   10.60
  -7  13   1   22.20    9.40
   6 -13  -1   35.80   12.90
  -6  13   1   33.80   11.30
   5 -13  -1   -1.70    5.00
  -5  13   1    1.50    5.10
  -5  13   1    0.60    3.50
   4 -13  -1   64.59   17.00
  -4  13   1   39.30   13.00
  -4  13   1   28.10   10.70
   3 -13  -1   -1.20    4.90
  -3  13   1    0.10    3.20
  -3  13   1    6.10    5.50
  -2  13   1    2.20    2.90
  -2  13   1    4.20    4.10
   1 -13  -1    1.80    3.00
   1 -13  -1   -2.90    4.10
  -1  13   1    0.60    3.40
   0 -13  -1  194.88   15.80
   0 -13  -1  191.78   22.10
   0  13   1  199.78   17.30
  -1 -13  -1   36.10    9.30
  -1 -13  -1   31.30   12.30
   1  13   1   50.69   11.50
  -2 -13  -1   90.59   11.90
  -2 -13  -1   64.19   16.50
   2  13   1   78.19   11.50
  -3 -13  -1    8.00    5.30
   3  13   1    5.30    5.30
  -4 -13  -1    6.40    5.20
  -4 -13  -1    7.60    6.60
   4  13   1    6.50    5.60
  -5 -13  -1   53.39   12.80
  -5 -13  -1   44.40   14.40
   5  13   1   50.59   12.30
  -6 -13  -1   22.50    9.60
  -6 -13  -1   26.70   12.40
   6  13   1   17.30    9.90
  -7 -13  -1   20.80    9.90
  -7 -13  -1   23.80    9.50
   7  13   1   11.80    6.90
  -8 -13  -1   68.99   16.00
  -8 -13  -1   74.09   17.70
   8  13   1   32.90   11.00
  -9 -13  -1   -3.20    2.90
  -9 -13  -1   -5.40    3.90
   9  13   1    3.70    6.10
 -10 -13  -1   44.20   14.20
 -10 -13  -1   19.50    9.20
  10  13   1   37.10   12.80
 -11 -13  -1   11.40   11.20
 -11 -13  -1   22.40   11.20
  11  13   1   12.40   10.00
   6 -14  -1   49.20   15.10
  -6  14   1   51.79   16.20
   5 -14  -1   66.79   17.30
  -5  14   1   68.79   16.20
   4 -14  -1    8.30    8.40
  -4  14   1    7.50    7.30
   3 -14  -1    3.50    6.10
  -3  14   1    3.00    4.20
  -3  14   1    0.20    4.40
   2 -14  -1   -3.70    3.80
  -2  14   1   -1.70    3.50
  -2  14   1    8.50    5.60
   1 -14  -1   68.49   17.90
  -1  14   1   56.59   11.90
  -1  14   1   51.39    9.50
   0 -14  -1    1.00    5.40
   0 -14  -1    3.20    3.60
   0  14   1    9.30    5.80
  -1 -14  -1  120.69   18.60
  -1 -14  -1  135.79   14.00
   1  14   1  143.49   15.60
  -2 -14  -1   49.20   15.00
  -2 -14  -1   21.80    7.40
   2  14   1   23.20    8.50
  -3 -14  -1    9.80    5.00
  -3 -14  -1    9.20    7.40
   3  14   1   14.80    7.10
  -4 -14  -1   53.19   14.90
  -4 -14  -1    3.80    4.80
   4  14   1   22.80   10.90
  -5 -14  -1   35.60   12.40
  -5 -14  -1   30.50   11.00
   5  14   1   34.00   11.40
  -6 -14  -1   -2.10    3.00
  -6 -14  -1   -3.50    3.70
   6  14   1   -3.10    3.80
  -7 -14  -1   34.00   12.40
  -7 -14  -1   20.50    9.20
   7  14   1   17.20    8.90
  -8 -14  -1    7.70    9.00
  -8 -14  -1    5.30    5.90
   8  14   1    1.70    5.30
  -9 -14  -1    3.30    5.20
  -9 -14  -1    0.70    6.00
   9  14   1    6.50    6.20
 -10 -14  -1   87.79   30.10
   4 -15  -1   -2.90    4.80
  -4  15   1    4.10    6.20
   3 -15  -1   17.90   11.80
  -3  15   1    2.20    5.40
   2 -15  -1    2.70    5.90
  -2  15   1   12.30    8.80
  -2  15   1    1.10    3.90
   1 -15  -1   -0.10    5.10
  -1  15   1    2.20    4.30
   0 -15  -1   65.09   17.70
   0  15   1   46.70   10.10
   0  15   1   53.39   12.70
  -1 -15  -1   19.80   11.00
  -1 -15  -1   23.00    8.00
   1  15   1   11.80    7.00
  -2 -15  -1    6.60    8.30
  -2 -15  -1    7.20    5.80
  -3 -15  -1    1.20    3.80
  -3 -15  -1    0.70    5.20
   3  15   1    4.10    5.60
  -4 -15  -1   46.90   12.10
  -4 -15  -1   43.00   14.50
   4  15   1   46.20   13.00
  -5 -15  -1    4.50    4.90
  -5 -15  -1   28.00   13.10
   5  15   1   18.10    9.00
  -6 -15  -1   48.50   13.00
  -6 -15  -1   27.90   12.00
   6  15   1   26.00   11.20
  -7 -15  -1   11.30    7.90
  -7 -15  -1    6.20    7.60
   7  15   1   10.90    8.80
  -8 -15  -1    4.20    5.40
   8  15   1    4.50    6.30
  -1  16   1    2.40    5.50
   0 -16  -1   18.90   11.60
   0  16   1   23.60    9.30
  -1 -16  -1    3.50    7.20
   1  16   1   -0.50    4.50
   1  16   1    4.80    5.50
  -2 -16  -1   13.80   10.20
  -2 -16  -1   18.00    9.40
   2  16   1   17.20    7.70
  -3 -16  -1   16.60   11.00
  -3 -16  -1   20.00    8.30
   3  16   1   15.30    8.50
  -4 -16  -1   43.00   12.50
   4  16   1   30.80   11.20
  -5 -16  -1   12.70    9.10
  -5 -16  -1   15.20    8.40
   5  16   1   16.00    8.70
  -6 -16  -1   10.10    6.70
  -6 -16  -1   19.00   11.80
   6  16   1   24.00   10.80
   7  15  -2   -6.60    3.90
  -7 -15   2    5.10    7.60
  -7 -15   2    1.00    5.00
   6  15  -2    5.20    6.60
  -6 -15   2    9.30    6.90
   5  15  -2   17.30    8.80
  -5 -15   2   10.80    7.60
  -5 -15   2    7.10    7.40
   4  15  -2   12.90    7.80
  -4 -15   2    7.60    5.90
  -4 -15   2   51.89   16.70
   3  15  -2   46.30   12.60
  -3 -15   2   32.20   11.00
  -3 -15   2   31.30   13.20
   2  15  -2    2.90    4.40
  -2 -15   2   19.00    7.90
  -2 -15   2   25.60   12.60
   1  15  -2    9.60    5.80
  -1 -15   2   11.80    6.90
  -1 -15   2   29.70   12.60
   0  15  -2   26.30   10.60
   0 -15   2   39.40   15.70
   0 -15   2   33.30   10.20
   1 -15   2   40.80   15.30
   9  14  -2   12.30    9.20
  -9 -14   2   11.40   10.60
  -9 -14   2   10.50    8.90
   8  14  -2    4.90    6.90
  -8 -14   2    7.20    7.40
  -8 -14   2   -1.00    3.40
   7  14  -2    0.30    5.10
  -7 -14   2    0.60    4.20
  -7 -14   2    1.40    5.20
   6  14  -2    0.80    4.70
  -6 -14   2   -0.80    3.80
  -6 -14   2   11.00    7.10
   5  14  -2  122.49   16.00
  -5 -14   2  119.49   24.10
  -5 -14   2   93.79   15.30
   4  14  -2   27.10    9.40
  -4 -14   2   22.80    9.20
  -4 -14   2    8.00    8.40
   3  14  -2   46.50   11.70
  -3 -14   2   36.30   13.20
   2  14  -2    9.50    6.60
  -2 -14   2    2.60    3.60
  -2 -14   2    1.10    5.60
   1  14  -2    6.50    5.60
  -1 -14   2   20.80   11.10
  -1 -14   2   13.60    7.30
   0  14  -2   19.20    6.70
   0 -14   2   18.30    7.40
   0 -14   2   18.30   10.70
  -1  14  -2   30.90    8.40
   1 -14   2   20.10    7.50
   1 -14   2   15.00   10.70
   2 -14   2    3.00    6.90
  -3  14  -2   49.10   13.20
   3 -14   2   29.40   12.80
  -4  14  -2   29.60   11.30
   4 -14   2   27.20   12.60
  -5  14  -2   16.60    9.80
   5 -14   2   20.60   13.70
  10  13  -2   -2.90    5.80
 -10 -13   2   -3.80    3.40
 -10 -13   2   -1.30    5.30
   9  13  -2   79.09   16.70
  -9 -13   2   77.99   19.40
  -9 -13   2   74.89   17.10
   8  13  -2    0.40    4.30
  -8 -13   2   -1.80    4.00
  -8 -13   2   -1.40    4.20
   7  13  -2   48.50   12.50
  -7 -13   2   36.60   12.90
  -7 -13   2   29.50   12.70
   6  13  -2   43.40   12.80
  -6 -13   2   23.80   12.00
  -6 -13   2   44.70   12.40
   5  13  -2   30.90    9.80
  -5 -13   2   16.80    9.10
  -5 -13   2   15.60    7.90
   4  13  -2  238.78   20.10
  -4 -13   2  182.48   22.60
  -4 -13   2  215.38   21.00
   3  13  -2   -2.20    3.10
  -3 -13   2    3.50    4.70
  -3 -13   2    5.40    5.70
   2  13  -2   -1.90    2.90
  -2 -13   2    1.80    3.70
  -2 -13   2    1.70    5.20
   1  13  -2   14.80    6.60
  -1 -13   2    6.50    6.60
  -1 -13   2   10.00    5.80
   0  13  -2    8.20    4.80
   0 -13   2    0.70    6.10
   0 -13   2    8.30    5.30
  -1  13  -2   29.80    7.70
   1 -13   2   32.50    8.90
   1 -13   2   18.30   10.60
  -2  13  -2  106.89   10.10
   2 -13   2   80.49   18.60
  -3  13  -2   -5.40    3.00
   3 -13   2   -4.90    3.80
  -4  13  -2   14.50    7.60
   4 -13   2   13.60    8.90
  -5  13  -2  194.08   21.10
   5 -13   2  146.19   21.90
  -6  13  -2   47.50   13.10
   6 -13   2   66.69   18.70
  11  12  -2   23.40   10.50
 -11 -12   2   28.50   12.20
 -11 -12   2   26.10   11.40
  10  12  -2   61.69   15.00
 -10 -12   2   41.60   14.00
 -10 -12   2   37.30   12.10
   9  12  -2   10.80    7.70
  -9 -12   2   23.40   11.00
  -9 -12   2   10.80    7.90
   8  12  -2    3.20    5.90
  -8 -12   2   14.50    8.00
  -8 -12   2    7.00    7.30
   7  12  -2   11.60   12.20
  -7 -12   2   37.80   12.40
  -7 -12   2   61.39   16.40
   6  12  -2    8.40    6.00
  -6 -12   2   10.70    8.00
  -6 -12   2   -0.60    4.30
   5  12  -2   27.50    9.20
  -5 -12   2   45.60   19.40
  -5 -12   2   19.90    8.00
   4  12  -2   31.30    8.80
  -4 -12   2   33.20    9.80
  -4 -12   2   16.00    9.00
   3  12  -2   -0.90    3.20
  -3 -12   2   -1.40    2.80
  -3 -12   2   -3.60    3.20
   2  12  -2   -3.70    2.40
  -2 -12   2   -0.80    3.10
  -2 -12   2   -0.10    4.60
   1  12  -2   89.29   10.60
  -1 -12   2   77.29   17.50
  -1 -12   2  109.59   13.00
   0  12  -2    1.70    3.20
   0 -12   2    2.90    5.60
   0 -12   2    4.60    4.10
  -1  12  -2  188.28   13.80
   1 -12   2  165.48   21.90
   1 -12   2  168.08   14.80
  -2  12  -2   -0.20    2.20
   2 -12   2   -2.70    6.50
   2 -12   2   -0.70    2.20
  -3  12  -2    1.40    2.30
   3 -12   2    7.90    7.50
   3 -12   2    1.60    2.70
  -4  12  -2    7.60    6.00
   4 -12   2    1.10    6.80
  -5  12  -2   89.59   14.00
   5 -12   2   50.59   15.50
  -6  12  -2   34.60   10.90
   6 -12   2   51.19   16.70
  -7  12  -2   58.09   13.70
   7 -12   2   77.29   18.30
  -8  12  -2   11.00    8.00
   8 -12   2   25.80   12.50
  12  11  -2    2.90    6.00
 -12 -11   2    8.70    8.00
 -12 -11   2    0.00    4.20
  11  11  -2   13.70    8.30
 -11 -11   2   12.70    8.40
 -11 -11   2   26.70   11.10
  10  11  -2  126.29   17.60
 -10 -11   2  154.98   19.60
 -10 -11   2  136.39   19.10
   9  11  -2   10.20    5.90
  -9 -11   2   -0.50    4.80
  -9 -11   2   -2.40    2.90
  -8 -11   2    8.30    7.10
  -8 -11   2    3.80    5.00
   7  11  -2  129.89   15.30
  -7 -11   2  122.79   16.40
  -7 -11   2  115.69   16.80
   6  11  -2  105.99   13.40
  -6 -11   2  106.09   16.30
  -6 -11   2  102.29   14.50
   5  11  -2   76.59   14.50
  -5 -11   2   47.00   12.50
  -5 -11   2   30.40    9.10
   4  11  -2    6.30    4.60
  -4 -11   2   -3.20    2.30
  -4 -11   2    6.90    6.90
   3  11  -2   -0.30    2.90
  -3 -11   2   11.50    6.30
  -3 -11   2   21.70    9.20
   2  11  -2   42.70    9.00
  -2 -11   2   44.00   13.30
  -2 -11   2   54.89   11.10
   1  11  -2   24.40    7.10
  -1 -11   2   26.60   10.90
  -1 -11   2   19.20    6.60
   0  11  -2   98.79    9.90
   0 -11   2  104.39   19.90
   0 -11   2  113.19   12.30
  -1  11  -2  183.98   13.20
   1 -11   2  192.18   15.00
   1 -11   2  187.78   21.60
  -2  11  -2   -1.30    2.10
  -2  11  -2    0.10    2.10
   2 -11   2    5.90    7.40
   2 -11   2    1.50    2.70
  -3  11  -2    4.30    2.70
  -3  11  -2    3.40    3.10
   3 -11   2    3.70    2.90
   3 -11   2    6.70    6.30
  -4  11  -2  206.48   18.90
  -4  11  -2  235.18    9.10
   4 -11   2  235.48   24.50
   4 -11   2  216.18   12.40
  -5  11  -2    9.50    5.70
   5 -11   2    3.90   10.50
  -6  11  -2   34.90    9.80
   6 -11   2   21.10   10.00
  -7  11  -2   16.40    7.30
   7 -11   2    5.10    8.10
  -8  11  -2   63.69   14.40
   8 -11   2   94.69   20.80
  -9  11  -2   44.60   13.30
   9 -11   2   41.30   14.80
 -13 -10   2   20.80   11.90
 -13 -10   2   20.10    9.70
  12  10  -2    3.20    5.80
 -12 -10   2    3.20    6.30
 -12 -10   2   13.70    7.80
  11  10  -2   42.50   13.40
 -11 -10   2   41.10   13.10
 -11 -10   2   63.49   14.50
  10  10  -2    3.40    4.60
 -10 -10   2   -2.70    4.30
 -10 -10   2   -3.60    2.90
   9  10  -2    5.70    7.80
  -9 -10   2    5.60    6.30
  -9 -10   2   11.90    7.10
   8  10  -2   45.50   12.10
  -8 -10   2   27.90    9.80
  -8 -10   2   53.69   14.00
   7  10  -2   31.90    9.80
  -7 -10   2   36.60   12.10
  -7 -10   2   20.20    8.90
   6  10  -2  222.08   18.50
  -6 -10   2  201.48   19.70
  -6 -10   2  225.18   21.70
   5  10  -2  124.79   13.40
  -5 -10   2   93.89   13.10
  -5 -10   2  119.09   15.90
   4  10  -2   18.80    6.60
  -4 -10   2   29.20    9.00
  -4 -10   2   27.00   10.10
   3  10  -2   18.20    6.30
  -3 -10   2   16.50    8.40
  -3 -10   2   33.10    9.80
   2  10  -2    8.80    4.30
  -2 -10   2   10.50    6.90
  -2 -10   2    9.20    5.20
   1  10  -2   84.09    9.20
  -1 -10   2   63.59   14.30
   0  10  -2  159.38   12.00
   0 -10   2  123.49   16.50
   0 -10   2  152.38   13.90
  -1  10  -2   36.10    5.70
   1 -10   2   30.30    7.60
   1 -10   2   41.90   12.80
  -2  10  -2   -0.70    1.70
  -2  10  -2    1.00    2.20
   2 -10   2    3.90    3.40
   2 -10   2   -3.90    2.10
  -3  10  -2  190.98   11.20
  -3  10  -2  224.88   15.10
  -3  10  -2  208.08   11.60
   3 -10   2  246.28   23.50
   3 -10   2  254.77   14.80
  -4  10  -2   28.00    8.00
  -4  10  -2   25.10    3.00
  -4  10  -2   23.30    2.90
  -4  10  -2   28.30    6.10
   4 -10   2   28.70    4.70
   4 -10   2   38.40   12.40
  -5  10  -2   40.20    3.80
  -5  10  -2   64.89   12.70
   5 -10   2   47.20   13.80
   5 -10   2   41.50    4.00
  -6  10  -2    5.20    4.90
   6 -10   2   14.40    9.10
  -7  10  -2   14.30    6.90
   7 -10   2    3.30    7.90
  -8  10  -2   37.10   10.90
   8 -10   2   20.80   10.10
  -9  10  -2  250.67   23.20
   9 -10   2  283.37   28.80
 -10  10  -2   -1.40    4.90
  10 -10   2    3.50    6.50
  14   9  -2   11.80    8.50
 -14  -9   2   20.70    9.10
 -14  -9   2   -0.70    7.20
 -13  -9   2    0.20    5.10
 -13  -9   2   -1.00    3.70
 -12  -9   2  117.49   17.60
 -12  -9   2  101.79   22.20
 -11  -9   2   14.90    8.60
 -11  -9   2    7.50    6.60
 -10  -9   2   16.00    7.90
 -10  -9   2   30.00   11.40
  -9  -9   2   -1.80    2.40
  -9  -9   2    3.00    4.80
  -8  -9   2   81.69   16.10
  -8  -9   2   92.39   13.80
  -7  -9   2   79.69   13.00
  -7  -9   2   99.29   14.00
  -6  -9   2  304.57   23.30
  -6  -9   2  280.87   23.30
   5   9  -2   13.50    5.80
  -5  -9   2   16.10    7.50
  -5  -9   2    8.10    5.60
   4   9  -2   13.00    5.50
  -4  -9   2   14.90    7.50
  -4  -9   2   14.70    7.40
   3   9  -2  163.68   13.40
  -3  -9   2  171.78   16.00
  -3  -9   2  199.18   19.10
   2   9  -2   33.10    7.30
  -2  -9   2   22.00    8.50
  -2  -9   2   26.00    7.70
   1   9  -2   76.79    8.30
  -1  -9   2   77.49   12.40
  -1  -9   2   64.09    9.40
   0   9  -2   11.50    4.40
   0  -9   2    5.20    5.60
   0  -9   2    8.00    4.70
  -1   9  -2   50.69    6.30
  -1   9  -2   46.50    5.80
   1  -9   2   63.39   14.10
   1  -9   2   49.30    7.20
  -2   9  -2   97.99   12.20
  -2   9  -2   78.69    7.20
  -2   9  -2   75.29    7.00
   2  -9   2  108.19   14.80
   2  -9   2   95.49    9.30
  -3   9  -2  375.76   15.80
  -3   9  -2  343.47   19.10
   3  -9   2  407.26   19.40
   3  -9   2  392.66   29.00
  -4   9  -2  168.88    7.70
  -4   9  -2  165.88    7.80
  -4   9  -2  160.38   15.00
  -4   9  -2  167.08   11.10
   4  -9   2  187.18   11.30
   4  -9   2  182.68   19.80
  -5   9  -2    0.10    3.40
  -5   9  -2    4.20    2.20
   5  -9   2    6.50    2.50
   5  -9   2   -1.40    4.90
  -6   9  -2   37.60    9.90
   6  -9   2   29.50   11.70
  -7   9  -2   -1.90    3.20
   7  -9   2    3.20    5.60
  -8   9  -2  125.49   15.30
   8  -9   2  191.48   22.40
  -9   9  -2   11.60    7.40
   9  -9   2   22.70   11.20
 -10   9  -2   69.99   15.00
  10  -9   2   48.90   14.80
 -11   9  -2   14.00    8.50
  11  -9   2   16.90   10.30
 -14  -8   2   17.00    9.30
 -14  -8   2   19.80   10.10
 -13  -8   2    8.50    6.80
 -13  -8   2    5.70    9.40
 -12  -8   2   74.59   17.20
 -12  -8   2   56.39   12.80
 -11  -8   2   41.80   11.90
 -11  -8   2   23.90    9.90
 -10  -8   2   21.30    9.20
 -10  -8   2   40.70   11.10
  -9  -8   2  192.48   18.50
  -9  -8   2  165.28   18.30
  -8  -8   2   24.90    8.80
  -8  -8   2   23.70    8.70
  -7  -8   2  167.98   17.20
  -7  -8   2  177.78   17.70
  -6  -8   2   19.50    7.20
  -6  -8   2   20.10    7.90
  -5  -8   2  188.58   17.50
  -5  -8   2  168.98   16.40
  -4  -8   2  292.87   22.40
  -4  -8   2  297.07   21.30
   3   8  -2  369.86   20.10
  -3  -8   2  388.26   23.50
  -3  -8   2  365.76   27.80
   2   8  -2  273.37   15.70
  -2  -8   2  238.48   17.40
   1   8  -2  209.48   13.20
  -1  -8   2  207.68   15.50
   0   8  -2   45.30    5.90
   0   8  -2   61.79    6.80
   0  -8   2   47.80    7.30
   0  -8   2   77.99   14.80
  -1   8  -2   89.09    7.70
  -1   8  -2   92.19   10.00
  -1   8  -2   92.19    7.50
   1  -8   2  102.29   13.50
   1  -8   2   95.39    9.60
  -2   8  -2  212.78   11.10
  -2   8  -2  168.38   13.00
  -2   8  -2  186.28   10.60
   2  -8   2  200.68   13.40
   2  -8   2  260.77   21.30
  -3   8  -2    1.80    1.70
  -3   8  -2    1.20    1.50
   3  -8   2   -1.40    1.70
   3  -8   2    3.00    4.90
  -4   8  -2  411.36   14.00
  -4   8  -2  386.76   18.20
  -4   8  -2  425.66   23.80
  -4   8  -2  400.86   13.80
   4  -8   2  419.46   29.40
   4  -8   2  426.26   18.60
  -5   8  -2   26.00    3.80
  -5   8  -2   38.10    9.00
   5  -8   2   30.20    5.90
   5  -8   2   28.90   10.00
  -6   8  -2   33.90    8.80
   6  -8   2   31.10   11.00
   6  -8   2   30.10    2.50
  -7   8  -2   50.59   11.20
   7  -8   2   47.70   13.20
  -8   8  -2   39.60    9.80
   8  -8   2   64.19   15.40
  -9   8  -2   14.60    7.40
   9  -8   2   28.40   11.30
 -10   8  -2    5.40    5.00
 -11   8  -2   15.50    8.30
  11  -8   2   27.00   12.30
 -12   8  -2   54.39   14.20
  12  -8   2   53.99   15.80
 -14  -7   2   23.70   10.90
 -14  -7   2   32.90   11.70
 -13  -7   2   32.10   11.30
 -13  -7   2   59.59   13.40
 -12  -7   2   27.60    9.30
 -12  -7   2   64.59   15.70
 -11  -7   2   24.70    8.10
 -11  -7   2    7.60    5.90
 -10  -7   2   37.30   10.80
 -10  -7   2   18.30    8.10
 -10  -7   2   16.10    7.10
  -9  -7   2  195.58   18.30
  -9  -7   2  195.48   19.20
  -9  -7   2  198.28   17.80
  -8  -7   2  352.96   24.10
  -8  -7   2  357.36   25.60
  -8  -7   2  358.36   24.50
  -7  -7   2   88.59   12.20
  -7  -7   2  124.59   13.80
  -7  -7   2   92.29   11.70
  -6  -7   2   37.90    9.60
  -6  -7   2   29.40    8.50
  -6  -7   2   30.00    8.50
  -5  -7   2   55.89   11.00
  -4  -7   2   98.89   11.50
  -4  -7   2   84.29   11.20
  -3  -7   2  577.24   30.70
  -3  -7   2  537.85   27.90
   2   7  -2  809.32   31.50
  -2  -7   2  830.22   38.80
  -2  -7   2  846.12   36.00
   1   7  -2   25.00    5.90
   1   7  -2   25.90    5.40
  -1  -7   2   23.70    6.70
  -1  -7   2    9.00    5.90
   0   7  -2   57.49    5.80
   0   7  -2   55.69    6.10
   0   7  -2   52.59    7.40
   0  -7   2   68.09   10.20
   0  -7   2   56.89    7.40
  -1   7  -2   45.10    5.00
  -1   7  -2   33.40    7.50
  -1   7  -2   40.90    4.60
   1  -7   2   44.10   10.30
   1  -7   2   39.80    6.20
  -2   7  -2   64.69    5.30
  -2   7  -2   50.89    4.80
   2  -7   2   49.10   11.30
   2  -7   2   49.99    6.60
  -3   7  -2  140.49    7.30
  -3   7  -2  147.39    7.60
  -3   7  -2  143.19   10.40
   3  -7   2  153.58   16.10
   3  -7   2  152.48   10.40
  -4   7  -2   43.00    2.90
  -4   7  -2   40.40    5.10
  -4   7  -2   46.30    8.70
   4  -7   2   40.70    5.10
   4  -7   2   57.19   13.20
  -5   7  -2  157.68   13.80
  -5   7  -2  124.99    8.10
   5  -7   2  141.59    9.40
   5  -7   2  114.19   15.40
  -6   7  -2   92.39   11.10
   6  -7   2   72.79   15.20
   6  -7   2   80.99    5.30
   6  -7   2   85.09    5.80
  -7   7  -2  280.57   20.30
   7  -7   2  370.76   27.90
  -8   7  -2    3.10    3.90
   8  -7   2    2.80    6.00
  -9   7  -2    2.40    4.80
   9  -7   2   11.70    8.30
 -10   7  -2   40.10   10.70
  10  -7   2   59.49   14.60
 -11   7  -2    4.00    5.50
 -12   7  -2   29.40   10.60
  12  -7   2   45.30   14.80
  15   6  -2    2.80    6.90
 -15  -6   2    1.80    5.90
 -14  -6   2  144.69   18.60
 -14  -6   2  130.09   16.10
 -13  -6   2    0.30    4.70
 -13  -6   2    1.60    4.10
 -12  -6   2   22.40    7.30
 -12  -6   2   19.40    8.90
 -12  -6   2   24.70    9.50
 -11  -6   2   14.60    7.60
 -11  -6   2   26.10   10.20
 -11  -6   2   31.10    9.40
 -10  -6   2   60.79   13.30
 -10  -6   2   42.00   11.20
 -10  -6   2   51.49   11.10
  -9  -6   2  141.69   15.20
  -9  -6   2  162.68   16.70
  -9  -6   2  142.19   14.40
  -8  -6   2  267.67   19.40
  -8  -6   2  233.58   19.80
  -8  -6   2  257.57   19.80
  -7  -6   2   17.20    6.30
  -7  -6   2   11.70    5.80
  -7  -6   2   11.20    5.50
  -6  -6   2   10.20    6.60
  -6  -6   2   12.70    6.20
  -6  -6   2   18.60    5.90
  -5  -6   2  162.18   13.20
  -5  -6   2  140.09   13.20
  -5  -6   2  113.59   12.50
  -4  -6   2  227.78   16.60
  -4  -6   2  217.08   15.00
  -4  -6   2  226.38   17.00
  -3  -6   2  239.58   17.30
  -3  -6   2  224.88   16.10
   2   6  -2   34.10    6.60
  -2  -6   2   30.50    7.20
  -2  -6   2   31.80    7.90
   1   6  -2   16.00    4.90
   1   6  -2   12.60    3.50
   1   6  -2    8.90    3.40
  -1  -6   2    5.30    3.10
  -1  -6   2   13.80    5.60
   0   6  -2   -1.40    1.30
   0   6  -2    3.40    1.90
   0   6  -2    3.20    1.90
   0  -6   2    6.70    3.40
   0  -6   2    9.80    5.00
  -1   6  -2   51.09    6.50
  -1   6  -2   49.80    4.80
  -1   6  -2   50.69    4.60
   1  -6   2   56.19    9.10
   1  -6   2   45.90    6.10
  -2   6  -2  326.17   16.70
  -2   6  -2  322.67   12.80
  -2   6  -2  309.27   12.50
   2  -6   2  326.07   16.40
   2  -6   2  332.67   22.10
  -3   6  -2  480.45   21.00
  -3   6  -2  493.85   16.40
  -3   6  -2  517.15   16.80
   3  -6   2  509.05   29.10
   3  -6   2  518.55   21.40
  -4   6  -2   17.10    1.70
  -4   6  -2   17.40    1.60
  -4   6  -2   41.30    7.90
  -4   6  -2   22.70    4.50
   4  -6   2   28.20    4.40
   4  -6   2   15.90    6.60
  -5   6  -2    2.50    3.00
  -5   6  -2    2.20    1.70
   5  -6   2   -3.10    2.10
   5  -6   2   -0.70    1.50
  -6   6  -2  558.44   27.50
   6  -6   2  574.44   33.50
   6  -6   2  544.65   19.40
   6  -6   2  539.45   20.40
  -7   6  -2  113.49   12.00
   7  -6   2  118.59    6.50
   7  -6   2   88.69   13.60
   7  -6   2  109.69    6.80
  -8   6  -2   89.89   11.20
   8  -6   2  101.49   14.90
   8  -6   2   70.59    4.10
  -9   6  -2   22.60    7.60
   9  -6   2   24.80   10.10
 -10   6  -2    7.20    5.20
  10  -6   2   13.60    7.80
 -11   6  -2   88.59   13.50
  11  -6   2  102.69   16.60
 -12   6  -2   92.09   14.10
 -13   6  -2    3.60    5.10
  13  -6   2    5.50    7.80
  15   5  -2   16.50    8.90
 -15  -5   2   28.80   11.20
 -14  -5   2  145.79   18.20
 -14  -5   2  117.99   14.50
 -14  -5   2  147.69   18.90
 -13  -5   2   -3.00    3.80
 -13  -5   2   -2.00    4.10
 -13  -5   2   -3.50    3.70
 -12  -5   2   36.60    9.40
 -12  -5   2   22.90    9.30
 -12  -5   2   43.00   11.90
 -11  -5   2   14.00    6.50
 -11  -5   2    8.90    4.80
 -11  -5   2    2.70    4.70
 -10  -5   2   66.99   10.90
 -10  -5   2   71.09   11.30
  -9  -5   2  311.77   20.70
  -9  -5   2  324.97   23.00
  -9  -5   2  335.47   23.60
  -8  -5   2   27.60    7.20
  -8  -5   2   38.10   10.00
  -8  -5   2   43.60   10.00
  -7  -5   2   32.30    9.00
  -7  -5   2   41.60    8.90
  -7  -5   2   47.80   12.60
  -6  -5   2  176.58   15.20
  -6  -5   2  164.18   13.80
  -6  -5   2  188.08   14.60
  -5  -5   2  558.64   27.20
  -5  -5   2  530.05   27.50
  -5  -5   2  588.94   27.10
   4   5  -2  196.68   14.80
  -4  -5   2  213.08   15.20
  -4  -5   2  187.68   14.40
  -4  -5   2  207.78   13.90
   3   5  -2   55.19   10.10
   3   5  -2   54.59   10.60
   3   5  -2   43.80    6.10
  -3  -5   2   48.20    6.20
  -3  -5   2   44.40    6.90
  -3  -5   2   53.89    7.60
   2   5  -2    4.90    3.20
   2   5  -2    0.80    2.50
   2   5  -2   10.50    3.80
  -2  -5   2    3.00    2.30
  -2  -5   2    4.70    3.00
  -2  -5   2    1.70    2.90
   1   5  -2   -0.70    0.90
   1   5  -2    1.40    2.20
   1   5  -2   -2.10    1.50
  -1  -5   2    0.50    2.80
  -1  -5   2   -1.40    1.50
   0   5  -2 1623.84   48.50
   0   5  -2 1522.65   47.10
   0   5  -2 1571.04   52.39
   0   5  -2 1558.94   56.29
   0  -5   2 1646.44   57.09
   0  -5   2 1593.04   52.09
  -1   5  -2  131.39    6.90
  -1   5  -2  124.49    7.20
  -1   5  -2  134.09   12.40
  -1   5  -2  151.58   10.30
   1  -5   2  118.19   11.70
   1  -5   2  129.99    9.70
  -2   5  -2  741.03   23.60
  -2   5  -2  765.52   23.50
  -2   5  -2  749.42   28.70
   2  -5   2  793.62   35.20
   2  -5   2  807.02   29.00
  -3   5  -2    1.90    0.80
  -3   5  -2    0.70    0.80
  -3   5  -2    1.30    1.90
   3  -5   2    3.30    2.30
   3  -5   2   -0.40    2.40
  -4   5  -2    3.70    2.80
  -4   5  -2    0.70    1.70
   4  -5   2    1.10    3.40
   4  -5   2   -0.20    1.90
  -5   5  -2  738.83   26.00
  -5   5  -2  780.52   31.30
   5  -5   2  738.13   26.90
   5  -5   2  758.62   37.10
  -6   5  -2    2.70    3.30
   6  -5   2    2.80    0.80
   6  -5   2    4.20    4.80
   6  -5   2    0.20    1.70
   6  -5   2    1.70    1.50
  -7   5  -2   16.00    5.70
   7  -5   2   23.00    4.20
   7  -5   2   13.70    7.20
   7  -5   2   19.40    4.20
  -8   5  -2   88.39   10.60
   8  -5   2   92.19    5.10
   8  -5   2   79.59    6.20
   8  -5   2   76.89    7.00
   8  -5   2  113.49   14.60
  -9   5  -2  120.69   13.00
   9  -5   2  106.19    7.30
   9  -5   2  122.89    8.10
   9  -5   2  103.09   15.00
   9  -5   2  119.09    6.60
 -10   5  -2   27.80    8.20
  10  -5   2   27.30    3.80
  10  -5   2   34.70   11.20
  10  -5   2   18.30    4.50
 -11   5  -2  106.69   13.70
  11  -5   2   68.79   15.50
 -12   5  -2   31.50    9.20
  12  -5   2   34.20   12.00
 -13   5  -2   17.90    8.00
  13  -5   2   15.50    9.70
  15   4  -2   67.89   14.60
 -15  -4   2   83.59   16.80
  14   4  -2    3.30    6.10
 -14  -4   2    4.40    5.30
 -14  -4   2    8.70    6.70
  13   4  -2   11.50    6.90
 -13  -4   2   21.90    8.70
 -13  -4   2    8.50    5.90
 -13  -4   2   14.90    8.00
 -12  -4   2   23.20    7.60
 -12  -4   2   21.30    8.60
 -12  -4   2   18.00    7.40
 -11  -4   2   14.90    7.30
 -11  -4   2    5.10    5.60
 -11  -4   2    3.60    4.80
 -10  -4   2   -2.10    3.00
 -10  -4   2   -3.10    2.00
 -10  -4   2    2.80    3.30
  -9  -4   2  628.34   32.90
  -9  -4   2  626.14   32.90
  -9  -4   2  601.84   29.10
  -8  -4   2    3.10    3.40
  -8  -4   2    4.50    3.90
  -7  -4   2   24.70    7.20
  -7  -4   2   21.20    6.50
  -7  -4   2   32.10    6.90
   6   4  -2  296.87   18.20
  -6  -4   2  315.67   19.80
  -6  -4   2  310.87   19.10
  -6  -4   2  328.97   18.40
   5   4  -2  597.94   27.60
  -5  -4   2  613.14   27.10
  -5  -4   2  664.23   29.50
  -5  -4   2  649.93   28.40
   4   4  -2  671.93   29.10
   4   4  -2  679.63   28.50
   4   4  -2  667.13   30.20
  -4  -4   2  679.13   28.80
  -4  -4   2  723.33   30.50
  -4  -4   2  699.63   28.70
   3   4  -2   10.10    4.00
   3   4  -2   11.10    4.00
   3   4  -2   13.40    4.50
  -3  -4   2   16.50    5.30
  -3  -4   2    8.70    4.10
  -3  -4   2   13.00    4.10
   2   4  -2   -1.20    1.70
   2   4  -2   -1.40    2.10
   2   4  -2    0.90    1.70
  -2  -4   2    0.50    1.90
  -2  -4   2   -2.60    1.60
  -2  -4   2    2.10    2.00
   1   4  -2   33.50    7.60
   1   4  -2   36.90    7.00
   1   4  -2   20.40    4.10
  -1  -4   2   29.70    6.80
  -1  -4   2   35.10    5.30
   0   4  -2  106.49    8.40
   0   4  -2   89.59    6.10
   0   4  -2   97.79   10.70
   0  -4   2  113.99    8.70
   0  -4   2   89.99    9.40
  -1   4  -2 1752.02   48.60
  -1   4  -2 1667.83   49.00
  -1   4  -2 1740.33   54.29
  -1   4  -2 1650.53   58.19
   1  -4   2 1752.62   54.09
   1  -4   2 1755.02   58.89
  -2   4  -2  409.56   21.80
  -2   4  -2  407.46   12.70
  -2   4  -2  387.96   12.70
  -2   4  -2  440.66   18.00
   2  -4   2  399.96   17.80
   2  -4   2  428.26   22.60
  -3   4  -2   14.90    3.70
  -3   4  -2   15.10    5.40
   3  -4   2    7.30    4.10
   3  -4   2   12.50    3.60
  -4   4  -2   81.59    6.30
  -4   4  -2   84.19    7.70
   4  -4   2   76.09    9.70
   4  -4   2   74.79    6.60
  -5   4  -2 1602.54   49.10
  -5   4  -2 1609.94   53.39
   5  -4   2 1672.93   51.09
   5  -4   2 1587.34   43.80
   5  -4   2 1555.54   60.09
  -6   4  -2   70.39    8.20
  -6   4  -2   83.29    4.60
   6  -4   2   82.09    9.00
   6  -4   2   92.49   12.00
   6  -4   2   77.59    6.20
   6  -4   2   95.69    4.90
  -7   4  -2   54.89    7.70
  -7   4  -2   47.00    4.00
   7  -4   2   48.20    5.70
   7  -4   2   38.50    3.80
   7  -4   2   45.80    5.10
   7  -4   2   51.79   11.90
  -8   4  -2   81.99   10.00
   8  -4   2   77.09    6.00
   8  -4   2   78.59    7.60
   8  -4   2   80.39    7.00
   8  -4   2   94.39   13.60
  -9   4  -2   95.89   11.20
   9  -4   2   91.99    7.90
   9  -4   2   96.69    8.50
   9  -4   2   80.19    6.80
   9  -4   2   83.09   13.60
 -10   4  -2  184.58   16.30
  10  -4   2  207.38   21.10
  10  -4   2  168.98   14.00
  10  -4   2  206.68   12.80
  10  -4   2  171.08   12.20
 -11   4  -2   54.19   11.30
  11  -4   2   60.99   14.00
  11  -4   2   39.60    6.10
 -12   4  -2    6.50    5.10
  12  -4   2    1.50    2.20
  12  -4   2   12.60    8.50
 -13   4  -2    6.40    5.70
  13  -4   2    2.10    5.10
 -14   4  -2   35.20   10.60
  14  -4   2   50.49   15.60
  15   3  -2   47.80   19.40
 -15  -3   2   19.70    9.30
 -15  -3   2   20.90    8.50
  14   3  -2   19.50    7.60
 -14  -3   2   27.90   10.20
 -14  -3   2   25.00    9.20
  13   3  -2   -0.10    3.90
 -13  -3   2   -2.70    2.60
 -13  -3   2    0.90    5.60
  12   3  -2   32.90   11.50
 -12  -3   2   17.70    7.70
 -12  -3   2   26.20    8.60
 -11  -3   2   95.89   13.00
 -11  -3   2  108.39   13.00
 -11  -3   2   89.99   10.50
 -10  -3   2  118.49   11.60
 -10  -3   2  124.19   13.70
 -10  -3   2  147.69   15.20
  -9  -3   2  108.19   10.50
  -9  -3   2   95.19   11.90
  -9  -3   2   85.49   13.40
   8   3  -2   34.60    7.40
  -8  -3   2   50.59    7.00
  -8  -3   2   39.10    8.50
   7   3  -2  550.34   25.80
  -7  -3   2  597.64   28.20
  -7  -3   2  535.85   24.60
  -7  -3   2  567.04   27.90
  -6  -3   2  131.99   11.80
  -6  -3   2  174.38   13.50
  -6  -3   2  160.98   11.30
   5   3  -2   89.19    9.30
   5   3  -2   95.09    8.50
  -5  -3   2   82.29    8.90
  -5  -3   2   80.79    8.60
  -5  -3   2   79.99    7.80
   4   3  -2    8.20    3.40
   4   3  -2    4.10    3.00
   4   3  -2    4.30    3.00
   4   3  -2    0.50    1.70
  -4  -3   2    2.10    2.90
  -4  -3   2    6.80    3.40
  -4  -3   2    0.30    2.10
   3   3  -2   20.60    5.10
   3   3  -2   17.70    4.90
   3   3  -2   22.10    5.00
  -3  -3   2   16.00    4.50
  -3  -3   2   30.60    6.40
  -3  -3   2   29.10    5.70
   2   3  -2   36.70    5.30
   2   3  -2   30.30    5.70
   2   3  -2   27.30    4.10
  -2  -3   2   43.10    7.20
  -2  -3   2   34.40    4.50
  -2  -3   2   33.40    6.50
   1   3  -2  276.17   12.00
   1   3  -2  251.77   13.70
   1   3  -2  258.27   14.30
  -1  -3   2  249.88   13.50
  -1  -3   2  242.68   11.50
  -1  -3   2  267.67   14.50
   0   3  -2  241.38   13.90
   0   3  -2  233.58   12.50
   0   3  -2  242.68   10.20
   0  -3   2  256.27   14.50
   0  -3   2  248.18   13.00
   0  -3   2  253.17   10.20
  -1   3  -2  505.75   23.00
  -1   3  -2  502.95   20.20
  -1   3  -2  541.15   15.90
  -1   3  -2  522.85   19.20
   1  -3   2  560.74   23.80
   1  -3   2  494.95   20.20
  -2   3  -2   33.10    6.80
  -2   3  -2   24.90    4.50
   2  -3   2   25.70    4.70
   2  -3   2   16.00    5.30
  -3   3  -2  126.79    8.20
  -3   3  -2  137.69   11.40
  -3   3  -2  163.58    9.00
   3  -3   2  139.89   12.00
   3  -3   2  160.98    9.40
  -4   3  -2 1230.88   39.30
  -4   3  -2 1182.78   46.10
  -4   3  -2 1232.38   40.70
   4  -3   2 1250.07   33.80
   4  -3   2 1248.08   47.50
   4  -3   2 1288.77   40.70
  -5   3  -2  117.79    9.20
  -5   3  -2  140.29    6.10
   5  -3   2  126.89    6.10
   5  -3   2  156.28   13.80
  -6   3  -2  129.69   10.40
  -6   3  -2  144.59    7.40
   6  -3   2  159.18   10.20
   6  -3   2  137.79    8.80
   6  -3   2  152.98   14.40
   6  -3   2  140.09    7.50
  -7   3  -2   36.80    7.40
  -7   3  -2   29.60    3.80
   7  -3   2   24.30    7.90
   7  -3   2   31.70    4.00
   7  -3   2   31.10    4.90
   7  -3   2   32.40    4.70
  -8   3  -2   21.80    4.30
  -8   3  -2   22.90    6.10
   8  -3   2   22.80    4.60
   8  -3   2   34.10    6.60
   8  -3   2   18.50    7.60
   8  -3   2   30.00    6.00
  -9   3  -2  143.39   19.80
   9  -3   2  116.39   15.20
   9  -3   2  161.08   11.80
   9  -3   2  124.19   10.20
 -10   3  -2  421.56   24.90
  10  -3   2  422.86   21.50
  10  -3   2  408.26   20.50
  10  -3   2  384.66   19.70
  10  -3   2  397.26   29.10
 -11   3  -2   13.20    6.40
  11  -3   2   13.30    7.50
  11  -3   2   22.30    6.20
 -12   3  -2    4.00    4.80
  12  -3   2    2.90    3.10
  12  -3   2   -0.40    4.50
 -13   3  -2   35.10   10.20
  13  -3   2   33.00   11.70
  13  -3   2   21.00    5.80
 -14   3  -2   20.80    9.50
  14  -3   2    6.20    7.40
  15   2  -2   24.00    9.80
 -15  -2   2   13.50    7.10
  14   2  -2   32.30    9.90
 -14  -2   2   31.30   10.30
 -14  -2   2   25.50    8.80
  13   2  -2  122.29   14.70
 -13  -2   2  123.79   14.40
 -13  -2   2  114.09   15.30
  12   2  -2   13.20    6.00
 -12  -2   2   11.60    5.60
 -12  -2   2   12.90    6.30
  11   2  -2  159.58   15.20
 -11  -2   2  176.48   15.80
 -11  -2   2  149.79   15.80
 -10  -2   2   80.59    9.20
 -10  -2   2  103.89   11.60
 -10  -2   2   80.69   11.40
   9   2  -2  364.46   20.50
  -9  -2   2  374.86   23.30
  -9  -2   2  389.06   22.60
  -9  -2   2  370.16   19.70
   8   2  -2   10.00    4.10
  -8  -2   2    4.80    4.00
  -8  -2   2    6.70    3.50
  -8  -2   2    2.80    2.90
   7   2  -2   92.49    8.60
  -7  -2   2   91.49    8.30
  -7  -2   2  127.19   11.10
  -7  -2   2   89.49   10.10
   6   2  -2  319.37   16.10
   6   2  -2  275.47   17.50
  -6  -2   2  353.76   19.00
  -6  -2   2  321.37   15.70
  -6  -2   2  320.07   18.40
   5   2  -2  620.94   27.30
   5   2  -2  634.54   26.70
   5   2  -2  617.14   24.60
   5   2  -2  642.94   27.50
  -5  -2   2  642.04   24.30
  -5  -2   2  639.14   27.00
  -5  -2   2  636.94   27.20
   4   2  -2    0.30    1.80
   4   2  -2    4.70    2.60
   4   2  -2    7.40    3.60
   4   2  -2    0.80    2.20
  -4  -2   2    6.20    3.10
  -4  -2   2    5.70    2.90
  -4  -2   2    0.30    1.40
   3   2  -2   59.49    6.50
   3   2  -2   54.39    5.70
   3   2  -2   45.70    5.40
   3   2  -2   65.39    5.80
  -3  -2   2   60.19    6.50
  -3  -2   2   60.79    6.10
  -3  -2   2   57.49    5.50
   2   2  -2   71.19    6.10
   2   2  -2   72.49    6.70
   2   2  -2   74.19    6.00
  -2  -2   2   66.29    5.80
  -2  -2   2   61.79    6.30
  -2  -2   2   53.79    5.50
   1   2  -2  357.86   15.70
   1   2  -2  354.96   14.00
   1   2  -2  363.36   15.70
  -1  -2   2  340.07   15.50
  -1  -2   2  350.16   15.50
  -1  -2   2  334.77   13.70
   0   2  -2 1033.80   34.00
   0   2  -2 1065.69   30.90
   0   2  -2 1013.40   34.90
   0  -2   2 1034.10   33.90
   0  -2   2 1045.50   30.80
   0  -2   2 1012.40   34.90
  -1   2  -2  286.47   13.20
  -1   2  -2  297.97   15.20
  -1   2  -2  303.37    9.70
   1  -2   2  307.77   17.30
   1  -2   2  329.97   14.00
   1  -2   2  314.37    9.70
  -2   2  -2  325.37   13.50
  -2   2  -2  295.97   15.70
   2  -2   2  298.17   13.50
   2  -2   2  283.97   15.80
  -3   2  -2 2347.86   68.39
  -3   2  -2 2367.86   73.99
   3  -2   2 2384.56   74.49
   3  -2   2 2337.47   62.49
  -4   2  -2  574.14   26.40
  -4   2  -2  583.54   21.80
  -4   2  -2  593.34   21.70
   4  -2   2  576.04   27.10
   4  -2   2  599.84   22.60
  -5   2  -2  390.66   17.00
  -5   2  -2  372.66   13.60
  -5   2  -2  355.16   20.20
   5  -2   2  372.66   16.80
   5  -2   2  350.96   13.80
   5  -2   2  384.56   21.80
   5  -2   2  360.36   15.50
  -6   2  -2   63.69    5.30
  -6   2  -2   72.89    7.30
   6  -2   2   86.39   10.40
   6  -2   2   75.69    5.90
   6  -2   2   63.89    6.40
   6  -2   2   88.29    7.60
   6  -2   2   87.39    7.00
  -7   2  -2  138.79   10.90
  -7   2  -2  135.79    8.60
   7  -2   2  134.49   10.20
   7  -2   2  131.59   13.90
   7  -2   2  129.09    8.80
   7  -2   2  137.49    9.80
  -8   2  -2   33.50    7.40
  -8   2  -2   33.50    4.90
   8  -2   2   44.60   10.80
   8  -2   2   37.90    5.80
   8  -2   2   39.60    5.40
   8  -2   2   45.70    6.40
  -9   2  -2  434.06   23.60
   9  -2   2  401.96   20.30
   9  -2   2  422.76   21.90
   9  -2   2  462.05   21.90
 -10   2  -2   24.60    7.30
  10  -2   2   16.00    5.20
  10  -2   2   22.10    8.20
 -11   2  -2  137.19   14.10
  11  -2   2  102.39   15.30
  11  -2   2  131.39   12.30
 -12   2  -2   12.00    7.10
  12  -2   2   41.00    9.20
  12  -2   2   46.50   12.80
 -13   2  -2    3.60    5.10
  13  -2   2   12.50    5.10
  13  -2   2   29.20   11.30
 -14   2  -2   25.60    9.20
  14  -2   2   15.00    5.70
  15  -2   2   45.10   14.80
  15   1  -2   17.20    8.50
 -15  -1   2    8.50    6.40
  14   1  -2    4.80    5.20
  14   1  -2    5.10    4.70
 -14  -1   2   -3.70    3.50
  13   1  -2    5.70    5.00
 -13  -1   2   18.70    7.20
 -13  -1   2    6.70    6.60
  12   1  -2   95.59   12.00
 -12  -1   2  103.19   13.70
 -12  -1   2  110.99   12.40
  11   1  -2  141.59   13.80
 -11  -1   2  120.99   14.40
 -11  -1   2  103.79   12.00
 -11  -1   2  171.78   16.30
  10   1  -2  117.79   11.90
 -10  -1   2   88.89   11.50
 -10  -1   2   87.49   11.80
 -10  -1   2   92.59   10.70
   9   1  -2  119.99   10.70
   9   1  -2  166.18   13.10
  -9  -1   2  154.08   13.00
  -9  -1   2  157.58   14.40
  -9  -1   2  145.19   14.20
   8   1  -2  155.98   11.20
  -8  -1   2  166.68   13.80
  -8  -1   2  121.49   12.40
  -8  -1   2  145.19   12.10
  -8  -1   2  149.79   10.60
   7   1  -2   32.30    7.20
   7   1  -2   31.70    4.90
  -7  -1   2   31.10    6.70
  -7  -1   2   35.20    4.80
  -7  -1   2   33.10    7.70
  -7  -1   2   40.30    8.10
   6   1  -2  936.91   32.20
   6   1  -2  923.81   35.80
  -6  -1   2  939.41   36.30
  -6  -1   2  921.31   36.20
  -6  -1   2  902.01   34.80
   5   1  -2   11.40    3.80
   5   1  -2    8.80    2.70
   5   1  -2    2.00    2.20
   5   1  -2    9.70    3.60
  -5  -1   2    4.30    2.60
  -5  -1   2    8.00    2.50
  -5  -1   2    3.60    3.00
  -5  -1   2    4.10    2.90
   4   1  -2  283.67   12.40
   4   1  -2  293.47   15.20
   4   1  -2  278.07   14.70
   4   1  -2  312.77   15.70
  -4  -1   2  256.87   14.30
  -4  -1   2  298.37   12.30
  -4  -1   2  312.67   15.50
  -4  -1   2  294.57   14.90
   3   1  -2  270.07   12.80
   3   1  -2  256.77   13.00
   3   1  -2  248.18   10.60
   3   1  -2  235.78   12.70
  -3  -1   2  240.88   10.30
  -3  -1   2  233.38   12.50
  -3  -1   2  233.58   12.20
   2   1  -2  921.21   30.90
   2   1  -2 1001.10   30.80
   2   1  -2  953.80   29.20
   2   1  -2  906.11   31.30
  -2  -1   2  943.41   30.90
  -2  -1   2  920.91   28.90
  -2  -1   2  900.11   31.30
   1   1  -2   37.60    3.50
   1   1  -2   43.70    3.90
   1   1  -2   39.20    3.90
   1   1  -2   37.40    4.30
  -1  -1   2   34.80    3.90
  -1  -1   2   38.60    3.80
  -1  -1   2   31.30    4.30
   0   1  -2  196.68    8.00
   0   1  -2  179.68    9.40
   0   1  -2  180.78    9.50
   0  -1   2  206.78    8.10
   0  -1   2  184.88    9.60
   0  -1   2  201.38    9.90
  -1   1  -2  378.36   16.20
  -1   1  -2  396.96   11.90
  -1   1  -2  360.56   14.90
   1  -1   2  384.56   11.90
   1  -1   2  409.66   15.60
   1  -1   2  384.56   16.50
  -2   1  -2   12.80    1.90
  -2   1  -2   10.90    3.60
  -2   1  -2   12.00    3.10
   2  -1   2   15.10    3.40
   2  -1   2   23.80    5.20
   2  -1   2   10.30    1.10
  -3   1  -2 1124.49   39.60
  -3   1  -2 1121.69   34.10
  -3   1  -2 1135.99   36.30
   3  -1   2 1177.28   36.90
   3  -1   2 1145.09   32.20
   3  -1   2 1143.69   35.80
   3  -1   2 1133.39   40.00
  -4   1  -2  213.98   10.40
  -4   1  -2  216.98   11.10
   4  -1   2  214.08   13.10
   4  -1   2  215.38    9.90
   4  -1   2  188.18   11.90
   4  -1   2  208.68   14.10
   4  -1   2  215.58    9.20
   4  -1   2  216.38   10.60
  -5   1  -2  207.98   11.40
  -5   1  -2  216.58   10.20
   5  -1   2  222.68   15.40
   5  -1   2  221.08   10.50
   5  -1   2  219.28   11.00
   5  -1   2  211.28   11.50
   5  -1   2  226.68   12.50
   5  -1   2  219.18   13.60
  -6   1  -2  155.18   10.50
  -6   1  -2  166.88    9.50
   6  -1   2  144.39   10.80
   6  -1   2  147.89   11.70
   6  -1   2  169.18   11.20
   6  -1   2  159.58   10.30
   6  -1   2  168.88    9.80
   6  -1   2  185.68   14.80
  -7   1  -2   19.30    4.10
  -7   1  -2   18.10    4.90
   7  -1   2   19.50    4.80
   7  -1   2   12.00    3.70
   7  -1   2   17.60    7.10
   7  -1   2   18.00    4.70
   7  -1   2   13.80    4.30
  -8   1  -2  241.68   15.60
  -8   1  -2  244.38   13.90
   8  -1   2  238.28   14.40
   8  -1   2  252.07   19.70
   8  -1   2  248.18   15.60
   8  -1   2  251.57   15.40
  -9   1  -2  233.58   16.30
   9  -1   2  239.98   20.20
   9  -1   2  215.28   15.40
 -10   1  -2   41.60    9.10
  10  -1   2   27.80    7.30
  10  -1   2   33.20   10.30
 -11   1  -2    5.70    5.10
  11  -1   2    4.00    4.00
  11  -1   2   -0.60    3.90
 -12   1  -2   72.09   11.00
  12  -1   2   43.50   10.00
  12  -1   2   71.89   16.00
 -13   1  -2   37.70   10.00
  13  -1   2   31.50    8.50
  13  -1   2   52.19   14.00
  14  -1   2   72.19   10.00
  14  -1   2   82.19   12.00
  14  -1   2   73.59   16.90
  15  -1   2    0.50    6.10
  15  -1   2    2.20    4.30
  15   0  -2   28.20   10.50
 -15   0   2   12.80    7.60
  14   0  -2   46.40   15.20
  14   0  -2    4.30    4.70
 -14   0   2    3.20    4.60
  13   0  -2   26.80    8.40
  13   0  -2   19.30    7.20
 -13   0   2   22.30    8.80
 -13   0   2   29.80   10.20
  12   0  -2   65.49   10.10
 -12   0   2   68.89   15.10
 -12   0   2   56.99    8.60
 -12   0   2   56.59   12.30
  11   0  -2  123.49   12.70
 -11   0   2  178.18   16.40
 -11   0   2  165.78   13.60
 -11   0   2  164.78   16.70
  10   0  -2   74.59    9.40
  10   0  -2   70.49    8.40
 -10   0   2   87.99   11.80
 -10   0   2   99.49   10.20
 -10   0   2   78.99   10.80
   9   0  -2   41.70    6.30
   9   0  -2   59.29    8.00
  -9   0   2   44.30    9.70
  -9   0   2   51.79    7.30
   8   0  -2 1061.49   39.30
   8   0  -2 1031.90   37.50
   8   0  -2 1051.89   41.10
  -8   0   2 1084.29   43.80
  -8   0   2 1071.59   39.70
  -8   0   2 1092.19   43.30
   7   0  -2  341.77   18.40
   7   0  -2  346.07   17.10
   7   0  -2  349.47   16.00
  -7   0   2  318.37   19.00
  -7   0   2  327.37   19.50
  -7   0   2  334.27   17.40
   6   0  -2   33.80    5.20
   6   0  -2   38.30    4.40
   6   0  -2   38.60    6.00
   6   0  -2   36.60    4.70
  -6   0   2   53.99    6.90
  -6   0   2   40.40    5.40
  -6   0   2   40.60    7.60
   5   0  -2  102.99    9.00
   5   0  -2  116.79    8.80
   5   0  -2  108.79    6.80
   5   0  -2  101.39    8.80
  -5   0   2  120.59    6.80
  -5   0   2  124.29    9.80
  -5   0   2  124.49    8.80
  -5   0   2  107.09    9.20
   4   0  -2  184.08   10.50
   4   0  -2  186.88    8.10
   4   0  -2  182.98   11.20
   4   0  -2  153.08   10.30
  -4   0   2  174.58   10.10
  -4   0   2  183.18   11.20
  -4   0   2  168.28   10.80
  -4   0   2  177.58    7.70
   3   0  -2  489.35   15.60
   3   0  -2  487.05   19.70
   3   0  -2  502.85   19.20
   3   0  -2  496.55   19.40
  -3   0   2  508.65   15.30
  -3   0   2  490.15   18.90
  -3   0   2  516.15   19.70
  -3   0   2  473.05   19.70
   2   0  -2   53.29    2.90
   2   0  -2   47.20    4.80
   2   0  -2   44.00    4.50
   2   0  -2   60.09    4.80
  -2   0   2   53.79    2.80
  -2   0   2   55.49    5.10
  -2   0   2   53.79    4.80
  -2   0   2   45.50    4.60
   1   0  -2 2575.84   77.49
   1   0  -2 2612.84   85.29
  -1   0   2 2663.03   77.99
  -1   0   2 2656.33   85.99
   0   0  -2  677.33   22.40
   0   0  -2  673.03   21.60
   0   0  -2  690.13   19.60
   0   0  -2  680.43   20.90
   0   0   2  661.33   21.00
   0   0   2  666.13   19.50
   0   0   2  649.04   21.50
   0   0   2  656.13   22.30
  -1   0  -2   65.39    5.30
   1   0   2   70.09    3.90
   1   0   2   71.89    5.70
   1   0   2   72.39    5.30
  -2   0  -2 1590.84   44.00
  -2   0  -2 1607.74   48.00
  -2   0  -2 1591.94   44.80
   2   0   2 1585.34   49.90
   2   0   2 1661.83   45.10
   2   0   2 1618.44   48.60
  -3   0  -2  404.26   14.20
  -3   0  -2  418.06   16.60
   3   0   2  424.46   14.10
   3   0   2  427.56   17.70
   3   0   2  396.76   14.00
   3   0   2  409.26   14.50
   3   0   2  402.46   16.70
   3   0   2  423.36   19.10
  -4   0  -2  227.48   10.70
   4   0   2  222.18   11.60
   4   0   2  251.77   13.50
   4   0   2  240.78   10.80
   4   0   2  242.38   12.70
   4   0   2  262.87   10.80
   4   0   2  247.28   14.80
  -5   0  -2  147.99    9.00
   5   0   2  149.09   12.10
   5   0   2  140.39    9.50
   5   0   2  155.98   10.50
   5   0   2  134.19    8.30
   5   0   2  153.68    8.90
   5   0   2  151.48   10.90
  -6   0  -2  459.55   19.30
  -6   0  -2  480.45   20.10
   6   0   2  511.15   25.60
   6   0   2  422.16   19.10
   6   0   2  464.75   22.30
   6   0   2  469.35   21.60
   6   0   2  428.16   19.00
  -7   0  -2  451.25   20.90
  -7   0  -2  430.16   19.70
   7   0   2  449.26   22.10
   7   0   2  446.26   20.30
   7   0   2  466.35   25.80
   7   0   2  442.66   21.20
   7   0   2  411.76   19.60
  -8   0  -2  603.04   27.00
  -8   0  -2  577.54   25.60
   8   0   2  615.74   26.80
   8   0   2  635.74   28.80
   8   0   2  621.64   32.60
  -9   0  -2   61.09    8.40
   9   0   2   64.39    8.80
   9   0   2   78.89   11.90
  10   0   2   44.70    9.20
  10   0   2   29.00    9.10
 -11   0  -2   50.19   10.40
  11   0   2   55.89   14.30
  12   0   2   78.09   11.10
  12   0   2   36.30   10.50
  13   0   2  138.39   15.40
  13   0   2  166.08   20.40
  14   0   2   46.20   11.30
  14   0   2   39.00    9.20
  14   0   2   50.99   14.70
  15   0   2   30.30    8.90
  15   0   2    5.00    7.10
  15   0   2    4.60    5.60
 -15   1   2    7.80    6.90
  14  -1  -2   24.30    8.30
 -14   1   2   27.40    9.60
 -14   1   2   15.10    8.80
  13  -1  -2  191.18   16.40
  13  -1  -2  149.88   14.90
 -13   1   2  174.98   19.30
 -13   1   2  174.48   17.70
  12  -1  -2    9.40    5.10
  12  -1  -2   10.20    5.20
 -12   1   2    4.50    5.40
 -12   1   2   13.50    6.30
  11  -1  -2   97.79   10.90
 -11   1   2   70.09   10.70
 -11   1   2   79.19   12.30
 -11   1   2   95.99    9.40
  10  -1  -2    8.90    4.60
  10  -1  -2    3.10    3.00
 -10   1   2   -2.80    2.40
 -10   1   2    4.80    4.40
 -10   1   2   12.60    4.80
   9  -1  -2  293.77   18.40
   9  -1  -2  311.37   18.40
   9  -1  -2  334.97   19.00
  -9   1   2  337.47   22.10
  -9   1   2  328.57   17.50
  -9   1   2  355.56   21.70
   8  -1  -2  352.46   18.30
   8  -1  -2  347.07   16.80
   8  -1  -2  336.17   18.30
  -8   1   2  326.07   23.70
  -8   1   2  359.16   17.60
  -8   1   2  363.86   21.00
   7  -1  -2  859.91   32.20
   7  -1  -2  871.51   31.50
   7  -1  -2  876.31   29.90
  -7   1   2  821.52   30.80
  -7   1   2  808.82   35.20
  -7   1   2  816.22   34.40
   6  -1  -2   10.40    2.70
   6  -1  -2   15.50    3.60
   6  -1  -2   12.20    3.50
   6  -1  -2    6.40    3.30
  -6   1   2   13.90    3.80
  -6   1   2   10.80    4.50
  -6   1   2    7.70    3.70
   5  -1  -2   26.70    3.60
   5  -1  -2   27.90    5.60
   5  -1  -2   27.90    4.10
   5  -1  -2   33.90    3.40
   5  -1  -2   29.60    4.70
  -5   1   2   32.60    6.40
  -5   1   2   34.80    4.30
  -5   1   2   39.60    5.80
   4  -1  -2  332.77   12.50
   4  -1  -2  342.17   16.30
   4  -1  -2  325.77   11.90
   4  -1  -2  355.96   14.50
   4  -1  -2  350.66   17.80
  -4   1   2  329.47   14.00
  -4   1   2  354.46   16.50
  -4   1   2  311.77   16.00
   3  -1  -2   13.50    3.50
   3  -1  -2   14.30    3.50
   3  -1  -2   10.10    1.30
   3  -1  -2   12.20    2.80
   3  -1  -2    9.90    1.50
  -3   1   2   12.30    3.30
  -3   1   2   12.80    2.80
  -3   1   2   14.90    4.10
   2  -1  -2    3.50    1.90
   2  -1  -2    6.30    2.30
   2  -1  -2    5.10    1.90
  -2   1   2    4.00    1.90
  -2   1   2    2.50    1.70
  -2   1   2    3.60    2.10
   1  -1  -2  323.97   10.10
   1  -1  -2  317.07   12.90
   1  -1  -2  342.87   12.60
   1  -1  -2  336.07   12.30
  -1   1   2  319.47   10.60
  -1   1   2  321.97   12.20
  -1   1   2  344.37   13.40
  -1   1   2  342.17   12.60
   0  -1  -2  106.29    5.40
   0  -1  -2  115.09    6.30
   0  -1  -2  105.99    5.90
   0   1   2  119.19    6.30
   0   1   2  125.99    6.60
   0   1   2  102.29    5.90
   0   1   2  119.89    5.10
  -1  -1  -2 1352.96   39.20
  -1  -1  -2 1274.37   39.20
  -1  -1  -2 1285.97   37.90
   1   1   2 1304.87   38.90
  -2  -1  -2 2415.76   82.59
   2   1   2 2399.86   76.69
   2   1   2 2346.37   81.89
  -3  -1  -2   29.80    4.40
   3   1   2   22.40    2.90
   3   1   2   21.00    3.10
   3   1   2   22.30    3.50
   3   1   2   24.80    2.80
   3   1   2   28.20    5.20
   3   1   2   17.50    4.10
  -4  -1  -2  200.78   12.10
   4   1   2  199.48    9.60
   4   1   2  220.18   12.40
   4   1   2  196.38   11.70
   4   1   2  199.48   10.40
   4   1   2  207.98   11.50
  -5  -1  -2   88.89    8.40
  -5  -1  -2   89.49    6.80
   5   1   2   83.79    6.50
   5   1   2   81.89    7.40
   5   1   2   90.69    8.30
   5   1   2   93.79    7.40
   5   1   2   93.49    8.30
  -6  -1  -2  339.47   18.80
  -6  -1  -2  370.36   16.80
   6   1   2  322.97   15.90
   6   1   2  362.96   18.10
   6   1   2  365.46   19.10
   6   1   2  342.37   18.30
   6   1   2  328.67   18.20
  -7  -1  -2 1059.49   37.70
   7   1   2 1029.90   38.10
   7   1   2 1010.10   37.00
   7   1   2 1014.30   43.20
   7   1   2 1079.69   40.60
   7   1   2 1058.59   44.00
  -8  -1  -2  327.67   17.80
   8   1   2  279.77   18.50
   8   1   2  304.67   21.50
   9   1   2  328.47   20.70
   9   1   2  302.17   22.90
  10   1   2  113.49   12.40
  10   1   2   90.89   13.70
  11   1   2   60.49   11.90
  11   1   2   66.09   15.00
  12   1   2    6.30    4.50
  12   1   2   -3.40    3.70
  13   1   2   59.59   12.60
  13   1   2   58.39   15.10
  14   1   2   12.60    5.50
  14   1   2    5.20    6.70
  14   1   2   37.30   10.60
  15   1   2   -0.10    4.20
  15   1   2    1.40    5.90
  15   1   2    2.50    4.00
 -15   2   2   18.30    9.40
 -15   2   2   25.70    9.70
 -14   2   2    5.80    7.40
 -14   2   2   17.00   12.60
  13  -2  -2  175.28   15.70
  13  -2  -2  224.58   15.40
 -13   2   2  217.68   19.20
 -13   2   2  164.98   19.30
  12  -2  -2    8.30    5.00
  12  -2  -2    8.20    4.20
 -12   2   2    7.90    5.30
 -12   2   2    5.40    5.70
  11  -2  -2   37.70    7.40
  11  -2  -2   26.10    7.30
 -11   2   2   36.10   10.30
 -11   2   2   13.60    6.10
  10  -2  -2    6.60    3.70
  10  -2  -2    7.30    3.70
  10  -2  -2   15.00    5.70
  10  -2  -2   10.10    4.10
 -10   2   2   17.20    7.40
 -10   2   2   15.40    6.40
   9  -2  -2   11.70    3.90
   9  -2  -2   24.30    6.30
  -9   2   2   23.40    5.10
  -9   2   2   19.00    6.10
  -9   2   2   30.10    8.00
   8  -2  -2 1619.74   52.79
   8  -2  -2 1560.34   54.19
   8  -2  -2 1611.44   52.09
  -8   2   2 1662.03   60.29
  -8   2   2 1668.73   58.09
  -8   2   2 1654.43   51.09
   7  -2  -2   89.79    7.50
   7  -2  -2   91.89    7.20
   7  -2  -2   95.09    8.30
  -7   2   2   97.49    7.50
  -7   2   2  104.89   10.10
  -7   2   2   87.19    9.80
   6  -2  -2   76.79    6.10
   6  -2  -2   80.09    7.00
   6  -2  -2   88.19    6.70
   6  -2  -2   69.99    7.70
  -6   2   2   75.29    5.80
  -6   2   2   92.49    9.40
  -6   2   2   73.19    8.00
   5  -2  -2  177.28    9.40
   5  -2  -2  202.68   14.30
   5  -2  -2  196.48    9.40
   5  -2  -2  170.58   11.70
   5  -2  -2  212.68   10.60
  -5   2   2  203.28    9.40
  -5   2   2  184.58   12.30
  -5   2   2  208.28   13.30
   4  -2  -2  445.36   19.50
   4  -2  -2  454.95   16.00
   4  -2  -2  456.95   16.50
  -4   2   2  457.15   19.70
  -4   2   2  424.26   15.50
  -4   2   2  447.86   19.90
   3  -2  -2  390.76   17.00
   3  -2  -2  389.46   16.70
   3  -2  -2  419.56   14.00
   3  -2  -2  386.46   14.00
  -3   2   2  398.46   14.10
  -3   2   2  385.96   17.10
  -3   2   2  393.36   13.70
  -3   2   2  408.16   17.50
   2  -2  -2  149.88    8.50
   2  -2  -2  152.18    8.80
   2  -2  -2  156.18    6.90
  -2   2   2  166.88    9.30
  -2   2   2  169.78   10.30
  -2   2   2  153.18    8.50
  -2   2   2  163.08    7.00
   1  -2  -2  111.19    6.80
   1  -2  -2  101.69    5.40
   1  -2  -2   98.29    5.40
  -1   2   2  105.19    5.70
  -1   2   2   98.99    6.70
  -1   2   2  113.29    5.80
  -1   2   2   99.49    6.20
   0  -2  -2  179.28    8.10
   0  -2  -2  163.68    8.00
   0  -2  -2  161.38    8.20
   0   2   2  161.88    8.00
   0   2   2  177.18    8.20
   0   2   2  176.48    8.60
  -1  -2  -2 1933.71   56.29
  -1  -2  -2 1906.61   55.39
   1   2   2 1944.51   56.49
  -2  -2  -2 4401.16  140.49
   2   2   2 4474.35  136.39
   2   2   2 4498.75  140.39
  -3  -2  -2  220.08   11.40
  -3  -2  -2  204.38   11.70
   3   2   2  214.38   11.50
   3   2   2  211.08   11.80
   3   2   2  203.58   11.60
  -4  -2  -2  317.57   15.20
  -4  -2  -2  296.87   15.60
   4   2   2  291.77   13.10
   4   2   2  307.37   13.80
   4   2   2  305.27   15.70
   4   2   2  296.77   14.20
   4   2   2  317.07   15.40
  -5  -2  -2   82.99    8.20
  -5  -2  -2   77.09    7.40
   5   2   2   62.89    7.20
   5   2   2   63.69    6.40
   5   2   2   74.59    7.40
   5   2   2   69.89    6.20
  -6  -2  -2  889.11   36.20
  -6  -2  -2  936.21   35.40
   6   2   2  967.50   36.30
   6   2   2  951.00   36.30
   6   2   2  928.11   34.70
   6   2   2  942.61   36.80
  -7  -2  -2  206.88   14.00
  -7  -2  -2  193.88   14.60
   7   2   2  184.28   12.40
   7   2   2  229.38   15.70
  -8  -2  -2    6.40    4.30
   8   2   2    0.30    2.40
  -9  -2  -2   18.60    6.60
   9   2   2   35.80   10.20
   9   2   2   24.00    7.50
  10   2   2  211.18   17.80
  10   2   2  212.18   19.90
  11   2   2   64.19   13.50
  11   2   2   56.69   13.40
  12   2   2  231.88   20.50
  12   2   2  286.07   25.60
  13   2   2   30.20   11.50
  13   2   2   30.40   10.00
  14   2   2   17.00   10.20
  14   2   2    1.40    3.90
  14   2   2    3.00    4.80
  15   2   2   20.60   10.80
  15   2   2   15.50    6.70
  15   2   2   20.00    8.70
 -14   3   2  311.07   27.30
 -14   3   2  293.77   23.90
  13  -3  -2    2.80    4.20
 -13   3   2    6.20    5.20
 -13   3   2    7.20    6.70
  12  -3  -2   15.00    5.90
  12  -3  -2   23.10    5.10
 -12   3   2   28.20    8.40
  11  -3  -2   43.70    8.70
  11  -3  -2   45.20    5.70
 -11   3   2   50.59   10.70
 -11   3   2   50.69   11.60
  10  -3  -2   16.10    4.20
  10  -3  -2   11.40    5.00
  10  -3  -2    8.60    4.40
  10  -3  -2   16.70    4.20
 -10   3   2   18.60    7.50
 -10   3   2   19.30    6.70
   9  -3  -2   16.90    4.60
   9  -3  -2    6.80    3.20
   9  -3  -2   11.00    4.50
   9  -3  -2    5.60    2.90
  -9   3   2   10.50    6.10
  -9   3   2    4.80    3.90
   8  -3  -2  462.15   22.20
   8  -3  -2  443.96   17.60
   8  -3  -2  445.46   18.00
   8  -3  -2  460.45   22.00
  -8   3   2  409.56   22.90
  -8   3   2  451.85   25.50
   7  -3  -2   34.70    4.90
   7  -3  -2   38.10    5.70
   7  -3  -2   38.10    4.10
  -7   3   2   52.79    9.90
  -7   3   2   29.70    6.90
   6  -3  -2    1.10    1.60
   6  -3  -2    0.80    1.20
   6  -3  -2    0.60    1.80
   6  -3  -2   -1.70    1.10
  -6   3   2    0.40    1.00
  -6   3   2   -0.80    1.70
  -6   3   2    4.60    3.40
   5  -3  -2  775.22   30.20
   5  -3  -2  788.82   28.30
  -5   3   2  758.52   27.70
  -5   3   2  794.12   23.10
  -5   3   2  777.82   31.50
  -5   3   2  762.22   30.30
   4  -3  -2 1170.48   40.10
   4  -3  -2 1150.98   37.70
   4  -3  -2 1184.98   32.90
   4  -3  -2 1155.38   39.50
  -4   3   2 1207.48   40.40
  -4   3   2 1175.38   32.50
  -4   3   2 1174.48   40.90
  -4   3   2 1124.49   37.40
   3  -3  -2   16.40    3.40
   3  -3  -2   36.00    6.20
   3  -3  -2   19.40    1.60
  -3   3   2   17.60    4.20
  -3   3   2   15.30    4.10
  -3   3   2   16.80    1.50
  -3   3   2   12.10    3.10
   2  -3  -2   13.20    1.70
   2  -3  -2   16.20    3.50
   2  -3  -2   12.00    2.90
  -2   3   2   11.30    1.80
  -2   3   2   15.10    4.50
  -2   3   2   18.80    4.10
  -2   3   2   13.80    3.20
   1  -3  -2  100.19    6.60
   1  -3  -2   99.59    6.70
  -1   3   2   99.99    5.10
  -1   3   2   99.59    6.80
  -1   3   2  103.19    6.80
  -1   3   2   93.89    6.90
  -1   3   2   97.89    5.50
   0  -3  -2   24.80    3.70
   0  -3  -2   31.60    3.80
   0   3   2   34.70    4.10
   0   3   2   28.80    3.40
   0   3   2   33.40    3.40
   0   3   2   31.80    4.10
  -1  -3  -2   64.69    6.00
  -1  -3  -2   57.79    4.90
  -1  -3  -2   57.29    5.00
   1   3   2   64.79    5.50
   1   3   2   54.49    5.10
   1   3   2   65.99    5.40
   1   3   2   55.49    5.50
  -2  -3  -2 2575.34   73.39
   2   3   2 2539.45   74.29
   2   3   2 2523.85   75.49
  -3  -3  -2   49.60    5.90
  -3  -3  -2   59.29    6.00
   3   3   2   55.99    6.40
   3   3   2   56.79    6.00
   3   3   2   48.10    5.10
  -4  -3  -2   24.40    5.70
  -4  -3  -2   17.20    4.70
   4   3   2   17.90    4.30
   4   3   2   21.50    4.80
  -5  -3  -2    4.00    2.80
  -5  -3  -2    7.10    4.10
   5   3   2    7.70    3.80
   5   3   2    1.10    1.90
   5   3   2    0.00    1.90
   5   3   2    0.10    1.90
   5   3   2    5.70    2.80
  -6  -3  -2  909.81   34.90
  -6  -3  -2  836.62   34.80
   6   3   2  876.31   34.90
   6   3   2  811.22   31.70
  -7  -3  -2   -0.60    2.50
  -7  -3  -2   13.90    5.30
   7   3   2    8.10    3.30
  -8  -3  -2  131.19   12.30
  -8  -3  -2  155.58   13.80
  -9  -3  -2   88.09   11.20
 -10  -3  -2   62.89   10.20
  10   3   2   63.79   12.70
 -11  -3  -2  494.85   29.50
  11   3   2  453.95   32.30
  11   3   2  495.25   30.50
  12   3   2   54.09   14.40
  12   3   2   44.20   12.20
  13   3   2   -1.10    4.50
  13   3   2   -1.10    2.90
  13   3   2   -4.10    2.60
  14   3   2   -0.40    6.20
  14   3   2    4.10    5.90
  15   3   2    6.80    7.70
  15   3   2   11.60    7.80
  15   3   2    2.50    4.80
 -14   4   2   43.10   10.80
 -14   4   2   26.90   10.90
  13  -4  -2   69.49   15.10
 -13   4   2   51.99   13.40
 -13   4   2   39.90   10.10
  12  -4  -2    7.20    4.70
 -12   4   2    6.80    5.30
 -12   4   2   11.50    7.20
  11  -4  -2    2.70    3.90
 -11   4   2   -2.50    3.80
 -11   4   2   18.80    6.80
  10  -4  -2   86.59   10.40
 -10   4   2  101.39   13.40
 -10   4   2   82.99   10.60
   9  -4  -2  281.67   16.60
   9  -4  -2  325.17   19.40
  -9   4   2  319.07   19.90
  -9   4   2  274.57   21.00
   8  -4  -2  125.99   11.40
   8  -4  -2  127.39   10.10
  -8   4   2  157.68   14.70
  -8   4   2  140.99   12.40
   7  -4  -2  144.79   11.60
   7  -4  -2  116.79   10.60
  -7   4   2  145.19   13.40
  -7   4   2  144.29   12.00
   6  -4  -2  398.36   19.70
   6  -4  -2  405.16   20.30
  -6   4   2  407.06   20.80
  -6   4   2  396.46   19.30
  -6   4   2  406.56   22.20
   5  -4  -2  731.73   28.20
   5  -4  -2  735.33   28.60
  -5   4   2  690.03   28.30
  -5   4   2  695.53   30.00
  -5   4   2  669.33   27.40
   4  -4  -2  600.44   24.80
   4  -4  -2  634.54   25.10
  -4   4   2  627.44   25.00
  -4   4   2  664.93   26.00
  -4   4   2  628.84   26.80
   3  -4  -2   63.19    6.00
   3  -4  -2   56.79    6.90
  -3   4   2   58.79    6.50
  -3   4   2   61.19    6.40
  -3   4   2   58.49    6.20
   2  -4  -2   46.30    5.40
   2  -4  -2   42.90    4.80
  -2   4   2   40.10    2.80
  -2   4   2   37.40    2.90
  -2   4   2   46.30    5.40
  -2   4   2   47.20    5.50
  -2   4   2   39.50    5.10
   1  -4  -2   11.30    4.00
   1  -4  -2   11.20    3.00
  -1   4   2   17.60    4.40
  -1   4   2   14.60    2.80
  -1   4   2   18.00    3.20
  -1   4   2   17.90    4.10
   0  -4  -2  519.25   20.20
   0  -4  -2  533.05   22.00
   0  -4  -2  540.75   19.00
   0   4   2  544.85   19.40
   0   4   2  563.64   22.30
   0   4   2  534.35   20.70
   0   4   2  524.45   19.40
  -1  -4  -2    4.20    2.40
  -1  -4  -2    3.30    2.00
  -1  -4  -2    2.30    2.50
   1   4   2    2.40    2.50
   1   4   2   10.90    3.30
   1   4   2    6.30    2.60
  -2  -4  -2   49.70    5.50
  -2  -4  -2   39.40    4.60
  -2  -4  -2   39.00    5.60
   2   4   2   46.90    5.40
   2   4   2   49.10    5.40
   2   4   2   41.10    5.80
  -3  -4  -2    2.10    2.30
  -3  -4  -2   -0.60    1.50
   3   4   2    2.20    2.20
   3   4   2   -0.90    1.40
  -4  -4  -2  942.21   35.40
  -4  -4  -2  960.60   36.40
   4   4   2  898.61   35.40
   4   4   2  979.20   34.10
   4   4   2  950.20   36.60
   4   4   2  941.51   34.70
  -5  -4  -2 1840.02   62.49
  -5  -4  -2 2013.80   64.19
   5   4   2 1876.21   61.99
   5   4   2 1936.11   60.79
   5   4   2 1846.22   63.79
  -6  -4  -2    3.30    3.20
  -6  -4  -2    5.00    3.40
   6   4   2    1.90    2.00
   6   4   2    1.60    2.20
  -7  -4  -2  127.09   11.90
  -7  -4  -2  129.39   12.40
  -8  -4  -2   38.00    8.50
  -8  -4  -2   32.10    7.70
  -9  -4  -2    0.10    3.10
  -9  -4  -2    3.30    3.30
 -10  -4  -2  176.78   16.10
 -10  -4  -2  177.08   16.70
 -11  -4  -2  103.19   13.80
  11   4   2  146.29   16.50
 -12  -4  -2   24.30    9.00
  12   4   2   45.50   12.10
  12   4   2   37.20   10.20
  13   4   2    2.40    4.20
  13   4   2    5.80    6.30
  13   4   2    2.40    5.90
  14   4   2   42.20   13.60
  14   4   2   41.40   10.70
  15   4   2   -1.30    3.90
  15   4   2   13.30    9.00
  15   4   2    5.00    5.50
 -14   5   2   -3.90    4.50
 -14   5   2   -3.40    4.20
 -13   5   2    9.90    7.70
 -13   5   2    1.40    4.30
  12  -5  -2   59.29   11.30
 -12   5   2   39.20   11.60
 -12   5   2   57.29   11.80
  11  -5  -2    4.40    4.30
 -11   5   2    2.10    3.50
 -11   5   2   13.10    8.20
  10  -5  -2  161.98   14.60
 -10   5   2  182.28   18.10
 -10   5   2  156.58   14.30
   9  -5  -2   84.09   10.30
  -9   5   2   74.09   11.40
  -9   5   2   74.09    9.50
   8  -5  -2  395.16   23.90
   8  -5  -2  429.96   23.30
  -8   5   2  414.56   22.70
  -8   5   2  445.76   26.60
   7  -5  -2   74.29    9.00
  -7   5   2   81.39    9.10
  -7   5   2  103.99   11.70
  -7   5   2   59.39    7.80
   6  -5  -2   83.19    9.20
  -6   5   2  129.69   10.80
  -6   5   2  112.79   10.20
   5  -5  -2  196.88   12.40
   5  -5  -2  187.58   13.30
  -5   5   2  177.48   15.10
  -5   5   2  210.58   14.90
  -5   5   2  212.28   13.60
   4  -5  -2   30.60    6.50
   4  -5  -2   28.50    5.50
  -4   5   2   22.80    5.50
  -4   5   2   36.60    7.40
  -4   5   2   33.50    6.60
   3  -5  -2   45.40    6.30
   3  -5  -2   56.89    5.90
  -3   5   2   45.10    6.20
  -3   5   2   53.69    6.80
  -3   5   2   45.80    5.90
   2  -5  -2    6.60    3.30
   2  -5  -2    3.50    2.20
  -2   5   2    5.00    1.50
  -2   5   2    4.20    1.50
  -2   5   2    7.70    3.00
  -2   5   2    4.30    2.90
  -2   5   2   15.40    4.40
   1  -5  -2  237.68   13.90
   1  -5  -2  221.18   11.80
  -1   5   2  228.88   10.20
  -1   5   2  207.78   10.00
  -1   5   2  214.58   13.60
  -1   5   2  200.68   11.90
   0  -5  -2   93.89    6.50
   0  -5  -2   89.19    8.40
   0  -5  -2   70.39    6.40
   0   5   2   76.69    6.90
   0   5   2   90.89    6.60
   0   5   2   73.59    7.70
  -1  -5  -2 1134.49   40.50
  -1  -5  -2 1113.29   37.50
  -1  -5  -2 1115.89   37.30
   1   5   2 1119.99   38.10
   1   5   2 1144.79   37.60
   1   5   2 1082.59   41.60
  -2  -5  -2   31.30    4.80
  -2  -5  -2   28.40    5.40
  -2  -5  -2   40.50    7.90
   2   5   2   31.80    6.00
   2   5   2   38.90    7.70
   2   5   2   18.70    4.50
  -3  -5  -2   36.90    5.60
  -3  -5  -2   24.30    6.00
   3   5   2   35.10    5.50
   3   5   2   33.40    5.00
   3   5   2   36.30    7.30
  -4  -5  -2  393.96   20.50
  -4  -5  -2  417.76   21.70
   4   5   2  430.56   19.90
   4   5   2  385.46   23.80
   4   5   2  393.86   20.70
  -5  -5  -2  623.54   30.00
  -5  -5  -2  714.23   30.80
   5   5   2  717.33   29.00
  -6  -5  -2  457.85   24.60
  -6  -5  -2  439.96   23.90
   6   5   2  461.15   22.60
  -7  -5  -2   13.50    5.70
  -7  -5  -2    4.20    3.50
   7   5   2    9.50    4.20
  -8  -5  -2   61.89    9.40
  -8  -5  -2   51.89   11.10
   8   5   2   52.89    7.80
  -9  -5  -2    6.10    4.60
  -9  -5  -2    8.00    5.00
   9   5   2   -1.00    3.10
 -10  -5  -2  206.58   18.40
 -10  -5  -2  234.08   19.80
  10   5   2  265.57   19.20
 -11  -5  -2   20.10    8.20
 -11  -5  -2   12.30    6.60
  11   5   2    7.90    5.20
 -12  -5  -2   19.80    8.50
  12   5   2   22.30    9.30
  12   5   2   21.50    8.10
 -13  -5  -2   81.89   16.40
  13   5   2   74.69   21.40
  13   5   2   74.99   17.20
  14   5   2   -2.00    3.30
  14   5   2    1.20    6.60
  14   5   2   13.70    8.50
  15   5   2   14.00    9.70
  15   5   2   16.70    8.80
  15   5   2   36.20   11.00
 -13   6   2    4.50    6.50
 -13   6   2    5.00    4.90
  12  -6  -2   14.80    6.60
 -12   6   2   19.20    7.30
 -12   6   2   39.80   12.00
  11  -6  -2   54.19   11.90
 -11   6   2   50.49   10.50
 -11   6   2   49.70   12.10
  10  -6  -2   59.39    9.80
 -10   6   2   63.49    9.30
 -10   6   2   83.09   13.10
   9  -6  -2   46.70    9.70
  -9   6   2   50.29    8.10
  -9   6   2   49.50   11.00
   8  -6  -2   93.39   11.10
  -8   6   2   75.99    9.40
  -8   6   2   93.89   12.20
   7  -6  -2  750.92   34.20
  -7   6   2  786.32   36.90
  -7   6   2  743.93   32.60
   6  -6  -2   22.40    6.80
  -6   6   2   24.00    7.30
  -6   6   2   24.30    6.00
   5  -6  -2  261.37   16.80
   5  -6  -2  223.88   13.80
  -5   6   2  224.38   16.00
  -5   6   2  241.98   15.30
  -5   6   2  241.88   21.90
   4  -6  -2   39.50    7.80
   4  -6  -2   29.90    5.70
  -4   6   2   40.50    6.10
  -4   6   2   40.40    8.10
  -4   6   2   34.80    7.30
   3  -6  -2   49.80    7.30
   3  -6  -2   47.60    5.80
  -3   6   2   66.79    7.20
  -3   6   2   56.49    7.60
  -3   6   2   52.49    7.10
   2  -6  -2  587.04   24.00
   2  -6  -2  653.83   28.20
  -2   6   2  640.14   20.40
  -2   6   2  576.64   20.10
  -2   6   2  646.44   25.90
  -2   6   2  557.74   27.10
   1  -6  -2  730.53   30.70
   1  -6  -2  731.83   24.20
   1  -6  -2  688.53   26.60
  -1   6   2  709.13   24.90
  -1   6   2  686.03   30.50
  -1   6   2  687.13   27.50
   0  -6  -2  849.12   29.20
   0  -6  -2  832.22   30.40
   0  -6  -2  823.82   34.00
   0   6   2  799.62   34.00
   0   6   2  873.81   31.40
   0   6   2  797.52   29.40
  -1  -6  -2  208.28   12.10
  -1  -6  -2  228.48   15.10
  -1  -6  -2  191.08   11.80
   1   6   2  203.78   14.50
   1   6   2  183.38   11.90
   1   6   2  204.68   12.60
  -2  -6  -2   71.69    7.60
  -2  -6  -2   87.39    9.60
   2   6   2  108.89   10.60
   2   6   2   98.59    8.80
   2   6   2   94.29    8.40
  -3  -6  -2  668.83   28.10
  -3  -6  -2  638.34   29.70
   3   6   2  632.64   26.80
   3   6   2  618.24   27.80
  -4  -6  -2   93.29   10.40
  -4  -6  -2   85.99    9.30
   4   6   2   89.29    8.90
  -5  -6  -2   10.70    4.40
  -5  -6  -2   17.30    6.00
   5   6   2    4.70    3.10
  -6  -6  -2  278.97   19.00
  -6  -6  -2  297.97   20.00
   6   6   2  286.97   17.80
  -7  -6  -2   15.20    6.20
  -7  -6  -2   16.60    6.00
   7   6   2   14.70    7.40
  -8  -6  -2    0.20    2.90
  -8  -6  -2   -3.00    2.00
   8   6   2    1.00    3.30
  -9  -6  -2  170.88   16.60
  -9  -6  -2  145.49   15.30
   9   6   2  180.78   15.70
 -10  -6  -2   87.99   12.40
 -10  -6  -2  119.99   14.40
  10   6   2   81.69   11.20
 -11  -6  -2   34.00    9.90
 -11  -6  -2   44.90   11.40
  11   6   2   59.29   12.30
 -12  -6  -2   27.20    9.70
 -12  -6  -2   28.40    9.60
  12   6   2   33.40    9.70
 -13  -6  -2   22.10    9.00
  13   6   2   50.89   13.30
  13   6   2   37.80   10.90
 -14  -6  -2   -0.40    4.30
  14   6   2    9.50    7.90
  14   6   2    2.60    4.50
  15   6   2   54.49   16.30
  15   6   2   59.39   15.00
  15   6   2   67.59   17.30
 -13   7   2   83.69   18.10
 -12   7   2    5.30    5.00
 -12   7   2   12.00    8.20
  11  -7  -2   84.69   11.90
 -11   7   2   61.39    9.40
 -11   7   2   81.69   16.80
  10  -7  -2   11.60    6.10
 -10   7   2   26.70    7.30
 -10   7   2   32.50   10.30
   9  -7  -2   32.40    8.40
  -9   7   2   45.00    9.10
  -9   7   2   40.30   10.80
   8  -7  -2    3.00    4.20
  -8   7   2    2.10    3.00
  -8   7   2    0.20    3.40
   7  -7  -2  238.98   18.20
  -7   7   2  243.88   16.60
  -7   7   2  246.98   19.50
   6  -7  -2  684.03   33.50
  -6   7   2  737.33   35.40
  -6   7   2  741.33   31.40
   5  -7  -2    3.40    3.70
  -5   7   2    2.20    3.40
  -5   7   2    1.00    2.60
   4  -7  -2   31.80    5.20
   4  -7  -2   40.10    8.60
  -4   7   2   36.70    8.50
  -4   7   2   41.80    8.10
   3  -7  -2  250.27   17.50
   3  -7  -2  274.67   14.80
  -3   7   2  259.27   16.90
  -3   7   2  259.07   15.60
   2  -7  -2    8.60    3.70
   2  -7  -2    2.10    3.50
  -2   7   2    2.80    2.70
  -2   7   2    5.50    2.00
  -2   7   2    6.60    2.30
   1  -7  -2  155.98    9.00
   1  -7  -2  146.39   10.30
   1  -7  -2  141.29   12.90
  -1   7   2  147.79    9.30
  -1   7   2  148.19   11.00
   0  -7  -2  603.34   25.00
   0  -7  -2  639.64   24.40
   0  -7  -2  618.44   29.50
   0   7   2  623.84   25.00
   0   7   2  577.64   25.60
  -1  -7  -2  297.37   15.80
  -1  -7  -2  274.87   18.50
   1   7   2  286.27   16.30
   1   7   2  275.47   15.90
  -2  -7  -2   23.90    7.10
  -2  -7  -2   35.20    7.20
   2   7   2   40.30    8.10
   2   7   2   30.00    6.30
  -3  -7  -2  586.34   27.30
  -3  -7  -2  596.84   29.90
   3   7   2  612.44   27.20
  -4  -7  -2   98.49   10.40
  -4  -7  -2   77.09   10.30
   4   7   2   83.69    9.10
  -5  -7  -2   82.59   10.20
  -5  -7  -2   94.49   11.30
   5   7   2   78.59    9.30
  -6  -7  -2   25.70    9.60
   6   7   2   34.00    9.30
  -7  -7  -2   11.70    5.70
  -7  -7  -2   15.50    6.60
   7   7   2   13.80    5.70
  -8  -7  -2   21.30    8.00
  -8  -7  -2   37.00   10.20
   8   7   2   39.30    9.40
  -9  -7  -2  212.28   18.80
  -9  -7  -2  178.08   17.50
   9   7   2  172.48   16.20
 -10  -7  -2  127.79   15.20
 -10  -7  -2  114.39   14.80
  10   7   2  114.39   13.70
 -11  -7  -2   13.20    6.70
 -11  -7  -2   13.40    7.40
  11   7   2   11.70    6.30
 -12  -7  -2   13.80    8.50
 -12  -7  -2   11.80    7.50
  12   7   2   35.30   14.60
 -13  -7  -2   18.30    8.70
 -13  -7  -2   12.30    8.10
  13   7   2   29.80   11.30
  13   7   2   16.20    8.00
 -14  -7  -2    9.10    7.40
  14   7   2    3.00    6.70
  14   7   2   13.10    6.90
 -15  -7  -2    6.70    7.20
  15   7   2    8.00    7.50
  15   7   2   17.30   10.50
 -12   8   2  278.37   26.50
  11  -8  -2   -2.70    3.50
 -11   8   2    1.50    3.50
 -11   8   2    2.60    5.80
  10  -8  -2   28.20    9.00
 -10   8   2   31.30   10.30
 -10   8   2   31.20    8.00
   9  -8  -2   -0.90    3.10
  -9   8   2   -0.60    2.80
  -9   8   2    6.20    9.40
   8  -8  -2    5.00    4.40
  -8   8   2   -1.70    2.10
  -8   8   2    6.60    6.30
   7  -8  -2  217.08   18.60
  -7   8   2  227.88   19.50
  -7   8   2  226.68   16.30
   6  -8  -2  122.49   13.60
  -6   8   2  141.79   14.70
  -6   8   2  138.19   12.00
   5  -8  -2    0.00    3.00
  -5   8   2    1.60    3.80
  -5   8   2    6.50    3.90
   4  -8  -2   43.20   10.20
  -4   8   2   53.89    7.50
  -4   8   2   38.60    9.00
   3  -8  -2   18.20    6.80
  -3   8   2   16.80    5.30
  -3   8   2   10.50    4.90
  -3   8   2   13.30    1.70
  -3   8   2   11.20    1.50
   2  -8  -2  568.14   29.90
  -2   8   2  582.04   21.80
  -2   8   2  621.64   27.20
  -2   8   2  560.64   21.00
   1  -8  -2   84.99   11.00
   1  -8  -2   87.49    7.10
  -1   8   2  104.19    9.80
  -1   8   2   83.49    7.50
   0  -8  -2   48.80    6.10
   0  -8  -2   55.29    9.00
   0   8   2   70.29    7.40
   0   8   2   48.40    6.90
  -1  -8  -2    1.80    3.70
  -1  -8  -2    0.40    1.80
   1   8   2    2.70    2.80
   1   8   2    3.90    3.10
  -2  -8  -2  579.04   26.40
  -2  -8  -2  533.35   29.30
   2   8   2  536.75   25.90
  -3  -8  -2  289.67   21.00
  -3  -8  -2  355.56   20.40
   3   8   2  341.37   19.60
  -4  -8  -2   52.29    8.20
  -4  -8  -2   62.19   11.80
   4   8   2   47.50    7.60
  -5  -8  -2   67.99   10.40
   5   8   2   71.19    9.40
  -6  -8  -2    1.00    3.00
  -6  -8  -2   24.90    8.80
   6   8   2   11.30    4.90
  -7  -8  -2    1.50    3.60
  -7  -8  -2    5.20    4.80
   7   8   2    8.20    5.20
  -8  -8  -2  641.94   36.20
  -8  -8  -2  652.23   35.80
   8   8   2  727.63   35.30
  -9  -8  -2   21.10    9.00
  -9  -8  -2   11.10    6.10
   9   8   2   12.20    6.40
 -10  -8  -2  149.09   17.10
 -10  -8  -2  148.59   17.10
  10   8   2  134.59   15.30
 -11  -8  -2   37.60   10.60
 -11  -8  -2   36.70   11.00
  11   8   2   46.80   12.60
 -12  -8  -2   37.90   12.30
  12   8   2   46.80   12.40
 -13  -8  -2   52.29   13.50
 -13  -8  -2   50.39   13.20
  13   8   2   57.09   13.50
 -14  -8  -2    5.90    6.30
  14   8   2    2.00    6.20
  14   8   2   12.70    8.00
  11  -9  -2   18.40    9.30
 -11   9   2   17.70    9.20
  10  -9  -2   10.20    7.00
 -10   9   2   17.90    8.40
 -10   9   2   12.50    8.60
   9  -9  -2   38.90   10.40
  -9   9   2   37.10    8.30
  -9   9   2   65.49   14.40
   8  -9  -2   15.40    7.40
  -8   9   2    0.70    2.90
   7  -9  -2  197.18   18.60
  -7   9   2  224.28   16.10
  -7   9   2  178.58   18.40
   6  -9  -2   -2.50    2.60
  -6   9   2    1.10    2.80
  -6   9   2   -0.10    3.60
   5  -9  -2   14.30    6.80
  -5   9   2    3.90    4.20
  -5   9   2    7.70    4.20
   4  -9  -2  268.67   24.00
  -4   9   2  238.88   16.40
  -4   9   2  211.28   17.80
   3  -9  -2  102.89   15.10
  -3   9   2   95.29    4.70
  -3   9   2  104.29   11.80
  -3   9   2  109.59   10.60
   2  -9  -2    5.00    4.50
  -2   9   2   -0.80    2.00
  -2   9   2    5.40    2.90
   1  -9  -2  162.78   15.90
   1  -9  -2  175.38   10.70
  -1   9   2  134.09   12.00
  -1   9   2  154.78   11.40
   0  -9  -2   24.50    7.90
   0  -9  -2   18.40    5.10
   0   9   2    9.50    3.80
   0   9   2   14.20    5.00
  -1  -9  -2    2.20    2.70
   1   9   2    7.30    4.20
  -2  -9  -2  210.58   15.30
  -2  -9  -2  213.38   18.50
   2   9   2  233.28   16.30
  -3  -9  -2  213.98   19.00
  -3  -9  -2  249.58   17.50
   3   9   2  222.88   19.00
  -4  -9  -2  378.76   25.70
   4   9   2  341.67   21.40
  -5  -9  -2    0.00    4.20
  -5  -9  -2   -2.80    2.10
   5   9   2   -0.80    2.60
  -6  -9  -2   12.10    5.00
  -6  -9  -2    0.10    3.60
   6   9   2   -4.60    1.80
  -7  -9  -2  514.15   32.30
  -7  -9  -2  526.45   31.40
   7   9   2  539.85   30.10
  -8  -9  -2   13.60    7.10
  -8  -9  -2   -2.80    3.20
   8   9   2    4.10    5.20
  -9  -9  -2  155.08   17.40
  -9  -9  -2  144.69   17.20
   9   9   2  133.89   15.40
 -10  -9  -2   -0.40    4.30
 -10  -9  -2    7.20    6.30
  10   9   2    2.70    4.20
 -11  -9  -2   38.00   13.40
 -11  -9  -2   45.80   12.50
  11   9   2   27.20    9.50
 -12  -9  -2    4.70    5.50
 -12  -9  -2   38.70   12.50
  12   9   2   22.50    9.80
 -13  -9  -2   43.00   12.40
 -13  -9  -2   81.79   17.20
  13   9   2   41.70   12.90
 -14  -9  -2   20.60    9.30
  14   9   2   29.70   13.50
  14   9   2   14.60    9.00
  10 -10  -2   18.40    8.60
 -10  10   2   15.80    8.80
   9 -10  -2    8.20    6.70
  -9  10   2   17.80    6.70
  -9  10   2   33.40   11.40
   8 -10  -2   12.50    7.20
  -8  10   2   13.60    7.60
  -8  10   2   12.70    5.80
   7 -10  -2  168.08   18.20
  -7  10   2  137.79   17.10
  -7  10   2  157.98   13.80
   6 -10  -2    0.70    4.80
  -6  10   2    2.20    3.30
  -6  10   2   -0.40    3.40
   5 -10  -2   11.50    6.60
  -5  10   2   18.10    6.80
  -5  10   2   17.40    7.60
   4 -10  -2  327.27   24.40
  -4  10   2  321.37   23.10
  -4  10   2  281.97   19.00
   3 -10  -2   90.29   12.80
  -3  10   2   86.79    4.60
  -3  10   2   91.99   11.80
  -3  10   2   83.39    9.90
   2 -10  -2  109.59   14.10
  -2  10   2  111.89    8.10
  -2  10   2   92.59    8.00
  -2  10   2   89.89   10.40
   1 -10  -2   12.60    3.80
   1 -10  -2   39.30   10.70
  -1  10   2   21.10    5.40
  -1  10   2   21.30    6.40
   0 -10  -2    1.60    3.90
   0 -10  -2   14.80    5.10
   0  10   2   14.60    5.70
  -1 -10  -2  576.14   34.30
  -1 -10  -2  636.84   29.00
   1  10   2  720.83   41.90
  -2 -10  -2    8.70    4.20
  -2 -10  -2    9.30    6.10
   2  10   2    9.60    5.10
  -3 -10  -2  263.17   22.10
   3  10   2  249.58   18.40
  -4 -10  -2    2.90    4.20
  -4 -10  -2    6.20    5.30
   4  10   2    5.80    5.00
  -5 -10  -2   16.20    6.50
  -5 -10  -2   29.20    9.80
   5  10   2   29.80    8.40
  -6 -10  -2   93.59   13.60
  -6 -10  -2   98.79   13.20
   6  10   2   90.29   12.00
  -7 -10  -2   49.40   11.90
  -7 -10  -2   90.29   17.20
   7  10   2   69.19   11.00
  -8 -10  -2   21.00    8.70
  -8 -10  -2   33.90   10.30
   8  10   2   13.20    6.20
  -9 -10  -2    7.40    6.90
  -9 -10  -2   11.00    6.10
   9  10   2   12.80    5.90
 -10 -10  -2   20.90    9.30
  10  10   2   13.40    7.70
 -11 -10  -2   10.50    7.30
 -11 -10  -2   11.10    7.30
  11  10   2    6.60    6.00
 -12 -10  -2   17.70    8.80
 -12 -10  -2   14.80    9.40
  12  10   2   16.40    7.50
 -13 -10  -2   16.90    8.60
 -13 -10  -2    7.50    7.60
  13  10   2   14.90    9.40
 -14 -10  -2    2.20    6.50
 -14 -10  -2   -2.30    3.80
  14  10   2   10.70    7.30
  14  10   2    8.90    8.10
  10 -11  -2   -1.50    7.10
 -10  11   2    2.00    7.00
   9 -11  -2   -1.90    4.80
  -9  11   2   -0.50    4.80
   8 -11  -2   94.09   14.90
  -8  11   2   80.19   10.40
  -8  11   2   87.89   17.70
   7 -11  -2   26.20   10.40
  -7  11   2   16.70    8.70
  -7  11   2    6.40    4.30
   6 -11  -2    6.20    6.10
  -6  11   2    2.90    4.70
  -6  11   2    8.30    4.50
   5 -11  -2  121.79   15.90
  -5  11   2  104.39   11.60
  -5  11   2   83.09   17.80
   4 -11  -2   88.79   16.60
  -4  11   2   58.59    9.30
  -4  11   2   70.89   14.50
   3 -11  -2  159.98   17.90
  -3  11   2  157.18   16.10
  -3  11   2  119.59   14.50
   2 -11  -2   17.90    7.70
  -2  11   2   15.70    4.90
  -2  11   2   16.30    4.30
   1 -11  -2   10.50    6.80
  -1  11   2   13.80    4.80
  -1  11   2    9.20    4.20
  -1  11   2    9.40    5.40
   0 -11  -2   25.70   10.00
   0 -11  -2   19.10    5.80
   0  11   2   32.50    8.30
  -1 -11  -2  119.39   11.60
  -1 -11  -2  116.79   15.30
   1  11   2  121.29   12.60
  -2 -11  -2  286.57   24.50
  -2 -11  -2  274.67   23.40
   2  11   2  208.68   17.40
  -3 -11  -2   12.30    6.10
  -3 -11  -2   12.40    7.70
   3  11   2    2.00    4.40
  -4 -11  -2   28.70    8.90
  -4 -11  -2   19.30    8.30
   4  11   2   28.80    8.50
  -5 -11  -2   56.09   14.50
  -5 -11  -2   44.00   11.30
   5  11   2   46.80   11.00
  -6 -11  -2  196.68   19.30
  -6 -11  -2  257.97   23.70
   6  11   2  257.07   20.70
  -7 -11  -2    3.70    5.10
  -7 -11  -2    7.00    6.60
   7  11   2    0.40    4.30
  -8 -11  -2   47.40   13.60
  -8 -11  -2   22.60    9.00
   8  11   2   11.70    7.10
  -9 -11  -2   17.80    7.90
  -9 -11  -2   44.20   13.90
   9  11   2   34.40   10.80
 -10 -11  -2   13.20    7.70
 -10 -11  -2    6.80    6.40
  10  11   2   -0.40    4.70
 -11 -11  -2   57.29   14.70
 -11 -11  -2   96.29   19.90
  11  11   2   95.29   18.40
 -12 -11  -2   67.69   16.60
 -12 -11  -2   40.90   13.10
  12  11   2   79.79   17.50
 -13 -11  -2   -0.60    5.20
   8 -12  -2   -1.80    5.10
  -8  12   2   13.90    7.80
   7 -12  -2   93.69   18.80
  -7  12   2  108.09   16.50
   6 -12  -2   69.59   15.50
  -6  12   2   77.49   10.50
  -6  12   2  116.39   16.50
   5 -12  -2   54.99   14.50
  -5  12   2   54.49   10.90
  -5  12   2   67.39   14.20
   4 -12  -2   96.39   15.20
  -4  12   2  120.49   12.90
  -4  12   2   89.79   13.90
   3 -12  -2    5.10    5.80
  -3  12   2   21.40   13.60
  -3  12   2   11.20    5.80
   2 -12  -2   16.40    8.40
  -2  12   2   22.40    7.40
  -2  12   2   31.80    5.00
   1 -12  -2   19.90    8.90
  -1  12   2   21.00    5.80
  -1  12   2   43.00   10.30
   0 -12  -2  161.68   19.10
   0 -12  -2  165.78   13.00
   0  12   2  131.29   13.80
  -1 -12  -2    2.20    4.30
   1  12   2    2.60    4.30
  -2 -12  -2   78.99   16.20
  -2 -12  -2   69.19    9.90
   2  12   2   71.99   10.70
  -3 -12  -2    0.70    4.90
  -3 -12  -2    4.40    4.80
   3  12   2   -0.90    3.10
  -4 -12  -2   51.29   11.90
  -4 -12  -2   17.70    8.90
   4  12   2   18.50    7.40
  -5 -12  -2   80.39   16.80
  -5 -12  -2   52.29   11.80
   5  12   2   71.49   14.10
  -6 -12  -2   49.90   14.40
  -6 -12  -2   61.59   13.90
   6  12   2   41.80   10.70
  -7 -12  -2   39.80   14.70
  -7 -12  -2   64.59   14.60
   7  12   2   56.59   13.60
  -8 -12  -2   -3.30    2.80
  -8 -12  -2   -3.40    3.50
   8  12   2    7.60    6.30
  -9 -12  -2   -0.50    4.20
  -9 -12  -2   -2.30    4.90
   9  12   2    1.40    4.30
 -10 -12  -2    0.80    5.00
 -10 -12  -2    0.40    4.10
  10  12   2   12.80    8.10
 -11 -12  -2   25.20   11.20
 -11 -12  -2  105.29   22.10
  11  12   2   50.89   14.00
 -12 -12  -2    1.20    5.50
 -12 -12  -2   10.20    7.10
  12  12   2    0.50    5.70
   7 -13  -2    6.10    7.20
  -7  13   2   10.00    7.20
   6 -13  -2   52.19   14.40
  -6  13   2   43.10   13.40
   5 -13  -2   13.50    7.20
  -5  13   2   23.30    7.60
  -5  13   2   36.50   11.50
   4 -13  -2  114.19   30.60
  -4  13   2   70.49   15.40
  -4  13   2   77.69   11.10
   3 -13  -2   41.20   12.60
  -3  13   2   43.00   10.00
  -3  13   2   47.40   13.00
   2 -13  -2   -0.10    4.50
  -2  13   2    0.80    3.40
  -2  13   2    7.30    5.80
  -2  13   2   -0.10    1.90
   1 -13  -2   81.89   18.10
  -1  13   2   71.49    8.70
  -1  13   2   64.59   10.60
   0 -13  -2  192.68   21.30
   0  13   2  128.69   12.80
   0  13   2  186.68   17.00
  -1 -13  -2   88.39   10.70
  -1 -13  -2  102.09   15.90
   1  13   2   68.69   11.20
  -2 -13  -2    7.50    7.60
  -2 -13  -2    1.50    3.20
   2  13   2   -0.70    3.20
  -3 -13  -2   -1.20    3.80
  -3 -13  -2    3.00    3.80
   3  13   2   -4.50    2.70
  -4 -13  -2   41.30   10.40
  -4 -13  -2   58.99   24.20
   4  13   2   36.60   10.30
  -5 -13  -2   63.59   16.10
  -5 -13  -2   71.29   14.70
   5  13   2   77.89   15.60
  -6 -13  -2    3.80    4.70
  -6 -13  -2    5.50    5.60
   6  13   2    4.20    6.10
  -7 -13  -2   24.70   11.30
  -7 -13  -2   18.10    8.60
   7  13   2   15.10    7.90
  -8 -13  -2    1.70    5.20
  -8 -13  -2    4.80    4.70
   8  13   2   13.60    8.70
  -9 -13  -2    5.70    6.90
  -9 -13  -2   -0.30    4.50
   9  13   2   -2.30    3.90
 -10 -13  -2   49.90   15.00
 -10 -13  -2   34.10   13.00
  10  13   2   46.20   13.90
 -11 -13  -2   12.90    9.50
 -11 -13  -2    5.70    6.30
  11  13   2    7.20    8.10
   6 -14  -2  113.59   18.50
  -6  14   2   79.19   17.90
   5 -14  -2   55.69   15.90
  -5  14   2   42.40   12.50
   4 -14  -2    0.20    5.30
  -4  14   2    2.70    4.90
  -4  14   2   -1.90    3.90
   3 -14  -2    6.60    7.00
  -3  14   2    3.60    5.00
  -3  14   2    4.60    5.90
   2 -14  -2    8.90    8.10
  -2  14   2   13.10    6.90
  -2  14   2   12.10    7.40
   1 -14  -2   67.69   16.60
  -1  14   2   51.89    7.70
  -1  14   2   46.50   11.40
   0 -14  -2   32.00   11.90
   0  14   2   22.80    7.10
   0  14   2   33.60    9.80
  -1 -14  -2  107.69   17.60
  -1 -14  -2   91.19   11.30
   1  14   2   75.99   12.20
  -2 -14  -2   32.70    9.20
  -2 -14  -2   45.60   14.70
   2  14   2   44.20   12.10
  -3 -14  -2   -0.90    3.10
  -3 -14  -2    0.60    5.40
   3  14   2   -0.30    3.30
  -4 -14  -2   57.19   13.20
  -4 -14  -2   67.39   17.10
   4  14   2   39.90   13.70
  -5 -14  -2   -4.30    3.60
   5  14   2   -1.20    4.00
  -6 -14  -2   30.90   11.10
  -6 -14  -2   33.10   12.20
   6  14   2    6.20    6.80
  -7 -14  -2   -1.00    4.60
  -7 -14  -2    0.00    4.50
   7  14   2   -2.30    4.40
  -8 -14  -2    5.90    6.90
  -8 -14  -2    6.60    5.90
   8  14   2    9.00    9.00
  -9 -14  -2   62.89   16.00
  -9 -14  -2   87.39   20.80
   9  14   2   70.09   17.10
 -10 -14  -2   20.00   16.80
   4 -15  -2    7.30    9.30
  -4  15   2   -0.80    4.50
   3 -15  -2    4.60    7.50
  -3  15   2    4.10    5.40
  -3  15   2   13.70    8.30
   2 -15  -2    7.10    7.70
  -2  15   2   20.00    7.80
  -2  15   2   11.40    8.10
   1 -15  -2    5.10    6.30
  -1  15   2   -0.40    4.10
   0 -15  -2   81.09   18.80
   0  15   2   88.59   13.60
   0  15   2   69.79   10.40
  -1 -15  -2   -1.10    4.40
   1  15   2    1.60    4.60
   1  15   2    6.90    4.90
  -2 -15  -2    1.50    6.10
  -2 -15  -2    0.50    3.40
   2  15   2    2.10    4.40
  -3 -15  -2  224.98   19.70
  -3 -15  -2  205.78   24.60
   3  15   2  164.88   18.90
  -4 -15  -2    5.70    7.20
  -4 -15  -2   -2.10    3.00
   4  15   2    8.00    5.90
  -5 -15  -2   20.60    8.50
  -5 -15  -2   20.80   11.10
   5  15   2   24.80    9.80
  -6 -15  -2   14.00   10.00
  -6 -15  -2   15.10    8.30
   6  15   2   15.00    9.20
  -7 -15  -2    0.10    5.30
  -7 -15  -2    0.70    4.30
   7  15   2    5.70    7.00
  -8 -15  -2   -1.40    3.90
   8  15   2   -2.60    4.20
   1 -16  -2    5.50    7.80
  -1  16   2   21.80   10.00
  -1  16   2   20.20    9.90
   0 -16  -2    1.80    6.80
   0  16   2    4.70    5.90
  -1 -16  -2   -0.50    5.20
   1  16   2    0.40    4.30
   1  16   2    5.30    6.90
  -2 -16  -2   34.30   13.80
   2  16   2    6.80    6.30
   2  16   2   18.50    9.40
  -3 -16  -2    4.10    4.80
  -3 -16  -2   10.20    9.10
   3  16   2    2.10    5.00
   3  16   2    0.60    4.70
  -4 -16  -2   57.19   17.40
  -4 -16  -2   82.79   13.40
   4  16   2  102.79   19.50
  -5 -16  -2    5.10    5.10
  -5 -16  -2   19.70   17.70
   5  16   2    1.60    6.20
  -6 -16  -2   14.10    8.80
  -6 -16  -2   11.90    8.60
   6  16   2   -0.20    4.60
   6  15  -3   -0.80    4.30
  -6 -15   3    0.80    5.70
  -6 -15   3    0.10    4.30
   5  15  -3   61.09   15.10
  -5 -15   3   48.70   13.60
  -5 -15   3   37.60   20.30
   4  15  -3    5.30    5.70
  -4 -15   3   19.70    9.80
  -4 -15   3   -2.60   11.50
   3  15  -3   43.90   11.80
  -3 -15   3   62.99   14.50
  -3 -15   3   62.29   21.60
   2  15  -3    6.60    5.60
  -2 -15   3    2.00    4.60
  -2 -15   3   -1.40    5.20
   1  15  -3   27.20   10.50
  -1 -15   3   29.70   16.10
  -1 -15   3   50.99   13.30
   0 -15   3    7.80   11.70
   0 -15   3   -0.60    3.90
   1 -15   3    5.40    7.50
   8  14  -3    0.80    5.20
  -8 -14   3    9.30   10.00
  -8 -14   3   -1.80    3.70
   7  14  -3    3.20    5.10
  -7 -14   3   11.40    8.40
  -7 -14   3   11.30    8.00
   6  14  -3   48.10   12.30
  -6 -14   3   87.29   21.00
  -6 -14   3   63.49   15.40
   5  14  -3    4.80    6.50
  -5 -14   3    0.70    4.20
  -5 -14   3   -1.50    5.40
   4  14  -3   44.50   13.60
  -4 -14   3   42.10   14.70
  -4 -14   3   41.10   13.10
   3  14  -3    3.20    4.50
  -3 -14   3    2.80    4.40
  -3 -14   3   -3.00    4.40
   2  14  -3   37.40   10.10
  -2 -14   3    7.60    8.10
   1  14  -3    7.10    5.00
  -1 -14   3   -2.60    5.60
  -1 -14   3   29.40   10.10
   0  14  -3  140.99   13.30
   0 -14   3  115.89   14.40
   0 -14   3  138.99   22.00
   1 -14   3   14.60    6.60
   1 -14   3   18.90   11.40
   2 -14   3   72.69   19.20
  -3  14  -3   32.80   11.00
   3 -14   3   22.60   13.20
  -4  14  -3   17.40    9.10
   4 -14   3    1.70   11.90
  10  13  -3    8.60   12.00
 -10 -13   3    6.70    8.60
 -10 -13   3   15.80   10.70
   9  13  -3   66.99   16.20
  -9 -13   3   34.70   12.70
  -9 -13   3   48.10   15.10
   8  13  -3    3.70    6.00
  -8 -13   3    0.50    5.30
  -8 -13   3    7.50    7.70
   7  13  -3    5.60    6.20
  -7 -13   3    7.90    7.40
  -7 -13   3   -2.00    4.00
   6  13  -3   79.89   16.00
  -6 -13   3   77.69   17.70
  -6 -13   3   74.99   18.00
   5  13  -3   39.60   11.00
  -5 -13   3   38.20   13.30
  -5 -13   3   21.80    9.00
   4  13  -3   37.20   10.40
  -4 -13   3   59.79   16.40
  -4 -13   3   33.50   12.70
   3  13  -3   27.00    8.60
  -3 -13   3   -0.90    4.80
  -3 -13   3    5.60    5.40
   2  13  -3    4.90    4.40
  -2 -13   3    8.40    7.70
  -2 -13   3    7.60    5.70
   1  13  -3  100.89   11.60
  -1 -13   3  105.49   13.90
  -1 -13   3  154.48   21.70
   0  13  -3    7.50    7.70
   0 -13   3   -1.50    2.70
   0 -13   3   14.70    9.20
  -1  13  -3   29.40    7.00
   1 -13   3   42.80   13.40
   1 -13   3   26.20    8.30
   2 -13   3    0.00    3.30
   2 -13   3    9.90    9.10
   3 -13   3   -0.80    3.20
   3 -13   3   -2.00    5.90
  -4  13  -3   92.79   14.70
   4 -13   3   90.99   21.50
  -5  13  -3  113.29   16.70
   5 -13   3  124.89   25.50
  -6  13  -3   -4.90    3.90
   6 -13   3   -0.90    6.30
  11  12  -3   27.50   14.40
 -11 -12   3   29.20   12.30
 -11 -12   3   61.39   17.50
  10  12  -3   36.60   13.00
 -10 -12   3   17.20    9.60
 -10 -12   3   25.10   11.50
   9  12  -3   21.10    8.90
  -9 -12   3   -4.60    3.30
  -9 -12   3   -0.30    4.70
   8  12  -3    2.20    4.20
  -8 -12   3    0.20    5.10
  -8 -12   3   -3.00    3.10
   7  12  -3  120.89   15.70
  -7 -12   3  141.29   19.30
  -7 -12   3  150.58   18.90
   6  12  -3   10.70    6.60
  -6 -12   3   13.30    8.30
  -6 -12   3    6.40    6.20
   5  12  -3   69.29   11.40
  -5 -12   3   92.99   14.40
  -5 -12   3  127.09   24.10
   4  12  -3   -1.20    2.60
  -4 -12   3    2.90    8.80
  -4 -12   3   -3.80    2.50
   3  12  -3    3.50    4.40
  -3 -12   3   -2.70    2.10
   2  12  -3   58.69   10.90
  -2 -12   3   43.80   11.80
   1  12  -3   18.70    6.60
  -1 -12   3   15.60    6.90
   0  12  -3   19.00    5.90
   0 -12   3    9.30    9.60
   0 -12   3    6.70    4.30
  -1  12  -3   24.60    6.30
   1 -12   3   10.20    5.30
   1 -12   3   20.90   10.30
  -2  12  -3   16.90    4.60
   2 -12   3   22.80    7.40
   2 -12   3    9.80    7.80
   3 -12   3    7.40    8.50
   3 -12   3    6.50    4.20
  -4  12  -3   19.70    7.90
   4 -12   3   13.40   10.00
   4 -12   3   29.10    6.50
  -5  12  -3   52.39   13.70
   5 -12   3   63.39   17.50
  -6  12  -3   24.40   10.80
   6 -12   3   34.10   13.70
  -7  12  -3   20.30    8.80
   7 -12   3   34.10   14.50
 -12 -11   3   -2.80    4.70
 -12 -11   3   -1.90    4.40
  11  11  -3   84.29   18.10
 -11 -11   3   88.09   17.80
 -11 -11   3   77.79   16.80
  10  11  -3   -4.20    4.60
 -10 -11   3    5.00    6.60
 -10 -11   3   -2.20    4.60
   9  11  -3   21.20    9.10
  -9 -11   3   58.99   14.90
  -9 -11   3   32.70   12.10
   8  11  -3   55.29   13.30
  -8 -11   3   54.59   15.10
   7  11  -3  101.99   13.90
  -7 -11   3  102.79   15.90
  -7 -11   3   84.09   23.10
   6  11  -3  114.69   14.20
  -6 -11   3  105.39   16.30
  -6 -11   3   97.09   14.50
   5  11  -3   15.40    6.90
  -5 -11   3    8.80    7.50
  -5 -11   3   24.80    9.80
   4  11  -3   -1.60    2.60
  -4 -11   3    3.80    5.20
  -4 -11   3   -1.00    2.70
   3  11  -3    3.10    4.00
  -3 -11   3    0.00    5.20
  -3 -11   3    9.10    6.10
   2  11  -3  257.47   17.70
  -2 -11   3  261.87   24.80
  -2 -11   3  194.68   18.60
   1  11  -3   68.19    8.70
  -1 -11   3   47.20   13.30
  -1 -11   3   88.39   11.90
   0  11  -3   62.49    8.00
   0 -11   3   62.19    9.90
   0 -11   3   75.19   17.60
  -1  11  -3   37.40    5.90
   1 -11   3   34.90   11.60
   1 -11   3   38.10    9.20
  -2  11  -3    1.60    1.90
   2 -11   3    5.40    3.60
   2 -11   3    0.60    4.40
  -3  11  -3  108.09    7.70
  -3  11  -3  100.19    5.60
   3 -11   3   99.99   10.50
   3 -11   3  118.09   18.20
  -4  11  -3   24.30    8.20
   4 -11   3   18.50   11.40
   4 -11   3   29.20    6.60
  -5  11  -3    5.20    6.00
   5 -11   3   15.00    4.10
   5 -11   3    6.60    6.70
  -6  11  -3   16.50    7.50
   6 -11   3    8.90    9.50
  -7  11  -3  145.89   17.30
   7 -11   3  133.69   21.00
  -8  11  -3   56.49   13.80
   8 -11   3   58.29   18.30
  -9  11  -3   45.90   13.10
   9 -11   3   27.80   13.20
 -13 -10   3   19.50    9.20
 -13 -10   3    6.20    7.00
 -12 -10   3    4.40    5.60
 -12 -10   3    8.70    7.20
 -11 -10   3    4.80    5.80
 -11 -10   3    3.00    4.70
 -10 -10   3   17.70    9.50
 -10 -10   3    8.20    7.80
  -9 -10   3   -1.40    4.30
  -9 -10   3    2.30    4.80
  -8 -10   3  122.59   19.30
  -8 -10   3  140.09   18.10
  -7 -10   3   21.20    8.90
  -7 -10   3   14.30    7.80
   6  10  -3  276.67   21.00
  -6 -10   3  244.28   22.10
  -6 -10   3  265.27   24.00
   5  10  -3   29.60    8.40
  -5 -10   3   43.50   13.10
  -5 -10   3    7.40    6.10
   4  10  -3   21.40    7.10
  -4 -10   3   21.40    9.30
  -4 -10   3   20.40    7.90
   3  10  -3   45.10    9.50
  -3 -10   3   34.10   10.80
  -3 -10   3   27.20    8.90
   2  10  -3   36.40    8.10
  -2 -10   3   36.50   11.80
  -2 -10   3   16.70    6.70
   1  10  -3  125.29   11.10
  -1 -10   3  111.49   13.10
  -1 -10   3  145.49   17.70
   0  10  -3    1.00    2.30
   0 -10   3    4.30    5.50
   0 -10   3   -1.20    3.10
  -1  10  -3   68.69    7.10
  -1  10  -3   58.99    7.10
   1 -10   3   69.79    9.60
   1 -10   3   90.49   14.60
  -2  10  -3   30.70    4.70
  -2  10  -3   29.20    4.60
   2 -10   3   16.40    8.90
   2 -10   3   36.10    8.30
  -3  10  -3   63.49    4.40
  -3  10  -3   63.59    4.50
   3 -10   3   67.49    8.50
   3 -10   3   55.69   14.40
  -4  10  -3    7.60    5.40
   4 -10   3   11.70    8.70
   4 -10   3   12.20    4.80
  -5  10  -3   20.20    7.70
   5 -10   3   27.10   11.70
   5 -10   3   14.00    4.20
  -6  10  -3   36.90   10.40
  -7  10  -3   45.00   11.30
   7 -10   3   15.30    9.60
  -8  10  -3  204.78   20.00
   8 -10   3  201.18   25.20
  -9  10  -3   81.49   16.10
   9 -10   3   57.29   16.90
 -10  10  -3    5.80    7.10
  10 -10   3    5.00    7.20
 -13  -9   3   88.59   18.00
 -13  -9   3   70.09   16.60
 -12  -9   3   17.50   14.60
 -12  -9   3   21.50    9.90
 -11  -9   3    3.30    5.70
 -11  -9   3    7.00    5.60
 -10  -9   3    4.60    5.00
 -10  -9   3   -2.70    3.70
  -9  -9   3   -2.80    2.60
  -9  -9   3    6.30    5.40
  -8  -9   3  141.79   16.90
  -8  -9   3  167.88   18.50
  -7  -9   3  253.37   22.20
  -7  -9   3  247.68   22.00
  -6  -9   3    2.50    4.80
  -6  -9   3   11.30    6.40
  -5  -9   3    7.00    5.60
  -5  -9   3   14.90    7.40
   4   9  -3  139.09   13.00
  -4  -9   3  157.38   17.40
  -4  -9   3  153.28   16.10
   3   9  -3  165.88   13.30
  -3  -9   3  109.39   14.90
  -3  -9   3  125.39   14.00
   2   9  -3   17.90    5.40
  -2  -9   3   17.70    8.30
  -2  -9   3    5.60    5.10
   1   9  -3   32.90    6.90
  -1  -9   3   30.50   10.30
  -1  -9   3   26.90    8.10
   0   9  -3  182.18   11.90
   0   9  -3  175.88   12.30
   0  -9   3  156.88   14.30
   0  -9   3  166.08   18.10
  -1   9  -3   12.70    4.80
  -1   9  -3   10.70    3.40
   1  -9   3    8.80    4.70
   1  -9   3    1.40    3.90
  -2   9  -3  406.06   16.80
  -2   9  -3  388.36   16.80
   2  -9   3  378.26   29.00
   2  -9   3  411.36   22.40
  -3   9  -3   39.90    3.40
  -3   9  -3   39.00    3.40
   3  -9   3   42.40    6.80
   3  -9   3   36.90   12.30
  -4   9  -3   27.00    6.30
  -4   9  -3   29.10    8.40
   4  -9   3   43.00   12.70
   4  -9   3   46.90    6.70
  -5   9  -3    5.10    4.80
   5  -9   3    7.00    6.90
   5  -9   3    9.50    3.70
  -6   9  -3   36.30   10.20
   6  -9   3   22.40   10.90
  -7   9  -3   22.20    7.80
   7  -9   3   16.30   10.20
  -8   9  -3   25.80    8.70
   8  -9   3   25.50   11.60
  -9   9  -3   18.50    7.80
   9  -9   3   11.30    8.50
 -10   9  -3    2.70    5.00
  10  -9   3    9.60   10.20
 -11   9  -3   11.30    7.30
  11  -9   3   28.00   13.10
 -14  -8   3   25.40   11.30
 -14  -8   3   18.50    8.90
 -13  -8   3  113.59   22.40
 -13  -8   3   91.89   17.40
 -12  -8   3    0.00    3.80
 -12  -8   3   -3.90    2.70
 -11  -8   3   25.20   10.40
 -11  -8   3   34.80   11.00
 -10  -8   3   19.10    8.00
 -10  -8   3   49.30   12.50
 -10  -8   3   98.59   26.50
  -9  -8   3   -0.80    2.90
  -9  -8   3   -4.50    2.40
  -9  -8   3    1.60    3.70
  -8  -8   3  101.99   13.70
  -8  -8   3  102.59   13.60
  -8  -8   3   89.39   13.50
  -7  -8   3   72.29   14.20
  -7  -8   3   97.59   13.30
  -7  -8   3   72.49   11.40
  -6  -8   3   12.90    6.70
  -6  -8   3   12.20    6.10
  -5  -8   3    1.50    3.90
  -5  -8   3    3.00    3.90
  -4  -8   3  956.10   46.30
  -4  -8   3 1091.59   46.40
  -3  -8   3  111.09   14.70
  -3  -8   3  108.29   13.70
   2   8  -3   89.99    9.00
  -2  -8   3   82.59   10.80
  -2  -8   3   96.99   12.90
   1   8  -3   48.60    6.20
  -1  -8   3   46.20    9.60
  -1  -8   3   58.19   12.40
   0   8  -3   14.60    4.40
   0   8  -3   22.00    4.90
   0  -8   3   25.50    7.00
   0  -8   3   19.50    8.20
  -1   8  -3  122.99    9.00
  -1   8  -3  155.38    9.40
   1  -8   3  123.39   15.50
   1  -8   3  168.68   13.70
  -2   8  -3   22.90    4.00
  -2   8  -3   14.50    3.40
   2  -8   3   18.60    8.20
   2  -8   3   21.40    6.40
  -3   8  -3  110.69    5.20
  -3   8  -3   95.89   10.00
   3  -8   3  134.59   16.90
   3  -8   3  116.79   10.50
  -4   8  -3   20.20    5.40
  -4   8  -3    5.70    4.30
   4  -8   3   16.20    8.40
   4  -8   3   19.90    5.70
  -5   8  -3    3.50    4.00
   5  -8   3   12.80    8.60
   5  -8   3    7.20    3.30
  -6   8  -3  212.08   11.70
  -6   8  -3  250.17   18.70
   6  -8   3  240.58   23.90
   6  -8   3  213.28   12.20
  -7   8  -3  121.29   13.30
   7  -8   3   96.59   19.40
   7  -8   3   97.89    6.30
   7  -8   3   85.29    5.70
  -8   8  -3    6.60    5.30
   8  -8   3    3.50    5.90
  -9   8  -3   34.30    9.50
  10  -8   3   95.99   20.40
 -11   8  -3   51.79   12.50
  11  -8   3   88.49   20.70
 -14  -7   3    4.60    7.00
 -14  -7   3    8.60    6.50
 -13  -7   3   45.00   14.40
 -13  -7   3   59.19   13.10
 -12  -7   3    0.40    3.70
 -12  -7   3    1.40    4.20
 -12  -7   3    1.10    4.50
 -11  -7   3   19.80    7.90
 -11  -7   3   15.10    8.50
 -11  -7   3   17.00   11.40
 -10  -7   3  105.89   15.00
 -10  -7   3  106.39   13.40
 -10  -7   3  114.29   15.10
  -9  -7   3    1.30    3.50
  -9  -7   3    5.20    4.80
  -9  -7   3    0.30    4.10
  -8  -7   3  210.78   18.80
  -8  -7   3  216.78   19.60
  -8  -7   3  212.28   18.30
  -7  -7   3   37.80   10.70
  -7  -7   3   23.40    8.10
  -7  -7   3   17.30    6.60
  -6  -7   3   95.99   14.30
  -6  -7   3  102.69   12.00
  -6  -7   3  103.79   13.20
  -5  -7   3  774.52   37.90
  -5  -7   3  777.62   39.80
  -5  -7   3  746.03   37.10
  -4  -7   3    3.60    3.80
  -4  -7   3   13.60    5.70
  -4  -7   3   16.30    7.00
  -3  -7   3  488.35   28.20
  -3  -7   3  442.76   25.80
  -2  -7   3   17.50    6.90
  -2  -7   3   28.50    7.40
   1   7  -3  117.19    8.90
   1   7  -3  117.59    9.50
  -1  -7   3  109.29   11.50
  -1  -7   3  116.69   13.30
   0   7  -3   23.60    4.70
   0   7  -3   18.80    4.50
   0  -7   3   20.20    6.20
   0  -7   3   11.30    6.40
  -1   7  -3  178.78   10.10
  -1   7  -3  182.68    9.70
   1  -7   3  176.78   13.50
   1  -7   3  171.58   16.90
  -2   7  -3   -1.30    1.90
  -2   7  -3    1.30    1.40
  -2   7  -3    2.90    1.70
   2  -7   3    0.40    2.30
   2  -7   3    0.70    5.10
  -3   7  -3  104.49    9.80
   3  -7   3   85.99   13.00
   3  -7   3  101.69    9.50
  -4   7  -3   39.00    5.90
  -4   7  -3   46.70    7.30
   4  -7   3   47.50   11.90
   4  -7   3   61.19    7.10
  -5   7  -3  447.76   20.10
   5  -7   3  487.65   32.00
   5  -7   3  426.56   20.40
  -6   7  -3  216.28   16.60
  -6   7  -3  210.58   12.00
   6  -7   3  228.78   13.00
   6  -7   3  214.28   21.70
  -7   7  -3   80.09   10.60
   7  -7   3   83.79    7.50
   7  -7   3   83.19   16.60
   7  -7   3   75.19    6.20
  -8   7  -3    5.20    4.10
   8  -7   3    5.00    2.30
   8  -7   3    3.80    2.00
   8  -7   3   16.20    8.80
  -9   7  -3    0.00    3.10
   9  -7   3    5.20    7.10
 -10   7  -3   30.60    9.30
  10  -7   3   47.90   15.60
  11  -7   3   49.00   14.80
 -12   7  -3   78.59   15.10
  12  -7   3   59.59   16.60
 -15  -6   3   21.50   10.40
 -14  -6   3   88.69   12.90
 -14  -6   3   81.49   16.90
 -14  -6   3   93.79   19.60
 -13  -6   3    6.20    5.60
 -13  -6   3   -2.30    3.80
 -13  -6   3    2.80    4.50
 -12  -6   3   -1.60    3.10
 -12  -6   3    6.10    6.00
 -12  -6   3    2.20    5.30
 -11  -6   3   90.99   13.90
 -11  -6   3   96.29   14.10
 -11  -6   3   67.99   10.40
 -10  -6   3    4.70    4.80
 -10  -6   3    4.60    6.00
 -10  -6   3    4.90    5.40
  -9  -6   3   56.19   11.40
  -9  -6   3   52.99   12.30
  -9  -6   3   37.60   10.00
  -8  -6   3  271.47   21.30
  -8  -6   3  218.68   17.70
  -8  -6   3  229.98   19.10
  -7  -6   3    6.60    5.00
  -7  -6   3   17.60    6.70
  -7  -6   3    9.50    5.30
  -6  -6   3   56.89    8.90
  -6  -6   3   63.29   12.70
  -6  -6   3   68.89    9.80
  -5  -6   3   -1.30    1.90
  -5  -6   3   -2.10    2.20
  -5  -6   3    4.60    3.40
  -4  -6   3  237.78   15.90
  -4  -6   3  250.17   18.30
  -4  -6   3  240.88   18.00
  -3  -6   3    4.10    4.40
  -3  -6   3   10.80    4.40
  -3  -6   3   11.00    5.00
   2   6  -3  272.97   15.50
  -2  -6   3  259.47   18.90
  -2  -6   3  247.68   17.30
  -2  -6   3  280.17   15.50
   1   6  -3  262.97   16.40
  -1  -6   3  311.37   20.60
  -1  -6   3  290.47   18.00
   0   6  -3  423.76   17.60
   0   6  -3  377.76   16.10
   0   6  -3  376.16   21.10
   0  -6   3  413.76   21.50
   0  -6   3  391.46   24.30
  -1   6  -3   18.50    2.80
  -1   6  -3   27.30    6.70
  -1   6  -3   18.80    3.80
   1  -6   3   12.10    5.90
   1  -6   3   15.50    5.20
  -2   6  -3  281.97   10.90
  -2   6  -3  278.97   16.50
  -2   6  -3  279.57   10.60
   2  -6   3  271.07   16.30
   2  -6   3  260.27   20.40
  -3   6  -3   47.70    9.10
   3  -6   3   45.80    6.50
   3  -6   3   72.79   13.90
  -4   6  -3   27.00    5.70
  -4   6  -3   27.20    6.40
   4  -6   3   24.50    5.90
   4  -6   3   25.70   10.40
  -5   6  -3   21.40    6.70
  -5   6  -3   14.40    4.30
   5  -6   3   16.40    7.50
   5  -6   3   17.90    5.10
  -6   6  -3 1105.09   38.90
  -6   6  -3 1245.28   45.90
   6  -6   3 1213.48   54.99
   6  -6   3 1132.59   40.20
  -7   6  -3   14.40    5.90
   7  -6   3   16.40    4.60
   7  -6   3   11.30    3.30
   7  -6   3    4.30    5.20
  -8   6  -3   11.30    5.40
   8  -6   3    4.10    2.70
   8  -6   3   -1.40    4.90
   8  -6   3    3.50    2.70
  -9   6  -3   43.70   10.00
   9  -6   3   54.59   14.80
 -10   6  -3   29.80    9.00
  10  -6   3   15.80    9.00
 -11   6  -3   81.49   12.50
  11  -6   3  138.29   34.90
 -12   6  -3   23.20    9.20
  12  -6   3    9.80    9.70
 -13   6  -3   -1.20    4.60
  13  -6   3   -0.50    7.20
 -15  -5   3  126.29   17.70
 -15  -5   3   98.59   20.40
  14   5  -3   11.40    7.40
 -14  -5   3   13.70    8.90
 -14  -5   3   18.70    7.70
 -14  -5   3   18.50    9.30
 -13  -5   3   21.40    8.90
 -13  -5   3    7.60    5.80
 -13  -5   3   11.10    8.10
 -12  -5   3   21.90    9.40
 -12  -5   3   16.70    7.60
 -12  -5   3   13.50    5.80
 -11  -5   3   -1.40    3.40
 -11  -5   3   -0.80    3.10
 -11  -5   3    0.60    3.30
 -10  -5   3   96.79   13.40
 -10  -5   3  121.99   14.80
 -10  -5   3   98.69   11.40
  -9  -5   3   29.10    7.70
  -9  -5   3   54.09   12.20
  -9  -5   3   30.60    9.80
  -8  -5   3  123.19   14.10
  -8  -5   3  153.38   15.10
  -8  -5   3  134.19   12.90
  -7  -5   3    0.60    3.50
  -7  -5   3   -2.60    1.90
  -7  -5   3   -0.70    2.70
  -6  -5   3  648.64   32.00
  -6  -5   3  627.14   30.40
  -6  -5   3  580.54   28.60
  -5  -5   3  154.28   14.30
  -5  -5   3  211.48   15.20
  -5  -5   3  181.58   14.10
  -4  -5   3    8.30    4.40
  -4  -5   3   16.70    6.10
  -4  -5   3   24.30    6.40
   3   5  -3  223.08   14.30
   3   5  -3  214.68   18.00
  -3  -5   3  260.27   17.20
  -3  -5   3  255.97   15.00
  -3  -5   3  209.18   15.80
   2   5  -3   65.29   12.70
   2   5  -3   54.89    6.40
  -2  -5   3   66.99    8.60
  -2  -5   3   55.69    6.30
  -2  -5   3   60.49    8.00
   1   5  -3  166.68   10.40
   1   5  -3  151.18   12.30
  -1  -5   3  172.58   12.90
  -1  -5   3  177.78   14.20
  -1  -5   3  166.58   10.30
   0   5  -3  829.42   34.30
   0   5  -3  879.21   29.60
   0  -5   3  871.41   37.80
   0  -5   3  879.81   34.70
  -1   5  -3  192.78    9.10
  -1   5  -3  187.78    8.50
  -1   5  -3  193.88   13.20
   1  -5   3  201.78   13.30
   1  -5   3  178.58   15.30
  -2   5  -3   42.50    6.00
  -2   5  -3   49.40    3.00
   2  -5   3   55.59    6.90
   2  -5   3   55.09   11.00
  -3   5  -3  277.47   15.30
   3  -5   3  291.47   20.80
   3  -5   3  252.27   15.00
  -4   5  -3  292.27   15.90
  -4   5  -3  271.97   15.10
   4  -5   3  319.07   22.30
   4  -5   3  302.37   16.10
  -5   5  -3  569.74   25.10
  -5   5  -3  562.04   23.00
   5  -5   3  615.04   33.30
   5  -5   3  518.55   23.40
  -6   5  -3    5.70    3.70
  -6   5  -3    3.80    2.50
   6  -5   3    1.20    2.50
   6  -5   3    4.40    5.10
  -7   5  -3   47.00    9.00
   7  -5   3   37.00    5.10
   7  -5   3   51.89    6.50
   7  -5   3   49.70   12.30
  -8   5  -3  130.99   12.80
   8  -5   3  161.98   10.50
   8  -5   3  175.98   11.80
   8  -5   3  164.68   18.50
  -9   5  -3    6.30    5.10
   9  -5   3    8.10    3.60
   9  -5   3    7.00    3.60
   9  -5   3   11.10    7.80
 -10   5  -3  200.38   17.20
  10  -5   3  221.58   23.20
  10  -5   3  179.98   12.10
 -11   5  -3   14.10    6.50
  11  -5   3   17.30    4.80
  11  -5   3   12.20    7.60
 -12   5  -3    2.80    5.00
  12  -5   3   17.40   10.40
 -13   5  -3   15.10    7.60
  13  -5   3   14.00    9.90
 -15  -4   3   74.09   16.20
 -15  -4   3   41.90   12.80
  14   4  -3   25.60    9.40
 -14  -4   3   24.80    8.60
 -14  -4   3   13.90    8.20
  13   4  -3   10.60    6.10
 -13  -4   3    4.90    4.40
 -13  -4   3    4.90    5.20
 -13  -4   3   12.40    7.40
 -12  -4   3  146.99   18.00
 -12  -4   3  102.49   14.00
 -11  -4   3   -1.50    2.80
 -11  -4   3    3.70    3.60
 -11  -4   3    4.00    5.40
 -10  -4   3   91.59   12.90
 -10  -4   3   82.89   12.10
 -10  -4   3   98.39   10.60
  -9  -4   3    2.40    4.40
  -9  -4   3    3.20    3.00
  -9  -4   3    1.10    4.00
  -8  -4   3  292.37   20.90
  -8  -4   3  311.47   21.70
  -8  -4   3  319.17   18.70
   7   4  -3  128.09   13.30
  -7  -4   3  139.09   11.60
  -7  -4   3  146.99   14.10
   6   4  -3   86.09    9.50
  -6  -4   3  107.89   11.00
  -6  -4   3  118.19   12.00
  -6  -4   3   88.19    9.30
   5   4  -3  506.95   24.40
  -5  -4   3  483.85   24.40
  -5  -4   3  524.95   24.10
  -5  -4   3  465.35   25.40
   4   4  -3   58.29    7.50
  -4  -4   3   62.39    8.40
  -4  -4   3   50.49    6.80
  -4  -4   3   66.69    7.90
   3   4  -3   26.10    6.70
   3   4  -3   14.80    4.90
   3   4  -3   16.70    4.50
  -3  -4   3   15.50    5.20
  -3  -4   3   17.50    4.90
  -3  -4   3   33.10    7.50
   2   4  -3   -1.20    2.10
   2   4  -3   -1.00    1.90
   2   4  -3    0.00    1.50
  -2  -4   3    5.50    3.30
  -2  -4   3   -2.30    1.10
  -2  -4   3   -1.10    1.70
   1   4  -3  147.89   11.90
   1   4  -3  149.88   11.40
   1   4  -3  140.19    9.00
  -1  -4   3  134.59    8.80
  -1  -4   3  142.69   12.00
  -1  -4   3  164.68   12.10
   0   4  -3   18.00    5.60
   0   4  -3    8.60    2.60
   0   4  -3    5.00    2.90
   0  -4   3   19.50    5.50
   0  -4   3   18.60    6.00
   0  -4   3   10.90    2.70
  -1   4  -3  341.47   12.80
  -1   4  -3  356.76   20.40
  -1   4  -3  344.27   17.50
   1  -4   3  323.97   17.30
   1  -4   3  352.26   20.50
  -2   4  -3  227.38    7.10
  -2   4  -3  231.38   13.50
  -2   4  -3  221.58    7.00
  -2   4  -3  216.38   18.10
   2  -4   3  228.58   16.60
   2  -4   3  232.68   13.70
  -3   4  -3   69.79    7.00
   3  -4   3   87.19   10.70
   3  -4   3   92.49    8.20
  -4   4  -3 1511.85   49.60
  -4   4  -3 1547.05   49.50
   4  -4   3 1449.85   50.19
   4  -4   3 1632.04   59.79
  -5   4  -3  299.87   15.30
  -5   4  -3  297.27   16.00
   5  -4   3  302.57   21.90
   5  -4   3  303.77   16.30
  -6   4  -3   62.19    7.30
  -6   4  -3   56.39    6.30
   6  -4   3   39.10   10.40
   6  -4   3   53.99    6.70
  -7   4  -3   18.20    5.10
   7  -4   3   20.80    7.90
   7  -4   3   27.10    6.30
  -8   4  -3  133.69   12.30
   8  -4   3  151.68   17.40
   8  -4   3  152.08    5.80
   8  -4   3  152.58   11.70
   8  -4   3  138.69    5.10
   8  -4   3  121.89    9.70
  -9   4  -3  249.18   17.50
   9  -4   3  219.18   14.90
   9  -4   3  214.08    8.80
   9  -4   3  233.58    8.90
   9  -4   3  291.77   24.70
   9  -4   3  216.88   13.70
 -10   4  -3  210.88   17.20
  10  -4   3  205.68   14.50
  10  -4   3  212.18    9.10
  10  -4   3  199.88    9.10
  10  -4   3  250.97   24.20
 -11   4  -3   -0.50    3.40
  11  -4   3    1.70    5.10
  11  -4   3    5.30    3.10
  11  -4   3    5.80    4.00
 -12   4  -3    0.40    3.50
  12  -4   3    7.80    7.80
  12  -4   3    1.50    3.10
 -13   4  -3  125.69   28.80
  13  -4   3  114.09   18.90
 -14   4  -3   11.80    7.60
  14  -4   3   34.70   14.20
 -15  -3   3   13.50    8.80
 -15  -3   3   12.30    7.70
  14   3  -3    6.30    5.70
 -14  -3   3   10.70    7.20
 -13  -3   3   14.40    8.30
 -13  -3   3   24.40    8.30
  12   3  -3  129.29   14.10
 -12  -3   3  146.19   17.10
 -12  -3   3  130.49   15.10
 -11  -3   3  237.88   20.70
 -11  -3   3  229.68   16.10
 -11  -3   3  222.08   19.40
 -10  -3   3    1.00    3.70
 -10  -3   3    2.70    3.70
 -10  -3   3   -0.60    2.30
  -9  -3   3   46.80    7.00
  -9  -3   3   54.89   10.80
  -9  -3   3   64.79   10.10
   8   3  -3   68.29    8.40
  -8  -3   3   66.69    9.80
  -8  -3   3   53.59    7.10
  -8  -3   3   74.59   10.20
   7   3  -3  467.05   23.00
  -7  -3   3  415.06   24.70
  -7  -3   3  494.85   26.30
  -7  -3   3  508.75   22.40
   6   3  -3   52.09    6.60
  -6  -3   3   50.09    9.90
  -6  -3   3   37.70    5.70
  -6  -3   3   45.50    7.30
   5   3  -3  394.26   19.70
  -5  -3   3  444.86   19.80
  -5  -3   3  419.86   21.80
  -5  -3   3  396.56   22.00
   4   3  -3  140.89   10.50
   4   3  -3  140.59   10.60
   4   3  -3  122.69   10.50
   4   3  -3  123.59   11.10
  -4  -3   3  147.19   10.40
  -4  -3   3  118.89   10.20
  -4  -3   3  129.99   11.30
   3   3  -3   10.10    3.60
   3   3  -3   12.60    4.20
   3   3  -3   14.00    4.10
  -3  -3   3   17.60    4.50
  -3  -3   3   22.00    5.70
   2   3  -3  452.85   20.70
   2   3  -3  409.16   18.70
  -2  -3   3  464.35   20.80
  -2  -3   3  449.86   19.20
  -2  -3   3  436.46   21.10
   1   3  -3    3.00    2.00
   1   3  -3    0.40    2.20
   1   3  -3    0.20    1.70
  -1  -3   3    2.30    2.60
  -1  -3   3    5.50    2.90
  -1  -3   3    4.80    2.90
   0   3  -3   94.39    8.30
   0   3  -3   97.39    9.10
   0   3  -3   90.69    6.00
   0  -3   3   79.39    7.80
   0  -3   3   88.09    5.80
   0  -3   3   76.59    8.40
  -1   3  -3  120.29    9.20
  -1   3  -3  122.89   12.00
  -1   3  -3  117.19    5.80
   1  -3   3  115.79    5.70
   1  -3   3  119.19    9.20
   1  -3   3  121.09   10.60
  -2   3  -3  777.32   33.60
  -2   3  -3  828.72   30.40
   2  -3   3  855.61   31.10
   2  -3   3  811.92   34.40
  -3   3  -3 1345.17   44.30
  -3   3  -3 1290.97   49.20
   3  -3   3 1377.86   45.20
   3  -3   3 1338.47   50.39
  -4   3  -3   19.40    4.40
  -4   3  -3   23.80    3.80
   4  -3   3   35.50    8.80
   4  -3   3   25.50    5.50
  -5   3  -3   14.00    4.00
  -5   3  -3    7.30    3.20
   5  -3   3   15.40    6.40
   5  -3   3    8.90    3.80
  -6   3  -3   31.90    5.10
   6  -3   3   35.90    7.10
   6  -3   3   25.50    2.30
   6  -3   3   22.50    7.90
   6  -3   3   21.60    4.70
   6  -3   3   24.20    2.00
  -7   3  -3  229.08   14.70
   7  -3   3  232.38    9.80
   7  -3   3  230.48   14.60
   7  -3   3  234.58   20.10
   7  -3   3  235.08   13.60
   7  -3   3  223.88    9.20
  -8   3  -3    2.80    3.30
   8  -3   3    1.10    1.50
   8  -3   3   -1.50    3.40
   8  -3   3    1.20    2.40
   8  -3   3    4.20    3.00
   8  -3   3    0.50    1.10
  -9   3  -3  160.88   13.70
   9  -3   3  163.98    9.00
   9  -3   3  206.08   20.30
   9  -3   3  159.48    9.70
   9  -3   3  166.78   13.20
 -10   3  -3  156.68   14.20
  10  -3   3  130.89   12.10
  10  -3   3  134.89    9.50
  10  -3   3  126.59    8.40
  10  -3   3  143.79   18.10
 -11   3  -3   36.70    9.50
  11  -3   3   20.10    6.50
  11  -3   3   30.60   11.00
  11  -3   3   14.70    3.90
 -12   3  -3   29.00    8.90
  12  -3   3   29.20    7.40
  12  -3   3   33.80    5.20
  12  -3   3   40.10   13.10
 -13   3  -3   30.00    9.10
  13  -3   3   46.60   22.90
  13  -3   3   47.80   10.50
 -14   3  -3   16.70    8.40
  14  -3   3   16.90   10.70
 -15  -2   3   10.50    6.80
 -15  -2   3   18.40    8.50
  14   2  -3    2.70    5.20
 -14  -2   3   10.70    7.00
 -14  -2   3    6.10    5.20
  13   2  -3   20.50    7.60
 -13  -2   3   12.30    6.00
 -13  -2   3   21.80    8.80
  12   2  -3   49.00   10.20
 -12  -2   3   67.39   14.40
 -12  -2   3   63.89   10.50
  11   2  -3   80.09   10.30
 -11  -2   3   78.39   12.10
 -11  -2   3   92.19   11.90
  10   2  -3   29.00    7.10
 -10  -2   3   30.90    9.60
 -10  -2   3   30.60    8.20
 -10  -2   3   31.10    6.60
   9   2  -3   55.09    7.40
  -9  -2   3   62.39    7.30
  -9  -2   3   54.79    9.00
  -9  -2   3   64.19   10.10
   8   2  -3    0.50    1.90
  -8  -2   3   -1.40    2.70
  -8  -2   3    3.30    3.60
  -8  -2   3    0.50    1.80
   7   2  -3  319.87   16.60
  -7  -2   3  302.77   19.20
  -7  -2   3  312.37   20.00
  -7  -2   3  319.77   15.70
   6   2  -3 1184.28   40.30
  -6  -2   3 1175.08   44.30
  -6  -2   3 1159.78   39.00
  -6  -2   3 1154.18   44.60
   5   2  -3    0.50    1.60
   5   2  -3    0.70    2.10
  -5  -2   3   -1.00    1.50
  -5  -2   3    4.40    3.00
   4   2  -3   26.30    6.10
   4   2  -3   17.60    4.20
   4   2  -3   20.00    5.60
   4   2  -3   21.60    5.10
  -4  -2   3   21.90    5.80
  -4  -2   3   25.00    4.60
  -4  -2   3   16.60    5.00
   3   2  -3 1614.54   51.09
   3   2  -3 1657.63   52.19
   3   2  -3 1680.33   53.29
   3   2  -3 1605.64   54.19
  -3  -2   3 1607.94   53.89
  -3  -2   3 1660.43   52.79
  -3  -2   3 1624.34   50.79
   2   2  -3  660.53   26.70
   2   2  -3  671.93   24.50
   2   2  -3  671.23   25.30
   2   2  -3  645.04   24.90
  -2  -2   3  651.03   24.90
  -2  -2   3  669.83   26.90
  -2  -2   3  704.83   25.40
   1   2  -3    3.10    2.50
   1   2  -3    7.00    3.00
   1   2  -3   10.30    2.90
  -1  -2   3    9.50    3.60
  -1  -2   3    5.80    2.80
  -1  -2   3    8.20    2.80
   0   2  -3   65.69    4.90
   0   2  -3   82.09    7.50
   0   2  -3   61.59    6.40
   0  -2   3   90.39    7.90
   0  -2   3   71.99    6.90
   0  -2   3   76.79    5.20
  -1   2  -3  533.75   23.80
  -1   2  -3  550.44   17.60
  -1   2  -3  536.05   22.20
   1  -2   3  573.44   22.80
   1  -2   3  576.24   17.70
  -2   2  -3   90.19    7.50
  -2   2  -3   86.89    8.60
   2  -2   3   94.39    3.60
   2  -2   3  101.69    9.50
   2  -2   3   81.89    7.40
  -3   2  -3 1920.51   60.89
  -3   2  -3 1950.40   65.49
  -3   2  -3 2012.30   57.39
   3  -2   3 2039.70   66.89
   3  -2   3 2023.30   61.99
  -4   2  -3   52.39    5.80
  -4   2  -3   59.19    8.00
   4  -2   3   57.09    2.70
   4  -2   3   61.69    2.90
   4  -2   3   53.79    6.30
   4  -2   3   48.20    8.00
  -5   2  -3   11.90    3.40
  -5   2  -3   13.60    4.00
   5  -2   3    9.70    1.90
   5  -2   3   11.10    5.10
   5  -2   3   10.70    4.00
   5  -2   3    7.60    1.80
  -6   2  -3   27.70    5.30
   6  -2   3   24.60    2.80
   6  -2   3   30.30    8.80
   6  -2   3   17.50    6.70
   6  -2   3   22.10    2.90
   6  -2   3   28.30    6.00
  -7   2  -3  319.07   16.80
   7  -2   3  318.77   16.70
   7  -2   3  316.77   17.80
   7  -2   3  283.27   13.40
   7  -2   3  352.36   24.10
   7  -2   3  309.47   12.90
  -8   2  -3  242.68   15.30
   8  -2   3  212.68   14.70
   8  -2   3  250.57   16.10
   8  -2   3  238.58   23.90
   8  -2   3  227.78   11.30
   8  -2   3  217.88   12.20
  -9   2  -3   16.60    5.90
   9  -2   3   29.60    4.30
   9  -2   3   24.00    6.70
   9  -2   3   25.20    9.00
 -10   2  -3   76.59    9.90
  10  -2   3   83.39   10.10
  10  -2   3   75.69    7.20
  10  -2   3   52.79    7.10
  10  -2   3  101.49   15.00
 -11   2  -3    4.00    4.60
  11  -2   3    4.70    4.00
  11  -2   3   10.60    3.90
  11  -2   3    5.80    6.10
 -12   2  -3   63.59   12.30
  12  -2   3   56.79    7.20
  12  -2   3   60.59   15.20
 -13   2  -3   65.19   13.00
  13  -2   3   33.80    9.30
  13  -2   3   48.60    7.30
  13  -2   3   63.89   16.70
  14  -2   3    1.70    6.90
  15   1  -3    2.50    5.30
 -15  -1   3    3.10    5.50
 -14  -1   3   40.60   11.90
 -14  -1   3   52.09   11.30
  13   1  -3   30.60    8.30
 -13  -1   3   40.70    9.90
  12   1  -3  182.48   15.10
 -12  -1   3  222.68   20.30
 -12  -1   3  215.18   17.50
  11   1  -3    9.10    4.60
  11   1  -3    6.60    4.30
 -11  -1   3    7.90    5.90
 -11  -1   3    3.60    3.50
  10   1  -3   23.90    6.20
  10   1  -3   21.00    5.50
 -10  -1   3   14.80    5.70
 -10  -1   3   28.40    8.40
 -10  -1   3   14.70    6.60
   9   1  -3  399.46   20.20
   9   1  -3  373.86   18.90
  -9  -1   3  369.56   21.80
  -9  -1   3  378.66   24.10
  -9  -1   3  362.86   23.60
   8   1  -3   82.79    7.70
  -8  -1   3   79.59   10.40
  -8  -1   3   90.89    7.50
  -8  -1   3   98.19   11.30
  -8  -1   3   91.79    9.90
   7   1  -3  513.45   21.50
  -7  -1   3  538.95   25.70
  -7  -1   3  522.25   26.60
  -7  -1   3  566.54   27.50
   6   1  -3  129.49   11.10
   6   1  -3  134.79    8.60
  -6  -1   3  132.29   11.00
  -6  -1   3  150.38   12.20
  -6  -1   3  125.79    7.90
  -6  -1   3  110.39   10.70
   5   1  -3    5.70    3.40
   5   1  -3    3.00    2.60
   5   1  -3    7.80    2.50
   5   1  -3    7.50    3.80
  -5  -1   3   11.10    2.60
  -5  -1   3    8.70    4.00
  -5  -1   3    5.10    3.10
  -5  -1   3    9.00    3.70
   4   1  -3  924.91   35.20
   4   1  -3  971.90   30.80
   4   1  -3  942.61   34.60
   4   1  -3  962.80   35.60
  -4  -1   3  964.30   35.20
  -4  -1   3  941.01   34.70
  -4  -1   3  954.10   35.60
  -4  -1   3  981.10   30.40
   3   1  -3  123.69    7.20
   3   1  -3  129.29    9.60
   3   1  -3  109.69    8.70
   3   1  -3  126.09    8.80
  -3  -1   3  128.69    9.00
  -3  -1   3  131.39    9.70
  -3  -1   3  121.99    7.00
  -3  -1   3  125.09    9.20
   2   1  -3  190.68    9.40
   2   1  -3  206.78   10.40
   2   1  -3  189.68   11.30
   2   1  -3  173.18   10.20
  -2  -1   3  180.08    9.30
  -2  -1   3  188.88   11.40
  -2  -1   3  178.08   10.50
   1   1  -3  334.17   16.10
   1   1  -3  355.76   13.90
   1   1  -3  327.47   14.60
   1   1  -3  359.76   14.90
  -1  -1   3  369.46   15.10
  -1  -1   3  366.56   15.10
   0   1  -3 1425.86   46.90
   0   1  -3 1541.25   43.90
   0   1  -3 1467.95   46.60
   0  -1   3 1488.95   47.40
   0  -1   3 1504.25   47.00
   0  -1   3 1477.05   43.80
  -1   1  -3 1044.30   30.80
  -1   1  -3 1069.29   36.50
  -1   1  -3 1038.30   35.10
   1  -1   3 1014.90   39.10
   1  -1   3 1041.00   31.00
   1  -1   3 1058.29   35.70
  -2   1  -3   34.90    4.50
  -2   1  -3   40.10    5.70
   2  -1   3   38.10    2.80
   2  -1   3   33.10    5.40
  -3   1  -3   49.99    5.40
  -3   1  -3   39.00    7.70
  -3   1  -3   45.60    3.50
   3  -1   3   51.99    3.20
   3  -1   3   44.00    3.40
   3  -1   3   51.29    5.80
   3  -1   3   40.60    6.50
  -4   1  -3  199.98    9.50
  -4   1  -3  190.18   11.40
   4  -1   3  204.18    8.30
   4  -1   3  200.78    8.60
   4  -1   3  186.78   11.90
   4  -1   3  212.58   13.20
   4  -1   3  224.88   15.30
  -5   1  -3    1.60    1.70
   5  -1   3    5.60    2.10
   5  -1   3    4.30    1.60
   5  -1   3    2.80    2.60
   5  -1   3    5.40    2.00
   5  -1   3    2.10    2.40
   5  -1   3    6.00    2.40
   5  -1   3    7.90    4.60
  -6   1  -3   74.19    6.70
   6  -1   3   79.69    7.40
   6  -1   3   62.49    7.50
   6  -1   3   62.89    5.10
   6  -1   3   71.89    9.90
   6  -1   3   63.19    5.60
   6  -1   3   63.29    5.80
  -7   1  -3   11.10    3.90
   7  -1   3   16.70    4.90
   7  -1   3   17.20    3.50
   7  -1   3   11.80    3.50
   7  -1   3    9.10    5.50
   7  -1   3   14.70    5.10
   7  -1   3    4.00    2.40
  -8   1  -3  579.94   25.60
   8  -1   3  590.54   22.60
   8  -1   3  518.45   26.70
   8  -1   3  596.54   33.20
  -9   1  -3   19.10    6.00
   9  -1   3   13.30    6.90
   9  -1   3   26.30    5.20
   9  -1   3   24.50    6.50
   9  -1   3   19.20    5.50
 -10   1  -3   46.50    9.30
  10  -1   3   40.90    6.00
  10  -1   3   30.40    9.90
  10  -1   3   35.80    8.70
 -11   1  -3  153.78   14.20
  11  -1   3  148.39   11.50
  11  -1   3  122.79   17.30
 -12   1  -3   82.79   11.40
  12  -1   3   70.39   10.70
  12  -1   3   64.99    8.20
  12  -1   3   61.89   15.50
  13  -1   3  179.58   22.40
  13  -1   3  158.48   13.20
  13  -1   3  159.38   16.50
  14  -1   3    6.20    4.40
  14  -1   3    3.20    6.80
  14  -1   3    3.50    4.60
  15  -1   3    2.20    7.10
 -15   0   3    7.10    6.70
  14   0  -3    0.20    3.70
 -14   0   3    9.00    7.80
  13   0  -3  147.79   13.20
 -13   0   3  150.68   17.60
 -13   0   3  186.78   19.90
 -13   0   3  176.78   15.20
  12   0  -3   73.69    9.20
 -12   0   3   71.79   14.00
 -12   0   3   87.99   10.40
 -12   0   3   50.39   12.20
  11   0  -3    9.90    4.20
  11   0  -3   10.10    4.40
 -11   0   3   11.20    7.00
 -11   0   3   23.00    8.60
 -11   0   3   22.50    7.20
  10   0  -3   83.49    9.40
  10   0  -3   85.89    8.90
 -10   0   3   72.29    9.00
 -10   0   3   92.29   12.10
 -10   0   3   81.19   11.90
   9   0  -3   24.00    5.20
   9   0  -3   25.80    5.80
  -9   0   3   29.90    8.20
  -9   0   3   10.90    5.80
  -9   0   3   31.30    7.10
   8   0  -3  182.28   12.00
   8   0  -3  174.38   10.70
  -8   0   3  202.48   16.10
  -8   0   3  185.58   13.40
  -8   0   3  164.98   14.60
   7   0  -3  451.45   22.70
   7   0  -3  497.95   19.40
   7   0  -3  435.56   18.00
  -7   0   3  462.25   22.10
  -7   0   3  486.95   24.80
  -7   0   3  404.46   23.40
   6   0  -3   17.80    3.50
   6   0  -3   18.50    4.90
   6   0  -3   16.20    3.20
  -6   0   3   18.80    5.60
  -6   0   3   17.90    4.80
  -6   0   3   22.40    6.20
   5   0  -3   14.50    4.90
   5   0  -3   16.70    5.00
   5   0  -3   13.00    2.50
   5   0  -3    9.90    3.70
  -5   0   3   12.00    4.30
  -5   0   3   12.40    4.00
  -5   0   3   14.20    2.50
  -5   0   3   17.00    5.10
   4   0  -3 2459.45   74.19
   4   0  -3 2383.86   74.99
   4   0  -3 2412.56   73.69
   4   0  -3 2487.35   67.09
  -4   0   3 2411.46   75.19
  -4   0   3 2355.46   73.89
  -4   0   3 2429.96   66.49
  -4   0   3 2517.85   73.59
   3   0  -3  123.89    9.40
   3   0  -3  151.88    6.10
   3   0  -3  138.19    9.10
   3   0  -3  163.68    9.90
  -3   0   3  159.28    9.90
  -3   0   3  145.59    5.80
  -3   0   3  138.39   10.80
  -3   0   3  173.18   10.80
   2   0  -3   87.99    6.30
   2   0  -3   77.19    4.50
   2   0  -3   84.69    6.90
   2   0  -3   79.39    6.70
  -2   0   3   87.09    7.10
  -2   0   3   87.69    4.70
  -2   0   3   76.19    6.60
  -2   0   3   76.99    6.10
   1   0  -3  524.45   18.40
   1   0  -3  555.04   21.20
   1   0  -3  534.35   18.60
   1   0  -3  586.64   20.50
  -1   0   3  560.84   20.50
  -1   0   3  522.75   18.60
  -1   0   3  518.25   18.40
  -1   0   3  564.84   21.30
   0   0  -3   88.29    4.60
   0   0  -3   89.59    6.40
   0   0  -3   88.09    6.90
   0   0  -3   95.49    6.00
   0   0   3   96.49    6.20
   0   0   3   87.69    4.70
   0   0   3   86.69    7.00
   0   0   3   89.69    6.50
  -1   0  -3 3108.19   89.49
  -2   0  -3 1580.44   44.10
  -2   0  -3 1536.15   48.20
  -2   0  -3 1486.45   41.00
   2   0   3 1555.94   48.30
   2   0   3 1517.15   44.20
   2   0   3 1574.64   50.29
  -3   0  -3  273.47    9.70
  -3   0  -3  274.47   13.90
   3   0   3  293.37   11.10
   3   0   3  274.67   14.40
   3   0   3  274.07   15.90
   3   0   3  262.57   14.00
  -4   0  -3  307.07   12.00
  -4   0  -3  290.87   15.00
   4   0   3  312.87   12.70
   4   0   3  314.67   16.60
   4   0   3  297.67   11.60
   4   0   3  318.77   12.40
   4   0   3  281.87   17.60
   4   0   3  306.67   15.90
  -5   0  -3  173.88    9.50
   5   0   3  199.08   13.30
   5   0   3  192.58   10.10
   5   0   3  187.68   12.50
   5   0   3  182.18   14.50
   5   0   3  190.18    9.40
   5   0   3  187.68    9.60
  -6   0  -3  321.87   15.00
   6   0   3  289.67   14.00
   6   0   3  316.37   20.70
   6   0   3  302.37   14.70
   6   0   3  319.47   16.80
   6   0   3  318.17   14.00
   6   0   3  340.97   18.10
  -7   0  -3  847.92   31.10
   7   0   3  770.32   29.60
   7   0   3  844.32   34.40
   7   0   3  818.92   29.30
   7   0   3  823.22   38.90
   7   0   3  828.62   30.90
  -8   0  -3    9.10    4.20
   8   0   3    4.40    2.70
   8   0   3    4.80    3.10
   8   0   3    3.10    3.10
   8   0   3   17.40    6.90
  -9   0  -3    5.00    3.80
   9   0   3   12.30    5.20
   9   0   3    9.40    6.20
   9   0   3    4.80    3.00
 -10   0  -3   52.99    8.10
  10   0   3   37.90    6.00
  10   0   3   43.30   11.70
  10   0   3   42.50    9.70
  11   0   3   16.00    5.20
  11   0   3    2.10    5.30
  11   0   3   20.90    6.80
  12   0   3  215.58   18.90
  12   0   3  212.98   15.50
  12   0   3  198.58   22.30
  13   0   3   88.19   10.50
  13   0   3   90.89   19.90
  13   0   3   80.99   12.70
  14   0   3   11.70    6.60
  14   0   3   17.20    6.40
  14   0   3    4.30    7.70
  15   0   3    5.70    6.20
  15   0   3    3.10    4.40
  15   0   3    4.00    7.60
 -15   1   3    9.00    6.70
  14  -1  -3   48.00   10.30
 -14   1   3   71.49   16.30
 -14   1   3   55.09   13.60
  13  -1  -3   96.09   10.00
  13  -1  -3  113.59   12.40
 -13   1   3  107.79   14.70
 -13   1   3   96.89   15.40
  12  -1  -3   -0.60    2.90
 -12   1   3    1.40    2.70
 -12   1   3    0.40    4.60
 -12   1   3    8.10    5.90
  11  -1  -3    8.80    4.40
 -11   1   3    3.60    3.50
 -11   1   3   14.30    6.50
 -11   1   3   11.00    7.00
  10  -1  -3  190.78   12.20
  10  -1  -3  214.38   13.60
 -10   1   3  178.48   16.70
 -10   1   3  201.58   14.10
 -10   1   3  234.58   19.60
   9  -1  -3  182.58   11.10
   9  -1  -3  184.18   12.00
  -9   1   3  210.68   16.90
  -9   1   3  190.58   16.80
  -9   1   3  203.98   13.40
   8  -1  -3    5.70    2.70
   8  -1  -3    0.50    1.60
   8  -1  -3    5.20    3.30
  -8   1   3    2.90    3.40
  -8   1   3    4.90    4.20
  -8   1   3    3.30    2.70
   7  -1  -3  149.99    9.00
   7  -1  -3  149.29    8.30
  -7   1   3  143.89   10.40
  -7   1   3  177.98   14.00
  -7   1   3  151.88   13.00
   6  -1  -3   55.19    4.20
   6  -1  -3   60.69    4.80
   6  -1  -3   56.89    6.40
  -6   1   3   56.59    7.50
  -6   1   3   61.09    8.00
  -6   1   3   61.39    6.40
   5  -1  -3   83.49    7.30
   5  -1  -3   79.79    4.40
   5  -1  -3   86.49    8.60
   5  -1  -3   72.39    4.00
  -5   1   3   83.89    8.60
  -5   1   3   66.19    7.60
  -5   1   3   78.39    6.90
   4  -1  -3  459.65   20.30
   4  -1  -3  468.05   19.20
   4  -1  -3  460.45   21.10
  -4   1   3  464.45   19.00
  -4   1   3  470.45   21.60
  -4   1   3  463.45   20.70
   3  -1  -3  759.72   26.20
   3  -1  -3  727.63   26.50
   3  -1  -3  739.73   27.70
  -3   1   3  702.33   26.50
  -3   1   3  713.93   27.50
  -3   1   3  731.53   26.00
   2  -1  -3  228.38   11.00
   2  -1  -3  227.48   11.40
   2  -1  -3  226.88   12.10
  -2   1   3  263.17   12.80
  -2   1   3  212.78   11.00
   1  -1  -3   52.59    5.10
   1  -1  -3   48.50    4.90
   1  -1  -3   49.50    4.10
  -1   1   3   45.70    3.50
  -1   1   3   52.49    5.10
  -1   1   3   52.39    5.20
  -1   1   3   44.40    4.10
   0  -1  -3   32.70    2.70
   0  -1  -3   30.70    3.80
   0  -1  -3   28.60    3.30
   0  -1  -3   33.70    4.20
   0   1   3   29.40    4.10
   0   1   3   30.10    2.80
   0   1   3   33.70    3.50
   0   1   3   24.40    3.60
  -1  -1  -3 6540.95  189.38
   1   1   3 6602.54  192.88
   1   1   3 6430.16  189.88
   1   1   3 6570.24  197.48
  -2  -1  -3 1513.25   48.10
  -2  -1  -3 1556.34   45.20
   2   1   3 1518.85   47.80
   2   1   3 1542.75   45.40
   2   1   3 1541.55   51.49
  -3  -1  -3 1883.11   59.19
  -3  -1  -3 1949.01   55.89
  -3  -1  -3 1932.81   60.09
   3   1   3 1971.30   60.09
   3   1   3 1962.10   56.29
   3   1   3 1878.01   59.69
  -4  -1  -3   93.19    8.60
   4   1   3   91.99    8.10
   4   1   3   82.49    6.30
   4   1   3   92.39    5.40
   4   1   3   84.29    7.30
  -5  -1  -3  183.38   12.80
   5   1   3  180.88   14.20
   5   1   3  179.78    9.20
   5   1   3  156.98    9.30
   5   1   3  163.58   12.20
   5   1   3  193.18   10.60
   5   1   3  172.48   11.40
   5   1   3  165.18   12.10
   6   1   3  580.64   24.10
   6   1   3  638.94   23.70
   6   1   3  604.44   22.80
   6   1   3  632.74   30.70
   6   1   3  590.64   26.00
   6   1   3  604.14   27.50
   7   1   3  330.57   17.60
   7   1   3  336.27   16.60
   7   1   3  420.76   22.20
   7   1   3  381.46   17.50
   7   1   3  371.76   23.70
   8   1   3    2.50    2.10
   8   1   3    0.00    3.60
   8   1   3    3.10    2.50
   8   1   3    0.10    2.70
   9   1   3   10.50    5.40
   9   1   3    3.10    4.30
   9   1   3    3.70    2.90
  10   1   3   -0.30    3.90
  10   1   3    3.10    3.10
  10   1   3    0.50    2.20
  11   1   3  120.79   11.40
  11   1   3  105.99   16.10
  11   1   3  105.39   13.00
  12   1   3    0.10    2.40
  12   1   3   -2.70    2.50
  12   1   3   -1.70    4.60
  13   1   3   59.19    9.30
  13   1   3   41.00   13.30
  13   1   3   41.80   11.40
  14   1   3   65.29   17.70
  14   1   3   30.10    8.30
  14   1   3   30.00   10.30
  15   1   3   22.80    8.10
  15   1   3   35.40   13.80
  15   1   3   38.70   13.60
 -15   2   3   40.90   12.20
 -14   2   3   85.19   13.90
 -14   2   3   81.29   16.50
  13  -2  -3    2.70    3.50
 -13   2   3    0.50    3.70
 -13   2   3    8.20    6.70
  12  -2  -3    6.30    4.00
  12  -2  -3   19.50    5.90
 -12   2   3   13.60    6.40
  11  -2  -3   51.09    6.90
 -11   2   3   43.40    6.20
 -11   2   3   59.69   12.60
 -11   2   3   74.19   11.30
  10  -2  -3    6.30    3.20
  10  -2  -3   11.40    4.40
  10  -2  -3   21.90    5.20
 -10   2   3   26.20    5.80
 -10   2   3   14.30    6.70
 -10   2   3   24.10    7.60
   9  -2  -3   35.60    4.90
   9  -2  -3   30.20    6.60
   9  -2  -3   29.10    4.80
  -9   2   3   43.00    9.40
  -9   2   3   39.80    9.60
  -9   2   3   35.70    5.40
   8  -2  -3   64.29    7.10
   8  -2  -3   69.49    6.60
   8  -2  -3   49.90    5.20
  -8   2   3   62.69    6.50
  -8   2   3   60.19    9.30
  -8   2   3   72.09    9.50
   7  -2  -3  123.89    7.90
   7  -2  -3  108.99    8.70
   7  -2  -3  123.29    7.30
  -7   2   3  114.49   11.70
  -7   2   3  105.39   10.90
  -7   2   3  129.59    8.80
   6  -2  -3   30.70    3.50
   6  -2  -3   28.40    3.10
   6  -2  -3   24.80    3.90
  -6   2   3   51.59    9.50
  -6   2   3   42.40    8.40
   5  -2  -3  756.32   30.90
   5  -2  -3  782.42   23.70
   5  -2  -3  731.93   26.90
  -5   2   3  737.83   31.30
  -5   2   3  763.02   31.20
  -5   2   3  787.92   26.70
   4  -2  -3  588.94   21.70
   4  -2  -3  613.64   17.50
   4  -2  -3  587.54   24.50
   4  -2  -3  602.14   25.20
   4  -2  -3  580.74   17.70
  -4   2   3  633.14   25.60
  -4   2   3  594.64   25.20
  -4   2   3  587.44   21.40
   3  -2  -3  109.09    4.20
   3  -2  -3  100.39    8.30
   3  -2  -3  109.59    8.10
   3  -2  -3  107.29    6.90
  -3   2   3  106.99    4.20
  -3   2   3  106.69    8.70
  -3   2   3  106.39    6.90
  -3   2   3  112.29    8.40
   2  -2  -3  318.07   10.50
   2  -2  -3  306.17   13.10
   2  -2  -3  293.67   14.70
   2  -2  -3  319.77   13.90
  -2   2   3  323.87   13.40
  -2   2   3  321.67   10.80
  -2   2   3  324.67   14.30
  -2   2   3  312.27   15.10
   1  -2  -3  340.27   13.40
   1  -2  -3  324.27   12.00
   1  -2  -3  339.67   13.90
   1  -2  -3  329.67   14.70
  -1   2   3  350.76   13.80
  -1   2   3  341.57   15.30
  -1   2   3  329.67   12.30
  -1   2   3  314.07   13.80
   0  -2  -3 2626.64   75.29
   0   2   3 2734.03   75.79
  -1  -2  -3  641.84   22.30
  -1  -2  -3  649.74   22.90
  -1  -2  -3  628.44   23.10
   1   2   3  631.54   22.80
   1   2   3  601.04   23.20
   1   2   3  643.84   22.60
   2   2   3 3176.78   91.69
  -3  -2  -3  130.29    9.60
  -3  -2  -3  136.59    8.10
   3   2   3  137.39    9.70
   3   2   3  135.99    8.30
   3   2   3  149.29    9.50
   3   2   3  130.09    9.70
  -4  -2  -3   43.60    5.90
   4   2   3   31.50    4.20
   4   2   3   33.30    5.30
   4   2   3   38.10    5.60
   4   2   3   40.80    4.00
  -5  -2  -3  455.65   21.70
   5   2   3  421.16   16.90
   5   2   3  358.96   17.70
   5   2   3  383.06   20.30
   5   2   3  427.56   20.20
   5   2   3  421.96   18.00
   5   2   3  432.96   21.20
  -6  -2  -3  422.26   23.10
   6   2   3  476.85   19.60
   6   2   3  485.25   20.60
   6   2   3  506.05   24.40
   6   2   3  460.85   21.10
  -7  -2  -3   13.20    5.10
   7   2   3    5.80    3.20
   7   2   3    5.70    2.90
   7   2   3   15.10    5.50
  -8  -2  -3   50.89    8.50
   8   2   3   53.79   10.30
   8   2   3   56.89    7.00
   9   2   3  219.18   19.90
   9   2   3  219.48   17.50
   9   2   3  200.18   14.20
  10   2   3   33.10    9.60
  10   2   3   17.90    8.00
  10   2   3   18.20    7.00
  11   2   3   47.70    9.60
  11   2   3   35.80   11.80
  11   2   3   33.70    9.50
  12   2   3   53.49   12.90
  12   2   3   43.00   13.10
  12   2   3   52.59    8.60
  13   2   3   14.40    7.30
  13   2   3   11.20    8.40
  13   2   3    5.00    4.00
  14   2   3   91.19   14.40
  14   2   3   68.19   10.80
  14   2   3  107.09   21.90
  15   2   3   76.79   14.40
  15   2   3   49.50   15.70
  15   2   3   67.99   15.80
 -14   3   3   53.39   14.40
 -14   3   3   52.79   13.00
 -13   3   3    9.70    6.80
 -13   3   3   20.70    9.50
  12  -3  -3   18.50    4.60
  12  -3  -3   35.30    7.20
 -12   3   3   28.30    8.50
 -12   3   3   29.20    9.90
  11  -3  -3   38.20    7.20
  11  -3  -3   37.30    5.40
 -11   3   3   28.00    8.90
 -11   3   3   27.40    9.60
  10  -3  -3    2.40    2.50
  10  -3  -3   -1.90    2.00
  10  -3  -3    3.60    2.60
  10  -3  -3   -0.80    2.10
 -10   3   3    6.00    5.30
 -10   3   3   -1.00    2.90
   9  -3  -3   35.40    4.90
   9  -3  -3   27.70    5.20
   9  -3  -3   32.40    6.00
  -9   3   3   33.00    4.30
  -9   3   3   34.40    8.70
  -9   3   3   22.00    7.60
   8  -3  -3   22.40    4.60
   8  -3  -3    2.70    2.60
   8  -3  -3    9.50    3.00
  -8   3   3    2.20    3.90
  -8   3   3   14.80    5.70
  -8   3   3   17.30    3.80
   7  -3  -3  131.89    8.00
   7  -3  -3  135.89    8.90
   7  -3  -3  134.49    8.40
  -7   3   3  116.99    7.30
  -7   3   3  149.09   20.10
  -7   3   3  130.29   12.20
   6  -3  -3 1152.48   36.20
   6  -3  -3 1171.18   37.60
   6  -3  -3 1130.59   36.80
  -6   3   3 1163.48   36.00
  -6   3   3 1257.67   45.90
  -6   3   3 1227.48   45.00
   5  -3  -3  635.84   21.90
   5  -3  -3  635.84   27.40
   5  -3  -3  644.34   21.30
   5  -3  -3  643.14   22.20
  -5   3   3  650.53   28.20
  -5   3   3  622.64   27.60
  -5   3   3  656.93   21.50
   4  -3  -3  949.71   34.90
   4  -3  -3  975.90   37.60
   4  -3  -3  957.60   29.50
   4  -3  -3  941.31   29.40
  -4   3   3  937.71   29.50
  -4   3   3  917.01   28.90
  -4   3   3  942.21   35.40
  -4   3   3  891.61   34.80
   3  -3  -3  284.77   15.30
   3  -3  -3  284.17   14.60
   3  -3  -3  303.97   11.90
   3  -3  -3  298.27   11.80
  -3   3   3  292.77   11.90
  -3   3   3  288.87   15.50
  -3   3   3  313.77   15.70
  -3   3   3  296.37   12.00
   2  -3  -3  444.96   19.40
   2  -3  -3  491.65   16.90
   2  -3  -3  470.65   16.70
  -2   3   3  465.95   17.10
  -2   3   3  457.45   19.40
  -2   3   3  470.65   20.20
  -2   3   3  459.15   17.10
   1  -3  -3  411.76   15.60
   1  -3  -3  398.86   15.60
   1  -3  -3  412.36   17.30
  -1   3   3  402.66   17.80
  -1   3   3  384.26   15.60
  -1   3   3  416.56   16.70
  -1   3   3  404.66   15.90
   0  -3  -3  400.26   16.60
   0  -3  -3  391.96   16.10
   0  -3  -3  411.26   16.20
   0   3   3  398.56   17.00
   0   3   3  383.66   16.10
   0   3   3  406.96   16.50
  -1  -3  -3   91.09    6.60
   1   3   3   97.59    7.40
   1   3   3   72.59    6.00
   1   3   3   71.49    6.20
  -2  -3  -3  946.51   32.90
  -2  -3  -3 1024.50   35.00
   2   3   3 1023.60   34.20
   2   3   3 1000.90   33.70
   2   3   3 1025.20   35.00
   2   3   3  988.30   35.00
  -3  -3  -3  149.29    9.40
  -3  -3  -3  182.98   11.60
   3   3   3  189.18   12.00
   3   3   3  158.18   10.60
   3   3   3  177.68   10.30
   3   3   3  180.98   11.70
  -4  -3  -3   58.39    7.10
   4   3   3   64.79    7.40
   4   3   3   73.99    7.40
   4   3   3   58.89    6.10
   4   3   3   66.79    7.40
  -5  -3  -3  101.69    9.90
   5   3   3   99.09    7.50
   5   3   3  108.39    9.60
   5   3   3  100.59    8.40
   5   3   3   99.39    9.90
   5   3   3  112.79   10.30
   5   3   3  108.29    8.80
  -6  -3  -3   90.89    9.90
   6   3   3   86.99    8.00
   6   3   3   86.99    9.50
   6   3   3   70.29    6.90
   6   3   3   90.29    9.80
  -7  -3  -3   46.40    8.90
   7   3   3   25.70    5.70
   7   3   3   28.50    7.60
   7   3   3   26.60    6.00
  -8  -3  -3   17.50    7.00
   8   3   3   21.50    6.10
   8   3   3   29.60    8.10
  -9  -3  -3    9.60    5.10
   9   3   3   19.90    5.60
   9   3   3   19.10    6.70
 -10  -3  -3   68.79   11.00
  10   3   3   67.29   13.40
  10   3   3   77.09    9.60
  11   3   3  244.18   23.80
  11   3   3  285.37   19.40
  11   3   3  271.17   22.30
  12   3   3    1.90    3.50
  12   3   3   -0.70    2.90
  12   3   3   12.60    8.50
  13   3   3    3.20    4.00
  13   3   3    0.40    3.50
  13   3   3    3.30    6.00
  14   3   3   89.79   19.50
  14   3   3   92.09   12.60
  14   3   3   65.99   17.50
  15   3   3    4.50    4.90
  15   3   3    5.20    6.00
  15   3   3    2.70    7.40
 -14   4   3   10.40    8.00
 -14   4   3    5.30    6.50
 -13   4   3    2.10    4.80
 -13   4   3    3.70    5.90
  12  -4  -3   20.00    5.60
 -12   4   3   41.80   10.60
 -12   4   3   15.20    7.40
  11  -4  -3   30.10    6.60
 -11   4   3   26.60    8.20
 -11   4   3   35.70   10.50
  10  -4  -3  182.88   13.00
 -10   4   3  178.28   16.10
 -10   4   3  181.78   18.10
   9  -4  -3    2.60    1.10
   9  -4  -3    2.80    1.00
   9  -4  -3    0.10    1.90
   9  -4  -3    0.10    2.20
  -9   4   3   -2.10    3.30
  -9   4   3    7.00    4.60
   8  -4  -3   23.30    4.70
   8  -4  -3   18.50    1.80
   8  -4  -3   27.60    2.60
   8  -4  -3   27.70    5.60
  -8   4   3   36.30    9.20
  -8   4   3   29.20    7.50
   7  -4  -3   -0.60    1.40
   7  -4  -3    2.00    0.90
   7  -4  -3    3.30    2.50
   7  -4  -3    3.10    1.00
  -7   4   3    5.30    4.40
  -7   4   3    6.00    3.90
   6  -4  -3  815.52   22.80
  -6   4   3  852.11   36.00
  -6   4   3  843.12   34.70
  -6   4   3  780.22   29.00
   5  -4  -3  742.03   26.50
   5  -4  -3  747.13   20.50
  -5   4   3  683.13   20.30
  -5   4   3  744.13   31.60
  -5   4   3  773.82   31.10
  -5   4   3  679.13   26.00
   4  -4  -3  290.27   16.80
   4  -4  -3  355.76   11.20
   4  -4  -3  338.07   15.20
  -4   4   3  346.17   18.40
  -4   4   3  346.57   15.40
  -4   4   3  349.87   11.10
  -4   4   3  323.27   18.20
   3  -4  -3  786.02   23.30
   3  -4  -3  744.13   26.70
   3  -4  -3  757.42   29.10
  -3   4   3  757.12   23.50
  -3   4   3  740.03   26.80
  -3   4   3  771.12   30.10
  -3   4   3  768.52   30.00
   2  -4  -3    1.40    1.90
   2  -4  -3    0.60    1.80
  -2   4   3    0.60    1.20
  -2   4   3    5.20    2.50
  -2   4   3    4.10    2.90
  -2   4   3    2.10    2.00
  -2   4   3    4.50    1.60
   1  -4  -3  514.35   20.90
   1  -4  -3  524.75   20.70
  -1   4   3  511.35   19.20
  -1   4   3  524.15   20.90
  -1   4   3  546.25   22.20
  -1   4   3  523.55   20.70
  -1   4   3  498.55   18.20
   0  -4  -3  506.45   20.90
   0   4   3  510.25   21.10
   0   4   3  511.55   19.80
   0   4   3  511.65   19.20
   0   4   3  510.45   21.20
  -1  -4  -3  984.60   34.00
  -1  -4  -3 1047.60   35.70
   1   4   3  993.10   35.60
   1   4   3  979.10   34.30
   1   4   3 1036.70   34.10
   1   4   3  985.00   34.30
  -2  -4  -3    7.00    3.20
  -2  -4  -3    9.40    3.00
   2   4   3   12.10    3.70
   2   4   3   11.70    3.90
   2   4   3   13.40    4.40
   2   4   3    2.80    2.80
  -3  -4  -3  522.25   23.10
  -3  -4  -3  512.95   21.70
  -3  -4  -3  491.85   20.60
   3   4   3  491.05   21.80
   3   4   3  472.65   22.60
   3   4   3  486.55   21.00
   3   4   3  496.45   22.60
  -4  -4  -3 3112.79   95.49
  -4  -4  -3 3186.78   97.29
   4   4   3 3169.08   97.89
   4   4   3 3232.68   97.59
   4   4   3 3256.47   96.69
   4   4   3 3197.88   94.29
  -5  -4  -3  263.57   16.00
  -5  -4  -3  288.97   17.30
   5   4   3  245.88   14.70
  -6  -4  -3    2.40    2.40
  -6  -4  -3    5.70    3.50
   6   4   3    3.20    2.60
   6   4   3    7.20    3.30
  -7  -4  -3   21.80    6.80
  -7  -4  -3   15.90    5.70
   7   4   3   16.70    5.40
   7   4   3   22.00    7.20
   7   4   3   22.30    5.90
  -8  -4  -3   54.19   11.00
   8   4   3   45.00    7.20
  -9  -4  -3   -1.60    2.70
   9   4   3   -1.70    2.10
   9   4   3    2.70    3.90
 -10  -4  -3   91.19   12.30
  10   4   3   60.69   12.40
  10   4   3   65.29    9.40
 -11  -4  -3   17.30    7.40
  11   4   3   39.40    9.40
  11   4   3   10.80    6.50
 -12  -4  -3   19.10    8.50
  12   4   3   36.10   12.00
  12   4   3    8.60    5.90
  12   4   3   20.70    7.20
  13   4   3   48.80   10.90
  13   4   3   48.60   14.30
  13   4   3   62.99   14.30
  14   4   3   60.19   14.90
  14   4   3   78.29   19.00
  14   4   3   98.89   13.40
  15   4   3   -0.60    3.80
  15   4   3   -2.10    5.20
  15   4   3   -0.50    4.10
 -14   5   3   18.40    8.40
 -13   5   3   85.89   12.80
 -13   5   3   68.49   16.10
 -12   5   3   83.99   12.20
 -12   5   3   67.29   14.80
  11  -5  -3   62.79    8.30
 -11   5   3   69.89   10.70
 -11   5   3   60.39   13.30
  10  -5  -3   44.90    8.30
 -10   5   3   54.19   12.70
 -10   5   3   54.79   11.10
   9  -5  -3    2.90    2.80
   9  -5  -3    2.30    2.90
  -9   5   3    3.70    3.90
  -9   5   3   -0.90    4.10
   8  -5  -3   40.40    7.30
  -8   5   3   23.70    7.10
  -8   5   3   35.80    9.40
   7  -5  -3    1.70    2.20
   7  -5  -3    5.60    3.40
  -7   5   3    5.50    4.40
  -7   5   3    9.20    4.60
   6  -5  -3   37.10    5.60
  -6   5   3   34.40    8.40
  -6   5   3   29.20    6.20
  -6   5   3   43.10    8.50
   5  -5  -3  496.05   21.70
  -5   5   3  491.65   25.20
  -5   5   3  493.05   21.70
  -5   5   3  478.85   24.00
   4  -5  -3   62.99    6.70
   4  -5  -3   52.99    6.60
  -4   5   3   55.39    6.40
  -4   5   3   43.40    6.70
  -4   5   3   55.59    7.50
   3  -5  -3  524.15   22.30
   3  -5  -3  512.85   22.70
  -3   5   3  546.65   16.40
  -3   5   3  519.35   22.60
  -3   5   3  570.04   24.70
  -3   5   3  511.35   16.60
  -3   5   3  544.25   24.20
   2  -5  -3 1080.99   38.60
   2  -5  -3 1107.79   39.00
  -2   5   3 1140.39   34.80
  -2   5   3 1137.89   34.10
  -2   5   3 1191.68   40.40
  -2   5   3 1122.79   39.80
  -2   5   3 1138.49   40.50
   1  -5  -3  331.57   16.70
   1  -5  -3  315.37   16.00
  -1   5   3  327.87   13.80
  -1   5   3  331.87   16.90
  -1   5   3  327.77   14.10
  -1   5   3  339.97   17.10
   0  -5  -3  279.17   15.50
   0  -5  -3  298.97   14.80
   0   5   3  284.67   13.50
   0   5   3  296.47   15.40
   0   5   3  268.37   15.40
   0   5   3  290.37   14.00
  -1  -5  -3   34.60    4.90
  -1  -5  -3   45.50    6.30
   1   5   3   36.90    5.10
   1   5   3   49.40    5.90
   1   5   3   43.30    5.20
  -2  -5  -3  234.98   13.50
  -2  -5  -3  271.97   14.40
  -2  -5  -3  281.97   16.30
   2   5   3  311.07   17.20
   2   5   3  271.37   14.80
   2   5   3  254.77   14.80
  -3  -5  -3   -1.00    1.80
  -3  -5  -3    1.30    1.90
  -3  -5  -3    0.30    1.70
   3   5   3    0.80    1.60
   3   5   3    1.80    2.20
   3   5   3    0.40    1.90
  -4  -5  -3 1931.41   65.09
  -4  -5  -3 1921.91   63.49
   4   5   3 1937.61   62.39
  -5  -5  -3  476.95   24.20
   5   5   3  508.15   23.50
  -6  -5  -3   20.80    6.60
  -6  -5  -3   22.40    6.50
   6   5   3   31.60    7.00
  -7  -5  -3   25.60    8.00
  -7  -5  -3   23.30    6.90
   7   5   3   21.20    6.20
  -8  -5  -3    1.00    2.80
  -8  -5  -3   11.40    5.50
   8   5   3    7.20    4.60
  -9  -5  -3  114.09   12.80
  -9  -5  -3   83.69   12.10
   9   5   3  102.09   13.40
   9   5   3  116.39   12.00
 -10  -5  -3   -0.60    4.30
  10   5   3    6.00    4.10
  10   5   3    2.40    3.90
 -11  -5  -3   46.10   11.70
  11   5   3   51.79   12.50
  11   5   3   53.49   11.00
 -12  -5  -3   33.10   10.30
  12   5   3    9.40    5.70
  12   5   3   16.50    8.30
 -13  -5  -3   40.50   12.30
  13   5   3   56.59   16.10
  13   5   3   89.09   19.20
  13   5   3   51.49   11.70
  14   5   3  132.39   20.70
  14   5   3   93.49   18.80
  14   5   3  100.69   14.30
  15   5   3   -1.40    4.00
  15   5   3   -1.60    3.70
  15   5   3   -2.70    5.60
 -13   6   3   17.30    9.60
 -13   6   3    2.80    4.90
 -12   6   3   83.59   12.20
 -12   6   3  110.79   16.80
  11  -6  -3   85.69    9.90
 -11   6   3   60.29   14.40
 -11   6   3   77.59   11.30
  10  -6  -3    6.30    4.20
 -10   6   3   10.80    5.60
 -10   6   3    4.60    5.00
   9  -6  -3    2.30    3.30
  -9   6   3    2.00    4.50
  -9   6   3   -0.20    2.60
   8  -6  -3  278.67   17.40
   8  -6  -3  271.97   15.80
  -8   6   3  288.57   19.60
  -8   6   3  259.97   20.90
   7  -6  -3   89.49    9.50
  -7   6   3   68.29    8.60
  -7   6   3  114.19   12.90
  -7   6   3   83.89   10.40
   6  -6  -3  144.79   11.80
  -6   6   3  160.58   13.30
  -6   6   3  158.68   14.40
  -6   6   3  159.88   12.50
   5  -6  -3   27.00    6.50
  -5   6   3   27.40    6.70
  -5   6   3   24.00    6.40
  -5   6   3   17.90    6.20
   4  -6  -3    5.00    3.40
  -4   6   3    1.60    3.20
  -4   6   3    3.40    3.10
  -4   6   3    8.70    3.90
   3  -6  -3  503.85   23.40
   3  -6  -3  512.15   24.90
  -3   6   3  481.45   26.00
  -3   6   3  510.75   24.00
  -3   6   3  487.85   15.10
  -3   6   3  527.65   24.80
  -3   6   3  498.85   15.40
   2  -6  -3 1114.09   40.30
   2  -6  -3 1252.97   42.90
  -2   6   3 1170.38   43.10
  -2   6   3 1113.69   41.80
  -2   6   3 1106.39   41.40
  -2   6   3 1183.68   35.80
  -2   6   3 1130.79   35.30
   1  -6  -3  189.38   12.10
   1  -6  -3  226.18   14.50
  -1   6   3  214.38   10.90
  -1   6   3  193.98   10.30
  -1   6   3  212.18   14.30
  -1   6   3  184.38   12.70
   0  -6  -3  470.45   21.70
   0  -6  -3  528.65   24.40
   0   6   3  495.95   24.10
   0   6   3  522.95   21.00
   0   6   3  502.95   21.00
   0   6   3  536.35   23.30
  -1  -6  -3  526.95   22.60
  -1  -6  -3  569.24   25.50
  -1  -6  -3  527.05   21.80
   1   6   3  536.95   22.80
   1   6   3  496.65   22.30
   1   6   3  504.25   25.00
   1   6   3  501.75   23.00
  -2  -6  -3   53.49    9.90
  -2  -6  -3   49.99    6.20
   2   6   3   45.50    6.20
   2   6   3   48.70    6.50
  -3  -6  -3  776.52   33.70
  -3  -6  -3  756.92   31.30
   3   6   3  788.02   31.50
  -4  -6  -3   46.70    6.90
  -4  -6  -3   52.79    9.90
   4   6   3   40.50    6.30
  -5  -6  -3   96.19   10.20
  -5  -6  -3  108.79   11.50
   5   6   3   81.79    9.00
  -6  -6  -3    8.30    4.40
  -6  -6  -3   10.10    4.90
   6   6   3   10.60    4.60
  -7  -6  -3  129.69   13.20
  -7  -6  -3  138.89   14.10
   7   6   3  135.39   12.70
  -8  -6  -3   27.20    8.60
  -8  -6  -3   28.40    8.50
   8   6   3   49.80   10.10
  -9  -6  -3  122.79   14.50
  -9  -6  -3  128.49   14.20
   9   6   3  140.69   13.80
 -10  -6  -3   15.70    6.60
 -10  -6  -3   10.70    6.30
  10   6   3   26.10    7.80
  10   6   3   13.50    6.30
 -11  -6  -3   14.90    7.10
  11   6   3    9.00    6.20
  11   6   3   10.50    6.00
 -12  -6  -3   29.20   10.00
  12   6   3   45.70   11.10
  12   6   3   12.80    6.80
 -13  -6  -3   38.50   13.80
  13   6   3   52.09   14.60
  13   6   3   55.99   12.90
 -14  -6  -3   84.79   17.60
  14   6   3  113.99   18.00
  14   6   3  129.09   20.70
  14   6   3  104.29   14.90
  15   6   3    1.70    5.80
  15   6   3   -2.20    4.30
  15   6   3   -3.30    5.80
 -13   7   3   17.90   17.30
 -12   7   3    0.50    4.30
 -12   7   3   -2.50    4.60
  11  -7  -3   23.10    7.00
 -11   7   3   20.20    9.30
 -11   7   3   14.60    6.20
  10  -7  -3    2.40    3.90
 -10   7   3    0.90    4.00
 -10   7   3    6.10    4.00
   9  -7  -3   58.39    8.90
  -9   7   3   74.49   10.40
  -9   7   3   57.69   13.50
   8  -7  -3  139.69   13.00
  -8   7   3  157.58   16.40
   7  -7  -3   67.69    9.20
  -7   7   3   55.49    8.80
  -7   7   3   52.99   11.30
   6  -7  -3  275.27   18.00
  -6   7   3  208.48   18.00
  -6   7   3  286.07   18.50
   5  -7  -3   10.20    5.10
  -5   7   3   12.90    5.20
  -5   7   3    5.20    4.10
   4  -7  -3   38.50    8.10
  -4   7   3   36.50    9.20
  -4   7   3   41.50    8.50
  -4   7   3   39.10    8.60
   3  -7  -3 1113.29   43.50
  -3   7   3 1065.59   43.80
  -3   7   3 1126.09   31.70
  -3   7   3 1120.69   31.60
  -3   7   3 1130.59   44.00
  -3   7   3 1179.48   43.00
   2  -7  -3   15.70    5.50
  -2   7   3    7.80    3.60
  -2   7   3   11.00    5.50
  -2   7   3   18.90    3.70
  -2   7   3   19.60    5.80
  -2   7   3    6.20    2.30
   1  -7  -3  493.15   24.50
  -1   7   3  473.55   22.50
  -1   7   3  401.56   18.20
  -1   7   3  435.36   18.50
   0  -7  -3  112.29   11.00
   0   7   3  110.09    8.70
   0   7   3  119.79   10.30
   0   7   3   82.79    7.70
  -1  -7  -3  167.88   11.20
  -1  -7  -3  156.98   13.40
   1   7   3  137.79   10.80
   1   7   3  154.78   11.80
  -2  -7  -3  285.37   19.10
  -2  -7  -3  297.97   16.80
   2   7   3  295.77   17.50
   2   7   3  311.47   17.70
  -3  -7  -3   64.09    8.10
  -3  -7  -3   59.49    8.90
   3   7   3   61.69    7.80
  -4  -7  -3   85.39   10.60
  -4  -7  -3   76.79    9.20
   4   7   3   95.69    9.80
  -5  -7  -3   46.50    9.70
  -5  -7  -3   53.79    8.90
   5   7   3   49.90    9.30
  -6  -7  -3    4.30    3.90
  -6  -7  -3    2.90    3.80
   6   7   3    3.80    3.50
  -7  -7  -3  164.48   16.20
  -7  -7  -3  237.28   18.40
   7   7   3  217.48   16.60
  -8  -7  -3  356.66   23.90
  -8  -7  -3  328.67   23.60
   8   7   3  311.37   21.40
  -9  -7  -3   32.60    8.60
  -9  -7  -3   29.70    9.20
   9   7   3   15.00    5.90
 -10  -7  -3   10.40    7.50
 -10  -7  -3    6.00    5.00
  10   7   3   14.70    6.70
 -11  -7  -3   13.90    7.10
 -11  -7  -3   29.70    9.50
  11   7   3   26.00    9.30
  11   7   3   35.60   10.10
 -12  -7  -3   44.20   12.90
  12   7   3   22.50    9.60
 -13  -7  -3    0.90    4.80
  13   7   3   -3.60    3.10
  13   7   3    6.50    7.50
 -14  -7  -3   56.09   14.40
  14   7   3   67.99   17.90
  14   7   3   51.79   13.10
 -15  -7  -3   14.70    9.10
  15   7   3   15.80    8.70
  15   7   3   11.70    9.60
  15   7   3   20.80   11.00
 -12   8   3   74.39   17.40
 -11   8   3   -1.40    5.10
 -11   8   3    5.10    5.30
  10  -8  -3   -3.70    4.70
 -10   8   3    7.80    5.30
 -10   8   3   -2.40    3.60
   9  -8  -3  100.09   12.10
  -9   8   3   99.69   14.70
  -9   8   3  113.39   12.80
   8  -8  -3    8.70    5.20
  -8   8   3   25.70    9.10
  -8   8   3   16.10    6.40
   7  -8  -3   89.89   11.10
  -7   8   3   60.59    9.10
  -7   8   3   64.29   13.40
   6  -8  -3    4.10    3.70
  -6   8   3    7.30    5.20
  -6   8   3   11.20    5.40
   5  -8  -3   15.80    6.10
  -5   8   3    6.30    5.00
  -5   8   3   15.50    5.90
   4  -8  -3  329.07   21.00
  -4   8   3  328.77   21.20
  -4   8   3  306.47   19.50
   3  -8  -3   35.60    8.60
  -3   8   3   22.60    6.40
  -3   8   3   18.60    1.90
  -3   8   3   17.80    2.20
  -3   8   3   19.00    6.20
   2  -8  -3  298.87   19.90
  -2   8   3  324.07   19.50
  -2   8   3  335.27   19.40
  -2   8   3  282.27   13.30
  -2   8   3  287.57   13.40
   1  -8  -3    6.70    4.40
  -1   8   3    7.70    3.10
  -1   8   3   10.80    3.90
  -1   8   3    9.80    4.60
   0  -8  -3   68.09   12.20
   0   8   3   38.10    5.60
   0   8   3   32.90    5.50
   0   8   3   50.99    9.50
  -1  -8  -3  174.38   12.00
  -1  -8  -3  166.18   14.90
   1   8   3  149.29   12.50
   1   8   3  161.08   12.20
  -2  -8  -3  657.23   28.50
  -2  -8  -3  632.04   32.00
   2   8   3  619.94   29.10
  -3  -8  -3   77.49    9.20
  -3  -8  -3   73.29   10.50
   3   8   3   66.69    8.80
  -4  -8  -3  310.97   19.90
  -4  -8  -3  344.27   31.60
   4   8   3  318.17   20.10
  -5  -8  -3   78.49   11.10
  -5  -8  -3   66.39   11.00
   5   8   3   69.59    9.50
  -6  -8  -3  111.19   13.40
  -6  -8  -3   95.69   11.80
   6   8   3   95.89   11.30
  -7  -8  -3   78.19   11.80
  -7  -8  -3   88.09   11.70
   7   8   3   69.99   13.30
  -8  -8  -3  273.07   22.40
  -8  -8  -3  288.37   22.20
   8   8   3  283.37   20.90
  -9  -8  -3    0.70    4.30
  -9  -8  -3    5.90    4.80
   9   8   3   -2.10    3.50
 -10  -8  -3   28.60    9.40
 -10  -8  -3   23.20    8.90
  10   8   3   22.80    7.90
 -11  -8  -3   57.09   19.20
 -11  -8  -3   43.40   13.00
  11   8   3   80.79   15.90
 -12  -8  -3   18.30    8.40
  12   8   3   12.70    7.30
  12   8   3   23.60    9.00
 -13  -8  -3   23.10    9.80
  13   8   3   16.20   10.30
  13   8   3   13.20    8.30
 -14  -8  -3   -4.80    4.10
  14   8   3    6.10    6.60
  14   8   3   -6.00    3.70
 -11   9   3    2.90    5.80
 -11   9   3   11.80    8.00
  10  -9  -3    2.00    4.40
 -10   9   3    4.30    4.70
 -10   9   3    4.50    6.00
   9  -9  -3   41.80   10.40
  -9   9   3   21.30    8.80
  -9   9   3   39.80    9.60
   8  -9  -3   16.50    6.60
  -8   9   3   29.00    7.80
  -8   9   3   23.00    9.10
   7  -9  -3    5.70    4.50
  -7   9   3    0.40    3.80
  -7   9   3    2.70    3.70
  -6   9   3    6.10    4.30
  -6   9   3    5.10    4.90
   5  -9  -3   62.49   10.20
  -5   9   3   49.80   10.70
  -5   9   3   53.39   11.90
   4  -9  -3  255.17   19.80
  -4   9   3  256.97   19.60
  -4   9   3  274.27   18.70
   3  -9  -3  314.27   22.00
  -3   9   3  317.57   20.10
  -3   9   3  315.17   10.70
  -3   9   3  342.07   12.40
  -3   9   3  369.06   22.70
   2  -9  -3    1.10    3.50
  -2   9   3    5.20    4.00
  -2   9   3    4.40    2.60
  -2   9   3    7.30    4.10
   1  -9  -3   28.40    8.90
  -1   9   3   33.50    5.10
  -1   9   3   31.30    7.90
  -1   9   3   28.30    6.10
   0  -9  -3    8.70    5.50
   0   9   3   15.40    5.00
   0   9   3   17.90    6.40
   0   9   3   11.40    4.20
  -1  -9  -3  432.76   29.80
  -1  -9  -3  413.46   21.10
   1   9   3  432.36   23.40
  -2  -9  -3  108.39   10.60
  -2  -9  -3  111.09   13.00
   2   9   3   99.29   11.20
  -3  -9  -3  286.07   21.30
  -3  -9  -3  220.48   16.70
   3   9   3  271.07   18.40
  -4  -9  -3   60.89   12.60
   4   9   3   53.39    8.70
  -5  -9  -3   76.29   11.70
  -5  -9  -3   88.69   11.30
   5   9   3   62.49    9.50
  -6  -9  -3   61.59   12.60
  -6  -9  -3   66.59   10.50
   6   9   3   61.39   11.60
  -7  -9  -3  242.98   21.70
  -7  -9  -3  249.78   20.70
   7   9   3  279.67   20.90
  -8  -9  -3  127.59   15.70
  -8  -9  -3   82.39   12.60
   8   9   3  120.59   14.10
  -9  -9  -3   47.60   12.40
  -9  -9  -3   43.60   12.20
   9   9   3   56.29   12.80
 -10  -9  -3   79.99   16.40
 -10  -9  -3   63.19   14.40
  10   9   3   58.99   13.30
 -11  -9  -3   -1.40    5.20
 -11  -9  -3    0.50    4.50
  11   9   3   -3.00    2.80
 -12  -9  -3   55.69   14.40
 -12  -9  -3   83.69   17.20
  12   9   3   84.69   19.70
  12   9   3   90.89   14.50
 -13  -9  -3   -0.90    5.20
  13   9   3   14.80    8.40
  13   9   3    8.30    8.60
 -14  -9  -3    3.30    5.90
  14   9   3    9.30    7.00
  14   9   3    2.10    5.80
 -10  10   3   53.99   14.20
 -10  10   3   88.99   19.70
   9 -10  -3   15.80    6.80
  -9  10   3   20.00    7.00
  -9  10   3   22.30   10.70
   8 -10  -3   40.70   10.60
  -8  10   3   27.10   10.90
  -8  10   3   57.89   11.30
   7 -10  -3   13.90    6.90
  -7  10   3   13.30    5.90
  -7  10   3    5.70    6.30
   6 -10  -3   71.49   11.70
  -6  10   3   79.39   12.60
  -6  10   3   74.69   10.60
   5 -10  -3  265.27   21.60
  -5  10   3  275.77   22.50
  -5  10   3  295.67   21.00
   4 -10  -3  185.48   17.70
  -4  10   3  182.58   17.40
   3 -10  -3  293.97   22.40
  -3  10   3  277.77   22.40
  -3  10   3  315.17   22.00
   2 -10  -3    5.10    4.30
  -2  10   3   10.90    3.50
  -2  10   3    0.80    3.40
  -2  10   3    6.00    3.20
  -2  10   3    8.50    5.40
   1 -10  -3   49.99   12.00
  -1  10   3   43.00    6.00
  -1  10   3   35.90    7.10
   0 -10  -3  246.28   20.20
   0  10   3  206.98   14.40
   0  10   3  231.28   17.50
  -1 -10  -3  200.78   18.70
  -1 -10  -3  212.38   14.70
   1  10   3  215.28   16.60
  -2 -10  -3    3.30    4.50
  -2 -10  -3    0.40    2.70
   2  10   3    4.80    4.10
  -3 -10  -3   20.10    8.00
   3  10   3   24.10    7.30
  -4 -10  -3   92.99   13.30
  -4 -10  -3   90.49   11.30
   4  10   3   88.29   11.50
  -5 -10  -3   84.19   12.80
  -5 -10  -3   97.89   12.30
   5  10   3   88.39   11.80
  -6 -10  -3   95.89   13.60
  -6 -10  -3   85.39   12.20
   6  10   3   76.19   11.30
  -7 -10  -3   36.40   10.60
  -7 -10  -3   38.20   11.60
   7  10   3   26.90    9.20
  -8 -10  -3    9.00    6.90
  -8 -10  -3   11.00    6.80
   8  10   3    3.20    4.70
  -9 -10  -3   69.49   15.50
  -9 -10  -3   32.60   10.90
   9  10   3   66.19   14.80
 -10 -10  -3   18.60    8.50
 -10 -10  -3    9.70    7.50
  10  10   3   10.90    7.20
 -11 -10  -3   36.60   11.70
 -11 -10  -3   20.40    8.70
  11  10   3   27.90   10.00
 -12 -10  -3    6.50    7.70
 -12 -10  -3    9.50    6.80
  12  10   3    2.90    5.50
  12  10   3   12.50    7.70
 -13 -10  -3    4.20    6.40
  13  10   3   -3.50    4.60
  13  10   3   -1.90    4.20
 -14 -10  -3    1.30    6.10
  14  10   3    5.00    6.70
  14  10   3   -2.60    3.90
   9 -11  -3   47.60   12.30
  -9  11   3   58.39   14.10
   8 -11  -3   -3.40    3.60
  -8  11   3    2.20    4.40
  -8  11   3    2.40    5.60
   7 -11  -3    4.20    5.10
  -7  11   3    7.80    5.50
  -7  11   3   -2.30    4.10
   6 -11  -3   80.19   13.30
  -6  11   3   99.29   12.50
  -6  11   3  101.29   14.80
   5 -11  -3   30.20    9.20
  -5  11   3   57.59   11.70
   4 -11  -3   88.19   13.30
  -4  11   3  130.09   13.80
  -4  11   3  131.09   15.50
   3 -11  -3   78.69   15.70
  -3  11   3   66.89   12.90
  -3  11   3   64.09   12.10
   2 -11  -3   92.49   13.50
  -2  11   3   90.29   11.50
  -2  11   3   81.79   11.70
  -2  11   3   86.59    7.90
  -2  11   3   87.69    7.40
   1 -11  -3   -1.20    3.20
  -1  11   3   -1.90    1.50
  -1  11   3    1.60    2.90
  -1  11   3    3.00    3.90
   0 -11  -3  103.89   14.10
   0  11   3   77.29   10.60
   0  11   3   68.69    8.70
  -1 -11  -3  114.59   15.00
  -1 -11  -3   78.99    9.50
   1  11   3  114.69   11.50
   1  11   3   88.09   11.50
  -2 -11  -3  136.09   16.20
   2  11   3  113.59   12.90
  -3 -11  -3   45.00    9.90
  -3 -11  -3   46.60   11.50
   3  11   3   44.20   10.40
  -4 -11  -3   22.10    8.10
  -4 -11  -3   21.90    7.80
   4  11   3   25.90    8.90
  -5 -11  -3  104.49   15.30
  -5 -11  -3   91.09   12.60
   5  11   3  135.79   14.90
  -6 -11  -3   10.30    7.10
  -6 -11  -3   48.00   12.20
   6  11   3   39.50   10.00
  -7 -11  -3   -0.20    4.60
  -7 -11  -3   -2.00    3.10
   7  11   3    0.30    3.70
  -8 -11  -3    0.00    3.40
  -8 -11  -3   -1.40    4.10
   8  11   3    4.90    5.50
  -9 -11  -3   37.70   12.50
  -9 -11  -3   44.90   12.00
   9  11   3   44.60   11.80
 -10 -11  -3   -0.20    4.40
 -10 -11  -3   10.20    7.40
  10  11   3   -2.50    3.80
 -11 -11  -3   59.69   15.70
 -11 -11  -3   44.50   13.90
  11  11   3   88.39   19.30
 -12 -11  -3   -1.50    4.90
 -12 -11  -3   14.20    8.80
  12  11   3   -1.90    4.50
  12  11   3   -0.80    4.50
 -13 -11  -3   -3.00    4.40
  13  11   3    6.10    7.70
   8 -12  -3    4.60    5.90
  -8  12   3    1.20    5.20
   7 -12  -3   14.80    7.90
  -7  12   3   23.50   10.00
  -7  12   3   15.10    6.80
   6 -12  -3   83.49   13.90
  -6  12   3   62.59   14.60
  -6  12   3   93.49   12.20
   5 -12  -3   71.89   15.80
  -5  12   3   64.59   14.30
  -5  12   3   92.09   12.20
   4 -12  -3   60.59   14.40
  -4  12   3   40.60    9.90
  -4  12   3   46.30   12.10
   3 -12  -3   18.60    8.40
  -3  12   3    1.20    3.80
   2 -12  -3   17.20    8.00
  -2  12   3   16.70    7.20
  -2  12   3   37.00   10.50
  -2  12   3   23.70    5.80
  -2  12   3   26.00    5.30
   1 -12  -3  218.08   21.50
  -1  12   3  254.47   15.70
  -1  12   3  245.68   19.60
   0 -12  -3    0.20    4.70
   0  12   3    2.50    3.10
   0  12   3    6.50    4.50
  -1 -12  -3   37.10   11.60
   1  12   3   68.09   13.10
   1  12   3   55.69   10.80
  -2 -12  -3    5.60    5.70
  -2 -12  -3    2.80    3.60
   2  12   3    3.30    4.00
  -3 -12  -3   45.50   13.00
  -3 -12  -3   62.89   10.20
   3  12   3   68.09   12.90
  -4 -12  -3   20.70    7.00
  -4 -12  -3   40.90   12.40
   4  12   3   18.50    7.70
  -5 -12  -3   51.99   11.80
  -5 -12  -3   35.30   11.50
   5  12   3   41.10   10.60
  -6 -12  -3   -4.50    3.00
  -6 -12  -3   -0.40    3.60
   6  12   3    1.70    4.60
  -7 -12  -3   14.50    7.20
  -7 -12  -3   22.80   11.70
  -8 -12  -3   33.50   11.40
  -8 -12  -3   17.40    8.80
   8  12   3   37.60   11.40
  -9 -12  -3    2.10    4.90
  -9 -12  -3    4.50    6.10
   9  12   3    1.90    5.90
 -10 -12  -3   53.39   14.50
 -10 -12  -3   64.49   16.80
  10  12   3   48.70   13.80
 -11 -12  -3   -1.80    3.50
 -11 -12  -3    3.50    5.30
  11  12   3    4.90    6.10
 -12 -12  -3    4.80    6.60
 -12 -12  -3    3.60    7.10
  12  12   3   -2.10    5.20
  12  12   3    2.30    5.90
   7 -13  -3   46.20   13.20
  -7  13   3   77.89   17.90
   6 -13  -3    1.90    6.00
  -6  13   3    7.20    5.30
  -6  13   3    0.80    4.40
  -5  13   3  125.39   14.70
  -5  13   3  126.69   17.50
   4 -13  -3   10.80    7.40
  -4  13   3   14.10    8.40
  -4  13   3    9.20    6.30
   3 -13  -3   -4.00    3.50
  -3  13   3    8.20    5.80
  -3  13   3   -0.80    4.20
   2 -13  -3   78.29   17.70
  -2  13   3   74.09    7.00
  -2  13   3   47.40   12.30
  -2  13   3   90.49   12.60
   1 -13  -3   53.39   13.90
  -1  13   3   65.69    8.30
  -1  13   3   82.39   12.10
   0 -13  -3  103.59   19.80
   0  13   3   76.49   11.70
   0  13   3  101.09   11.00
  -1 -13  -3   85.19   18.00
   1  13   3   55.09   12.00
   1  13   3   72.59   10.30
  -2 -13  -3   57.89   11.40
  -2 -13  -3   30.00   11.10
   2  13   3   43.10   10.80
   2  13   3   36.90   10.30
  -3 -13  -3    7.30    4.90
  -3 -13  -3    0.80    4.90
   3  13   3    0.50    3.40
  -4 -13  -3  208.18   18.80
   4  13   3  186.88   18.90
  -5 -13  -3   -1.40    2.10
  -5 -13  -3   -0.70    4.00
   5  13   3   13.10    7.70
  -6 -13  -3   -2.00    3.00
  -6 -13  -3    0.80    5.10
   6  13   3    7.10    6.40
  -7 -13  -3   -0.80    5.40
  -7 -13  -3   -2.80    2.50
   7  13   3    0.20    4.40
  -8 -13  -3   10.40    6.60
  -8 -13  -3   33.60   13.40
   8  13   3   44.20   12.90
  -9 -13  -3    2.80    5.40
  -9 -13  -3   10.30    9.30
   9  13   3   14.40    8.50
 -10 -13  -3   34.90   12.90
 -10 -13  -3    6.80    7.50
  10  13   3   11.40    7.70
 -11 -13  -3   -2.80    5.00
 -11 -13  -3    4.90    6.70
  11  13   3    4.70    7.30
  11  13   3   -2.10    4.30
   6 -14  -3   40.00   12.70
  -6  14   3   43.20   13.70
   5 -14  -3    6.30    6.90
  -5  14   3   18.80    9.20
  -5  14   3   18.30    8.00
   4 -14  -3    2.00    5.90
  -4  14   3    5.80    6.10
  -4  14   3    1.10    4.80
   3 -14  -3    4.70    5.60
  -3  14   3    7.90    6.60
  -3  14   3    6.30    6.20
   2 -14  -3   78.59   18.30
  -2  14   3   72.19   14.70
  -2  14   3   84.79   17.00
   1 -14  -3    5.30    6.60
  -1  14   3   10.80    7.50
  -1  14   3   12.20    5.00
   0 -14  -3  109.19   17.30
   0  14   3   51.39   13.40
   0  14   3   79.09   12.60
  -1 -14  -3    4.10    6.40
   1  14   3    0.60    4.20
   1  14   3   -1.70    3.20
  -2 -14  -3    1.10    5.20
   2  14   3   12.00    6.40
   2  14   3   10.40    6.90
  -3 -14  -3   10.40    6.00
  -3 -14  -3   10.30    8.80
   3  14   3    0.50    6.70
   3  14   3   21.20    7.50
  -4 -14  -3   30.40    8.60
  -4 -14  -3   18.30    9.70
   4  14   3   32.60   10.40
  -5 -14  -3   -4.40    3.10
   5  14   3   10.60    7.50
  -6 -14  -3    0.20    4.20
  -6 -14  -3   -1.30    4.80
   6  14   3    4.40    5.90
  -7 -14  -3   22.30    9.40
  -7 -14  -3   27.00   11.20
   7  14   3   17.70    8.80
  -8 -14  -3    5.40    6.70
  -8 -14  -3   12.00    7.30
   8  14   3    8.50    7.30
  -9 -14  -3  101.69   21.90
  -9 -14  -3  108.59   17.10
   9  14   3  100.39   19.20
 -10 -14  -3    7.70    9.90
  10  14   3   18.50   15.30
   4 -15  -3   11.40    8.80
  -4  15   3   16.50    9.30
  -4  15   3    0.80    5.30
   3 -15  -3   38.90   14.30
  -3  15   3   29.60   10.10
  -3  15   3   40.70   14.20
   2 -15  -3   34.50   13.30
  -2  15   3   25.20    9.00
  -2  15   3   27.50   10.90
   1 -15  -3    5.80    7.50
  -1  15   3   16.70    9.00
  -1  15   3   28.40   10.90
   0 -15  -3   11.40    8.80
   0  15   3    5.00    4.20
  -1 -15  -3    2.40    6.40
   1  15   3    6.00    5.50
   1  15   3    2.50    4.50
  -2 -15  -3   75.29   18.10
   2  15   3   64.19   13.80
   2  15   3   84.29   15.80
  -3 -15  -3  116.89   19.10
   3  15   3  119.29   16.40
   3  15   3  111.89   15.20
  -4 -15  -3   24.90   11.70
   4  15   3    9.70    8.30
   4  15   3    8.60    7.40
  -5 -15  -3   13.10    9.00
  -5 -15  -3   15.00    7.80
   5  15   3   20.70    9.50
   5  15   3   17.50    8.80
  -6 -15  -3   14.60    8.20
  -6 -15  -3    1.60    6.70
   6  15   3   -0.40    4.70
  -7 -15  -3    2.30    6.00
  -7 -15  -3   -3.40    3.30
   7  15   3    8.20    7.60
  -8 -15  -3   27.50   11.20
   8  15   3   18.20   10.20
   1 -16  -3   15.20   10.40
  -1  16   3    3.00    6.00
  -1  16   3    8.80    7.40
   0 -16  -3    1.90    6.00
   0  16   3    7.50    6.70
  -1 -16  -3    1.70    6.30
   1  16   3    4.30    5.20
   1  16   3    1.70    4.90
  -2 -16  -3   83.09   19.50
   2  16   3  108.39   14.80
   2  16   3   81.19   16.60
  -3 -16  -3   -2.20    5.30
   3  16   3   -0.80    4.70
   3  16   3   -2.10    4.50
  -4 -16  -3   57.09   17.10
   4  16   3   74.49   17.50
   4  16   3   52.99   13.50
   5  16   3   39.90   12.60
   5  16   3   49.40   13.90
  -6 -16  -3   -3.20    4.60
   6  16   3   27.80   11.30
   6  16   3    0.70    4.80
   4  15  -4   20.40    8.90
  -4 -15   4    7.90    7.30
  -4 -15   4   22.10   12.30
   3  15  -4   -2.20    3.80
  -3 -15   4   -2.80    3.60
  -3 -15   4    5.40    8.80
  -2 -15   4    6.40    7.90
  -2 -15   4    5.60    5.50
  -1 -15   4   66.29   15.60
  -1 -15   4   74.29   20.70
   7  14  -4    5.40    7.00
  -7 -14   4   -0.80    3.90
  -7 -14   4    8.80    9.10
   6  14  -4   25.80    9.60
  -6 -14   4   52.09   16.80
  -6 -14   4   43.50   16.00
   5  14  -4   16.30    7.60
  -5 -14   4   -1.20    4.50
  -5 -14   4    5.30    5.70
  -4 -14   4   28.60   11.10
  -4 -14   4   23.70   11.90
   3  14  -4   12.50    6.90
  -3 -14   4   31.60   13.50
  -3 -14   4   17.90    9.60
   2  14  -4   19.50    7.50
  -2 -14   4    5.00    5.50
  -2 -14   4   11.00    9.40
   1  14  -4    6.70    5.20
  -1 -14   4   11.20   10.10
  -1 -14   4   10.90    7.50
   0 -14   4   33.70   10.50
   0 -14   4   16.40   11.60
   1 -14   4    1.90    4.50
   1 -14   4    2.70    7.10
   2 -14   4    0.40    7.10
  -3  14  -4   17.40    8.80
   3 -14   4   60.49   29.30
   9  13  -4   17.80   10.20
  -9 -13   4   36.00   13.00
   8  13  -4   10.60    7.20
  -8 -13   4    0.90    6.40
  -8 -13   4   21.10   11.10
   7  13  -4   30.60   10.80
  -7 -13   4   37.40   13.20
  -7 -13   4   13.50    7.80
   6  13  -4   -2.30    3.60
  -6 -13   4   21.80   11.40
  -6 -13   4   17.90    9.50
   5  13  -4   76.49   19.20
  -5 -13   4   60.09   17.40
  -5 -13   4   54.59   15.10
   4  13  -4   23.80    8.90
  -4 -13   4   54.29   13.20
  -4 -13   4   27.70   10.90
   3  13  -4    6.80    5.20
  -3 -13   4    7.40    6.40
  -3 -13   4    2.90    4.00
   2  13  -4   36.10    9.30
  -2 -13   4   15.70    7.50
  -2 -13   4   28.00   12.20
   1  13  -4   67.49    9.50
  -1 -13   4   55.29   16.70
  -1 -13   4   66.99   13.60
   0  13  -4    0.50    3.10
   0 -13   4    0.70    3.30
   0 -13   4    5.40    8.70
   1 -13   4   -3.70    4.30
   1 -13   4   -0.10    3.40
   2 -13   4   49.60   11.40
   2 -13   4   70.69   18.60
   3 -13   4    1.10    6.20
   3 -13   4   -1.00    3.10
  -4  13  -4  129.19   17.00
   4 -13   4  118.69   25.50
  -5  13  -4   14.90    8.50
   5 -13   4    3.30    7.50
  10  12  -4   -4.00    3.90
 -10 -12   4    3.90    5.90
 -10 -12   4    4.40    6.30
   9  12  -4    9.00    7.70
  -9 -12   4    4.20    6.60
  -9 -12   4   -0.10    4.30
   8  12  -4    7.70    6.70
  -8 -12   4   -3.90    3.00
  -8 -12   4    9.40    7.60
   7  12  -4   41.50   11.90
  -7 -12   4   47.20   13.70
  -7 -12   4   23.40    9.90
   6  12  -4    5.40    6.00
  -6 -12   4    0.00    4.00
  -6 -12   4    5.70    6.90
   5  12  -4   10.80    6.70
  -5 -12   4   48.30   13.90
  -5 -12   4   16.00    9.20
   4  12  -4   11.60    6.00
  -4 -12   4   34.80   11.90
  -4 -12   4   11.00    8.20
   3  12  -4   48.90   10.70
  -3 -12   4   84.89   13.60
  -3 -12   4   37.20   13.60
   2  12  -4   84.29   10.70
  -2 -12   4   85.59   20.10
  -2 -12   4   69.89   15.10
   1  12  -4    3.30    3.60
  -1 -12   4    0.60    3.60
  -1 -12   4    5.90    7.00
   0  12  -4   19.20    5.80
   0 -12   4   10.00    6.20
   0 -12   4   43.40   14.80
  -1  12  -4   48.10    6.50
   1 -12   4   82.19   11.80
   1 -12   4   50.39   15.50
   2 -12   4   18.30    7.20
   2 -12   4   42.80   14.20
   3 -12   4   75.39   10.30
   3 -12   4   85.99   21.00
  -4  12  -4   -3.60    2.80
   4 -12   4   -0.40    5.10
   4 -12   4    3.20    3.50
  -5  12  -4    5.30    6.20
   5 -12   4    0.20    5.60
  -6  12  -4   13.10    8.00
   6 -12   4    7.30    8.90
  -7  12  -4   22.10    9.20
   7 -12   4   29.30   13.20
 -11 -11   4    1.80    5.30
 -11 -11   4    0.70    4.80
 -10 -11   4    5.70    7.40
 -10 -11   4    5.90    7.10
  -9 -11   4   -2.00    3.40
  -9 -11   4   -4.50    3.50
   8  11  -4   21.70    9.90
  -8 -11   4    3.40    6.30
  -8 -11   4   -0.10    4.30
   7  11  -4   38.90   11.80
  -7 -11   4   38.40   11.50
   6  11  -4   38.10   10.30
  -6 -11   4   24.30   10.60
   5  11  -4    0.90    3.10
  -5 -11   4   -2.00    4.70
  -5 -11   4    3.20    5.00
   4  11  -4   16.60    6.80
  -4 -11   4    4.60    5.60
  -4 -11   4   -1.40    5.50
   3  11  -4  223.18   17.20
  -3 -11   4  190.08   19.30
  -3 -11   4  189.08   22.10
   2  11  -4   87.39   10.50
  -2 -11   4  124.49   15.20
  -2 -11   4  119.99   17.50
   1  11  -4   42.90    8.60
  -1 -11   4   30.60   11.50
  -1 -11   4   30.40    9.40
   0  11  -4   12.40    4.90
   0 -11   4   13.00    6.20
   0 -11   4   27.30   11.20
  -1  11  -4   44.50    6.00
   1 -11   4   37.70    9.30
   1 -11   4   81.59   18.60
  -2  11  -4   58.79    8.00
   2 -11   4   66.89    9.90
   3 -11   4   99.49   21.20
  -4  11  -4    2.90    4.30
   4 -11   4    7.80    4.40
   4 -11   4   -0.20    5.40
  -5  11  -4   18.30    8.90
   5 -11   4   21.00    6.00
   5 -11   4   24.70   12.20
  -6  11  -4  114.99   15.10
   6 -11   4  135.09   21.10
  -7  11  -4   98.69   14.40
   7 -11   4   73.69   19.40
  -8  11  -4   47.40   12.60
   8 -11   4   38.70   16.00
 -12 -10   4   35.00   12.00
 -12 -10   4   25.20   10.40
 -11 -10   4    9.00    8.00
 -11 -10   4    4.20    5.40
 -10 -10   4    1.50    5.60
  -9 -10   4  176.78   21.20
  -9 -10   4  208.08   21.70
  -8 -10   4   14.00    7.40
  -8 -10   4   18.00    8.50
  -7 -10   4   45.60   12.30
  -7 -10   4  111.69   20.80
  -6 -10   4    2.40    4.20
  -6 -10   4   -2.00    2.60
   5  10  -4   26.20    8.20
  -5 -10   4   13.40    8.10
  -5 -10   4   30.80    9.90
   4  10  -4   12.70    5.90
  -4 -10   4   17.60    7.80
  -4 -10   4   24.20   10.10
   3  10  -4   86.79   10.50
  -3 -10   4  139.39   17.50
  -3 -10   4   86.29   12.90
   2  10  -4   71.59    9.10
  -2 -10   4   72.69   11.70
  -2 -10   4   66.09   16.10
   1  10  -4    2.60    3.10
  -1 -10   4   -3.40    3.20
  -1 -10   4   -4.40    1.80
   0  10  -4  144.09   10.80
   0 -10   4  110.49   16.40
   0 -10   4  122.69   13.80
  -1  10  -4  121.29    9.00
  -1  10  -4  105.39    9.10
   1 -10   4  135.09   18.50
   1 -10   4  150.08   14.50
  -2  10  -4   66.69    5.70
  -2  10  -4   75.19    5.90
   2 -10   4   55.19   15.10
   3 -10   4    2.20    3.20
   3 -10   4    8.60    6.90
  -4  10  -4   47.90   10.90
   4 -10   4   35.70   12.70
   4 -10   4   30.50    7.90
  -5  10  -4   42.60   10.60
   5 -10   4   38.20    7.80
   5 -10   4   27.80   13.40
  -6  10  -4    3.60    4.50
   6 -10   4    0.80    6.00
   6 -10   4    3.20    2.90
  -7  10  -4  171.28   17.80
   7 -10   4  165.78   23.20
  -8  10  -4  111.59   15.00
   8 -10   4  108.49   22.70
  -9  10  -4    5.70    6.20
   9 -10   4   11.30    9.70
 -13  -9   4   86.99   17.80
 -13  -9   4   57.99   16.40
 -12  -9   4   -2.20    3.20
 -12  -9   4    0.00    5.10
 -11  -9   4   14.00    7.90
 -11  -9   4   22.70    9.70
 -10  -9   4   25.40    9.70
 -10  -9   4   28.60    9.80
  -9  -9   4   30.70   10.30
  -9  -9   4   24.20    9.90
  -8  -9   4    3.60    4.30
  -8  -9   4   13.10    7.00
  -7  -9   4   86.29   17.20
  -7  -9   4  130.09   16.20
  -6  -9   4   32.90   10.10
  -6  -9   4   43.50   12.40
  -5  -9   4   44.20   11.60
  -5  -9   4   79.19   16.00
  -4  -9   4  496.85   32.30
  -4  -9   4  420.56   28.40
   3   9  -4    4.80    3.80
  -3  -9   4    1.30    2.90
  -3  -9   4    3.20    5.00
   2   9  -4    2.50    2.90
  -2  -9   4    2.40    4.80
  -2  -9   4    7.50    7.20
   1   9  -4   97.99    9.30
  -1  -9   4   79.69   11.40
  -1  -9   4   94.79   14.30
   0   9  -4  385.96   18.30
   0   9  -4  350.16   18.50
   0  -9   4  350.96   27.70
   0  -9   4  344.47   23.70
  -1   9  -4  153.78    9.80
  -1   9  -4  135.09    9.80
   1  -9   4  174.18   15.30
   1  -9   4  145.19   18.10
  -2   9  -4   61.49    5.20
  -2   9  -4   73.19    5.40
   2  -9   4   81.39   17.20
   2  -9   4   87.89   10.70
   3  -9   4   11.30    8.30
   3  -9   4   23.70    7.00
  -4   9  -4   -1.80    2.70
   4  -9   4   -0.40    5.30
   4  -9   4    7.80    4.20
  -5   9  -4   26.10    8.10
   5  -9   4   59.99   16.40
   5  -9   4   46.10    7.10
  -6   9  -4   48.90   10.50
   6  -9   4   41.00   14.10
   6  -9   4   45.10    6.60
  -7   9  -4   39.50    9.80
   7  -9   4   32.60    5.10
   7  -9   4   40.00   13.10
   8  -9   4   17.10   10.30
  -9   9  -4   -0.90    3.80
   9  -9   4    1.10    5.90
 -10   9  -4   89.09   14.10
  10  -9   4   57.79   17.80
 -13  -8   4   16.60    8.10
 -13  -8   4   45.50   11.80
 -12  -8   4    0.20    4.00
 -12  -8   4   -4.00    3.30
 -12  -8   4    2.10    5.40
 -11  -8   4   21.90   10.30
 -11  -8   4   14.10    8.10
 -11  -8   4   24.30    8.60
 -10  -8   4   21.30    9.60
 -10  -8   4   29.50   10.00
 -10  -8   4   16.40    7.70
  -9  -8   4   -1.40    3.50
  -9  -8   4   -0.70    3.70
  -9  -8   4    4.60    5.70
  -8  -8   4    1.20    3.90
  -8  -8   4    4.00    4.10
  -8  -8   4   -1.80    3.40
  -7  -8   4    4.40    4.90
  -7  -8   4    0.20    3.70
  -7  -8   4    8.80    6.10
  -6  -8   4    6.00    5.00
  -6  -8   4    0.00    2.60
  -6  -8   4   -5.80    2.30
  -5  -8   4   49.00   11.30
  -5  -8   4   47.30    9.90
  -5  -8   4   63.39   13.50
  -4  -8   4  232.38   20.50
  -4  -8   4  211.98   19.00
  -3  -8   4   70.39   11.70
  -3  -8   4   79.69   14.90
  -2  -8   4   19.60    7.10
  -2  -8   4   19.10    8.20
   1   8  -4   85.09    8.20
  -1  -8   4   73.39   12.00
  -1  -8   4   75.79   10.80
   0   8  -4   13.00    4.10
   0   8  -4   20.20    4.70
   0  -8   4   21.80    8.50
   0  -8   4   21.30    6.80
  -1   8  -4  419.06   18.30
  -1   8  -4  444.76   17.80
   1  -8   4  427.16   24.40
   1  -8   4  405.96   29.30
  -2   8  -4    2.30    1.60
  -2   8  -4    0.80    1.40
   2  -8   4    4.80    6.00
   2  -8   4    3.00    3.50
   3  -8   4   36.20   12.00
   3  -8   4   40.40    8.60
   4  -8   4  211.38   15.00
   4  -8   4  155.98   19.30
  -5   8  -4    0.40    3.00
   5  -8   4    1.20    2.40
   5  -8   4    4.20    6.00
  -6   8  -4  168.28   15.30
  -6   8  -4  137.69   11.30
   6  -8   4  209.98   23.00
   6  -8   4  198.78   13.30
  -7   8  -4   18.20    7.10
   7  -8   4   10.80    4.20
   7  -8   4   16.10    9.30
  -8   8  -4   -2.10    2.40
   8  -8   4   -0.60    6.50
   8  -8   4   -0.60    2.00
  -9   8  -4   15.80    6.50
   9  -8   4   20.20   11.80
 -10   8  -4   41.50   13.20
  10  -8   4   42.60   14.30
 -11   8  -4  168.38   18.10
  11  -8   4  178.98   25.20
 -14  -7   4   64.59   15.90
 -14  -7   4   50.99   11.80
 -13  -7   4    1.70    4.80
 -13  -7   4    2.20    4.60
 -13  -7   4    8.40    6.90
 -12  -7   4    6.20    6.40
 -12  -7   4   -0.80    3.80
 -12  -7   4    1.00    5.30
 -11  -7   4  134.09   17.70
 -11  -7   4  140.19   15.40
 -11  -7   4  139.29   17.70
 -10  -7   4   37.00   11.40
 -10  -7   4   32.60   10.20
 -10  -7   4   23.90    7.70
  -9  -7   4   27.00    9.20
  -9  -7   4   22.60    7.70
  -9  -7   4   19.00    7.90
  -8  -7   4   26.90    9.00
  -8  -7   4   30.40    8.90
  -8  -7   4   33.30    9.90
  -7  -7   4   72.79   11.00
  -7  -7   4   44.70   11.40
  -7  -7   4   67.69   12.80
  -6  -7   4   18.70    7.30
  -6  -7   4   22.50    8.20
  -6  -7   4   34.50    9.10
  -5  -7   4  393.66   26.10
  -5  -7   4  371.06   22.90
  -4  -7   4  104.59   13.30
  -4  -7   4   88.49   10.40
  -4  -7   4   91.29   12.20
  -3  -7   4    0.20    2.70
  -3  -7   4    7.10    5.80
  -2  -7   4  326.27   23.30
  -2  -7   4  332.17   22.00
   1   7  -4   36.30    5.60
  -1  -7   4   25.40    9.70
  -1  -7   4   41.20    9.30
   0   7  -4  155.18    9.70
   0   7  -4  149.09   10.30
   0  -7   4  150.68   16.30
   0  -7   4  143.69   13.30
  -1   7  -4    7.80    2.80
  -1   7  -4   10.00    3.90
   1  -7   4    3.20    5.00
   1  -7   4   10.50    4.50
  -2   7  -4   34.40    3.30
  -2   7  -4   38.10    3.30
   2  -7   4   35.50   10.70
   2  -7   4   49.70    8.00
   3  -7   4   12.40    5.50
   3  -7   4   24.20    8.90
   4  -7   4   95.89   10.20
   4  -7   4  105.49   15.20
  -5   7  -4  716.83   30.50
   5  -7   4  681.83   30.20
   5  -7   4  662.03   40.60
  -6   7  -4   55.19    7.10
  -6   7  -4   55.29    8.70
   6  -7   4   61.39    7.90
   6  -7   4   67.39   15.30
  -7   7  -4    0.20    3.30
   7  -7   4    0.30    1.90
   7  -7   4    0.70    2.40
   7  -7   4    1.20    6.00
  -8   7  -4   -0.70    2.90
   8  -7   4    1.40    2.30
   8  -7   4    3.40    5.30
  -9   7  -4   39.10   10.00
   9  -7   4   32.60    5.80
   9  -7   4   13.20    9.20
 -10   7  -4    2.20    4.40
  10  -7   4    2.90    6.60
 -11   7  -4   64.99   13.30
  11  -7   4   44.30   15.60
 -12   7  -4    1.80    5.50
  12  -7   4    4.00    7.80
 -14  -6   4    0.80    4.70
 -14  -6   4   -5.40    3.40
 -14  -6   4   -1.70    4.80
 -13  -6   4   26.80   11.10
 -13  -6   4   22.90    9.80
 -13  -6   4   31.90    9.50
 -12  -6   4   71.29   16.90
 -12  -6   4   42.90   12.00
 -12  -6   4   59.39   12.10
 -11  -6   4   80.09   16.90
 -11  -6   4   60.99    9.80
 -11  -6   4   67.69   14.90
 -10  -6   4   55.19    9.20
 -10  -6   4   56.89   13.40
 -10  -6   4   62.99   14.10
  -9  -6   4   20.30    7.70
  -9  -6   4   30.50   10.10
  -9  -6   4   10.60    6.50
  -8  -6   4   45.70   10.10
  -8  -6   4   79.39   15.60
  -8  -6   4   49.70   11.40
  -7  -6   4   88.79   12.60
  -7  -6   4  103.59   11.90
  -7  -6   4   94.79   12.20
  -6  -6   4  113.59   12.60
  -6  -6   4  101.19   11.90
  -6  -6   4  125.39   14.10
  -5  -6   4    1.50    4.10
  -5  -6   4    0.90    3.10
  -5  -6   4    0.80    3.10
  -4  -6   4  373.16   21.30
  -4  -6   4  379.86   23.50
  -4  -6   4  349.77   23.20
  -3  -6   4  210.58   14.40
  -3  -6   4  197.18   16.60
  -3  -6   4  184.38   16.00
   2   6  -4  344.17   18.80
  -2  -6   4  344.87   21.80
  -2  -6   4  360.56   23.10
  -2  -6   4  401.86   19.40
   1   6  -4  621.94   25.50
  -1  -6   4  594.94   31.80
  -1  -6   4  610.54   29.70
  -1  -6   4  590.04   24.60
   0   6  -4  156.28    9.80
   0  -6   4  154.18   13.40
   0  -6   4  116.69   13.70
  -1   6  -4   10.30    2.60
  -1   6  -4    7.80    2.60
   1  -6   4    6.00    5.30
   1  -6   4   13.60    5.30
  -2   6  -4   15.60    2.10
  -2   6  -4   12.30    1.70
   2  -6   4   20.00    6.00
   2  -6   4   33.70    9.90
  -3   6  -4  208.28   15.10
   3  -6   4  191.88   18.90
   3  -6   4  228.98   15.50
  -4   6  -4  153.18   11.70
  -4   6  -4  162.68   12.40
   4  -6   4  142.39   12.10
   4  -6   4  138.09   16.30
  -5   6  -4  228.88   14.80
  -5   6  -4  233.38   15.50
   5  -6   4  281.77   23.60
   5  -6   4  227.78   15.50
  -6   6  -4   91.09   10.10
  -6   6  -4   87.99    8.70
   6  -6   4   86.99    9.40
   6  -6   4   78.49   16.50
  -7   6  -4    1.80    3.90
   7  -6   4   -1.10    2.00
   7  -6   4   -4.40    2.70
   7  -6   4    0.60    2.30
  -8   6  -4  104.49   11.30
   8  -6   4   80.59    8.60
   8  -6   4   55.09    6.90
   8  -6   4   76.69   16.80
  -9   6  -4   10.60    5.60
   9  -6   4   29.30   11.10
   9  -6   4    9.00    4.10
 -10   6  -4    1.30    4.00
  10  -6   4    5.80    6.90
  10  -6   4    2.50    3.20
 -11   6  -4   18.60    7.90
  11  -6   4   26.80   13.00
  12  -6   4    5.80    7.60
  14   5  -4    8.00    9.80
 -14  -5   4   -0.50    4.10
 -14  -5   4   -3.80    3.80
 -13  -5   4    7.10    6.00
 -13  -5   4    3.40    4.20
 -13  -5   4   -1.60    3.60
 -12  -5   4    9.10    5.20
 -12  -5   4   13.60    8.40
 -12  -5   4   14.40    7.60
 -11  -5   4   21.00    9.00
 -11  -5   4   46.10   12.90
 -10  -5   4  113.39   14.90
 -10  -5   4  107.99   14.70
 -10  -5   4  117.19   12.00
  -9  -5   4    2.20    4.20
  -9  -5   4    2.40    3.40
  -9  -5   4   11.00    6.00
  -8  -5   4   62.79   12.20
  -8  -5   4   71.49    9.30
  -8  -5   4   63.39   13.40
  -7  -5   4   46.90   10.50
  -7  -5   4   46.30    9.70
  -7  -5   4   29.40    7.60
  -6  -5   4  118.39   14.80
  -6  -5   4  158.28   15.40
  -6  -5   4  167.28   13.90
  -5  -5   4   59.79    9.40
  -5  -5   4   36.40    8.50
  -5  -5   4   47.30    7.50
  -4  -5   4   43.80   10.00
  -4  -5   4   51.99    9.60
  -4  -5   4   44.90    9.10
  -3  -5   4  131.89   12.60
  -3  -5   4  121.79   12.30
  -3  -5   4  142.49   11.30
   2   5  -4  142.79   11.00
  -2  -5   4  149.39   13.20
  -2  -5   4  182.48   11.90
  -2  -5   4  155.58   13.80
   1   5  -4  792.92   29.60
  -1  -5   4  739.13   33.90
  -1  -5   4  791.72   29.30
  -1  -5   4  822.92   36.40
   0   5  -4  187.88   10.60
   0  -5   4  188.98   10.30
   0  -5   4  191.28   16.10
   0  -5   4  180.68   14.10
  -1   5  -4   93.49    9.60
  -1   5  -4   62.79    5.00
   1  -5   4   55.49    9.20
   1  -5   4   64.49    8.30
  -2   5  -4  325.27   11.20
  -2   5  -4  322.37   18.70
  -2   5  -4  326.97   10.50
   2  -5   4  313.57   22.10
   2  -5   4  314.87   18.70
  -3   5  -4    8.20    3.70
   3  -5   4    3.60    4.70
   3  -5   4   15.90    5.00
  -4   5  -4  507.95   24.40
  -4   5  -4  563.44   23.70
   4  -5   4  597.64   26.40
   4  -5   4  519.05   31.40
  -5   5  -4    7.30    3.70
  -5   5  -4    7.50    3.40
   5  -5   4    9.30    6.10
   5  -5   4    4.80    3.40
  -6   5  -4    2.40    2.90
  -6   5  -4   -0.30    2.50
   6  -5   4    0.70    2.80
   6  -5   4   -2.50    3.90
  -7   5  -4  116.79   11.00
   7  -5   4  132.79   16.90
   7  -5   4  111.29    9.30
   7  -5   4  117.99   11.00
  -8   5  -4  236.88   19.20
   8  -5   4  225.98   14.30
   8  -5   4  220.88   22.70
   8  -5   4  213.08   15.10
  -9   5  -4    8.20    4.70
   9  -5   4    4.00    3.70
   9  -5   4    4.00    6.10
 -10   5  -4   19.80    7.00
  10  -5   4   37.00   12.30
  10  -5   4   42.90    8.40
 -11   5  -4    3.20    4.30
  11  -5   4    4.70    3.70
 -12   5  -4    3.80    4.80
  12  -5   4    6.10    7.20
 -13   5  -4    8.10    6.40
  13  -5   4   10.40    8.20
 -15  -4   4    2.10    7.70
 -15  -4   4    1.50    5.50
 -14  -4   4   12.90    8.30
 -14  -4   4   21.40   10.40
  13   4  -4  188.38   19.60
 -13  -4   4  177.68   20.40
 -13  -4   4  149.09   32.60
 -12  -4   4    3.50    3.10
 -12  -4   4   -0.10    3.60
 -12  -4   4    7.80    5.60
 -11  -4   4   47.80    7.70
 -11  -4   4   54.59   13.10
 -11  -4   4   50.19   12.20
 -10  -4   4   12.90    5.20
 -10  -4   4   19.50    7.80
 -10  -4   4   14.30    6.70
  -9  -4   4   91.39    9.70
  -9  -4   4   84.79   12.10
  -9  -4   4   47.30   10.70
  -8  -4   4   37.20    9.70
  -8  -4   4   36.80    9.50
  -8  -4   4   26.70    6.70
   7   4  -4  116.39   12.30
  -7  -4   4  151.88   14.90
  -7  -4   4  136.89   13.70
  -7  -4   4  117.59   10.90
   6   4  -4  175.38   13.60
  -6  -4   4   98.69   12.10
  -6  -4   4  179.18   12.90
  -6  -4   4  156.58   13.90
   5   4  -4  389.36   21.30
  -5  -4   4  352.96   22.50
  -5  -4   4  383.56   20.70
  -5  -4   4  400.96   22.10
   4   4  -4   -0.10    1.80
  -4  -4   4    5.00    4.00
  -4  -4   4   12.90    5.00
  -4  -4   4   19.80    5.70
   3   4  -4   65.49    7.60
   3   4  -4   60.59    8.00
  -3  -4   4   88.19    9.40
  -3  -4   4   78.79    9.40
  -3  -4   4   67.39    7.70
   2   4  -4  371.96   20.60
   2   4  -4  364.56   18.00
  -2  -4   4  355.86   20.30
  -2  -4   4  371.56   18.00
  -2  -4   4  353.66   20.70
   1   4  -4  230.28   12.60
   1   4  -4  202.78   15.20
   1   4  -4  233.28   15.60
  -1  -4   4  210.48   12.00
  -1  -4   4  201.58   15.10
  -1  -4   4  232.38   15.60
   0   4  -4  331.47   18.70
   0   4  -4  300.47   13.70
   0   4  -4  307.47   19.30
   0  -4   4  312.67   18.10
   0  -4   4  306.27   19.40
   0  -4   4  304.67   14.10
  -1   4  -4  283.67   11.80
  -1   4  -4  269.47   16.70
   1  -4   4  309.17   17.70
   1  -4   4  288.27   19.40
   1  -4   4  287.77   11.60
  -2   4  -4  174.48    6.10
  -2   4  -4  161.88   12.20
  -2   4  -4  164.68    5.80
   2  -4   4  155.78   12.20
   2  -4   4  154.98   14.30
  -3   4  -4  259.67   16.00
   3  -4   4  328.37   18.00
   3  -4   4  312.07   21.30
  -4   4  -4  136.19   11.00
  -4   4  -4  159.78   10.10
   4  -4   4  162.88   16.00
   4  -4   4  152.58   12.00
  -5   4  -4    1.50    2.10
  -5   4  -4    2.70    2.40
   5  -4   4    3.30    4.20
   5  -4   4    0.60    2.30
  -6   4  -4   11.00    4.20
  -6   4  -4    6.00    3.80
   6  -4   4    8.80    5.90
   6  -4   4    4.90    3.00
  -7   4  -4   84.09    8.70
   7  -4   4   65.89    7.30
   7  -4   4   73.59    8.80
   7  -4   4   81.49   13.30
  -8   4  -4   86.09    9.60
   8  -4   4   99.29   15.10
   8  -4   4   89.59   10.00
  -9   4  -4  313.27   22.30
   9  -4   4  287.27   18.70
   9  -4   4  309.07   27.00
 -10   4  -4   29.80    7.80
  10  -4   4   23.00    6.80
  10  -4   4   21.10    9.10
 -11   4  -4    9.50    5.40
  11  -4   4    4.70    4.50
  11  -4   4    2.90    6.80
 -12   4  -4   48.80   11.10
  12  -4   4   14.10   10.50
  12  -4   4   21.30    6.90
 -13   4  -4   49.50   11.40
  13  -4   4   23.70   12.20
 -15  -3   4   -4.40    4.30
 -15  -3   4    7.70    5.90
 -14  -3   4   28.60   10.10
 -14  -3   4   12.60    7.80
  13   3  -4   35.70    9.00
 -13  -3   4   23.40    8.50
 -13  -3   4    7.80    6.40
  12   3  -4  129.59   13.10
 -12  -3   4  115.39   14.80
 -11  -3   4   60.19   12.90
 -11  -3   4   43.90    6.90
 -11  -3   4   44.90   11.30
 -10  -3   4    1.10    3.80
 -10  -3   4    0.00    2.10
 -10  -3   4   -2.00    2.20
   9   3  -4    0.90    2.50
  -9  -3   4   -1.80    2.50
  -9  -3   4    2.60    2.80
  -9  -3   4    1.10    3.90
   8   3  -4  750.52   31.80
  -8  -3   4  761.52   37.00
  -8  -3   4  774.72   30.50
  -8  -3   4  702.33   36.30
   7   3  -4    6.60    3.50
  -7  -3   4   -3.40    2.20
  -7  -3   4    0.90    3.50
  -7  -3   4    9.80    3.70
   6   3  -4  439.96   21.10
  -6  -3   4  382.96   23.20
  -6  -3   4  396.46   19.50
  -6  -3   4  395.16   23.10
   5   3  -4    5.60    3.10
  -5  -3   4    7.00    3.40
  -5  -3   4    2.30    2.80
  -5  -3   4   14.30    5.40
   4   3  -4  206.58   13.70
  -4  -3   4  232.48   16.20
  -4  -3   4  238.88   14.30
  -4  -3   4  249.28   15.50
   3   3  -4  885.51   34.90
   3   3  -4  907.91   34.10
   3   3  -4  909.81   35.00
   3   3  -4  888.61   37.30
  -3  -3   4  942.31   35.10
  -3  -3   4  967.80   35.30
  -3  -3   4  938.21   37.60
   2   3  -4  479.25   23.70
   2   3  -4  501.55   22.90
   2   3  -4  465.25   20.90
  -2  -3   4  488.25   21.10
  -2  -3   4  492.75   22.80
  -2  -3   4  479.95   23.80
   1   3  -4   45.80    6.70
   1   3  -4   40.40    6.30
   1   3  -4   53.99    5.50
  -1  -3   4   40.80    4.90
  -1  -3   4   52.29    9.20
  -1  -3   4   43.30    6.70
   0   3  -4   24.40    3.50
   0   3  -4   37.70    6.30
   0   3  -4   30.30    6.00
   0  -3   4   39.40    7.70
   0  -3   4   30.10    6.90
   0  -3   4   30.60    3.90
  -1   3  -4  670.73   22.20
  -1   3  -4  701.03   31.70
  -1   3  -4  675.63   30.40
   1  -3   4  672.53   22.20
   1  -3   4  671.33   30.50
   1  -3   4  691.93   28.70
  -2   3  -4  961.60   27.40
  -2   3  -4  996.10   39.90
   2  -3   4  966.80   40.40
   2  -3   4  966.10   36.90
   2  -3   4  959.30   27.60
  -3   3  -4  272.57   15.50
   3  -3   4  241.38   18.00
   3  -3   4  244.08   15.30
  -4   3  -4    0.60    1.60
  -4   3  -4   -1.00    1.20
   4  -3   4   -2.40    2.10
   4  -3   4   -0.20    1.70
  -5   3  -4   10.40    3.80
  -5   3  -4   21.10    4.60
   5  -3   4   12.60    6.20
   5  -3   4   19.80    5.70
  -6   3  -4  244.08   15.00
  -6   3  -4  249.68   13.80
   6  -3   4  274.87   21.70
   6  -3   4  237.88   15.90
  -7   3  -4   -2.20    1.60
   7  -3   4    3.40    2.90
   7  -3   4   -0.30    4.20
  -8   3  -4    8.60    4.30
   8  -3   4    2.70    4.80
   8  -3   4   14.90    5.40
   8  -3   4   10.40    1.40
  -9   3  -4   47.90    7.60
   9  -3   4   31.80    3.00
   9  -3   4   54.09    8.40
   9  -3   4   36.20    3.30
   9  -3   4   46.10   13.10
 -10   3  -4    0.40    2.80
  10  -3   4    6.30    6.60
  10  -3   4    5.40    2.00
  10  -3   4   13.00    6.00
  10  -3   4    3.50    1.80
 -11   3  -4    3.20    3.60
  11  -3   4    4.70    5.80
  11  -3   4    1.70    3.60
 -12   3  -4   69.79   10.70
  12  -3   4   69.19   18.40
  12  -3   4   84.99   19.80
 -13   3  -4    8.50    6.10
  13  -3   4    2.50    4.20
  13  -3   4    7.30    8.70
 -14   3  -4   83.79   13.30
  14  -3   4   61.19   18.30
 -15  -2   4   -0.70    4.00
 -15  -2   4    1.40    5.00
 -14  -2   4   11.40    8.30
 -14  -2   4   33.30    9.90
  13   2  -4   22.90    6.60
 -13  -2   4   22.30    9.40
 -13  -2   4   20.30    8.10
  12   2  -4  112.39   11.20
 -12  -2   4  112.99   15.30
 -12  -2   4  121.69   14.40
  11   2  -4   14.00    5.20
  11   2  -4   18.70    5.50
 -11  -2   4   13.70    6.70
 -11  -2   4   22.30    7.90
  10   2  -4    2.30    3.00
 -10  -2   4   -1.00    1.60
 -10  -2   4    0.70    2.90
 -10  -2   4    2.80    4.40
   9   2  -4   96.49   10.80
  -9  -2   4   79.79   10.70
  -9  -2   4  103.19    8.50
  -9  -2   4   68.49   10.80
   8   2  -4   67.59    7.50
  -8  -2   4   67.79    6.80
  -8  -2   4   74.09   10.30
  -8  -2   4   60.59   11.70
   7   2  -4   65.19    6.90
  -7  -2   4   39.10    5.20
  -7  -2   4   45.50    9.20
  -7  -2   4   54.79    8.50
   6   2  -4  112.39    8.90
  -6  -2   4  110.39   11.20
  -6  -2   4  132.99    8.80
  -6  -2   4  112.79   11.50
   5   2  -4  110.09    8.40
  -5  -2   4   95.29   10.10
  -5  -2   4  109.89   10.60
   4   2  -4    4.20    2.80
   4   2  -4    6.00    3.50
   4   2  -4    6.30    2.80
   4   2  -4    5.40    3.20
  -4  -2   4   14.30    5.30
  -4  -2   4    4.50    3.20
  -4  -2   4    4.10    2.60
   3   2  -4 4635.74  132.19
   3   2  -4 4529.75  132.99
   3   2  -4 4774.92  135.89
   3   2  -4 4647.23  131.09
  -3  -2   4 4585.34  135.59
   2   2  -4  182.58   11.40
   2   2  -4  205.68   13.60
   2   2  -4  179.58   10.70
   2   2  -4  190.78   11.80
  -2  -2   4  195.18   13.40
  -2  -2   4  182.58   11.60
  -2  -2   4  196.08   11.80
   1   2  -4   72.19    8.90
   1   2  -4   61.19    6.90
   1   2  -4   69.69    6.20
  -1  -2   4   63.09    6.10
  -1  -2   4   63.39    7.50
  -1  -2   4   78.69    7.70
   0   2  -4  208.18   10.40
   0   2  -4  215.88   13.70
   0   2  -4  218.18   13.60
   0  -2   4  215.98   10.70
   0  -2   4  214.78   13.60
   0  -2   4  210.68   13.40
  -1   2  -4  245.18   15.40
  -1   2  -4  223.08   14.00
  -1   2  -4  246.88   10.40
   1  -2   4  252.27   15.00
   1  -2   4  275.57   16.30
   1  -2   4  241.68   10.50
  -2   2  -4   64.59    3.70
  -2   2  -4   56.99    7.60
  -2   2  -4   57.79    6.70
   2  -2   4   57.09    3.80
   2  -2   4   61.39    8.20
   2  -2   4   63.09    7.20
  -3   2  -4   72.49    8.80
  -3   2  -4   81.29    8.00
  -3   2  -4   78.59    5.10
   3  -2   4   85.19    3.70
   3  -2   4   88.89    8.60
   3  -2   4   75.89    9.40
  -4   2  -4  143.49    7.80
  -4   2  -4  143.69   10.50
   4  -2   4  140.09   13.60
   4  -2   4  134.09    4.90
   4  -2   4  133.49    4.90
   4  -2   4  134.89   10.90
  -5   2  -4   17.20    4.80
  -5   2  -4   10.40    2.90
   5  -2   4   11.80    1.50
   5  -2   4    9.20    4.10
   5  -2   4    9.90    1.60
   5  -2   4   10.90    5.20
  -6   2  -4    7.00    3.00
  -6   2  -4    8.70    4.00
   6  -2   4    6.90    1.90
   6  -2   4    6.10    3.90
   6  -2   4    8.70    1.90
   6  -2   4   16.30    6.90
  -7   2  -4  600.84   24.70
   7  -2   4  631.74   28.90
   7  -2   4  600.34   19.90
   7  -2   4  564.24   20.40
   7  -2   4  577.24   38.60
  -8   2  -4   72.39    8.00
   8  -2   4   69.49    8.10
   8  -2   4   66.19    9.00
   8  -2   4   68.89   14.70
   8  -2   4   67.99    5.90
  -9   2  -4   47.60    8.50
   9  -2   4   29.70    4.60
   9  -2   4   31.10    8.20
   9  -2   4   50.59   13.00
   9  -2   4   35.70    4.40
 -10   2  -4    3.40    3.30
  10  -2   4    2.30    5.00
  10  -2   4    1.70    2.10
  10  -2   4   -1.00    2.90
  10  -2   4    5.30    3.90
 -11   2  -4  179.48   15.40
  11  -2   4  235.28   24.70
  11  -2   4  208.48   20.60
  11  -2   4  223.48   12.50
 -12   2  -4    7.00    5.60
  12  -2   4   10.80    5.90
  12  -2   4    2.10    6.20
  12  -2   4   11.30    4.00
 -13   2  -4   23.60    7.30
  13  -2   4   45.30   14.60
  13  -2   4   32.10    9.70
  14  -2   4    5.40    7.30
 -15  -1   4    4.50    5.20
 -15  -1   4    5.40    7.30
 -14  -1   4   51.09   14.00
 -14  -1   4   49.40   11.60
 -13  -1   4   65.39   14.70
 -13  -1   4   45.20   10.70
  12   1  -4   12.20    4.50
 -12  -1   4    0.30    4.00
 -12  -1   4    3.10    4.40
  11   1  -4   -1.10    2.30
  11   1  -4    1.40    2.70
 -11  -1   4   -2.60    2.80
 -11  -1   4    0.10    2.60
  10   1  -4  261.67   14.80
  10   1  -4  237.28   13.80
 -10  -1   4  205.28   18.90
 -10  -1   4  251.37   20.30
 -10  -1   4  220.18   17.50
   9   1  -4  696.43   26.80
   9   1  -4  594.34   25.00
  -9  -1   4  687.13   32.10
  -9  -1   4  670.83   34.20
  -9  -1   4  632.64   34.10
   8   1  -4    0.40    1.90
  -8  -1   4    4.50    2.20
  -8  -1   4    1.30    3.80
  -8  -1   4    2.80    3.50
  -8  -1   4    9.20    5.00
   7   1  -4    5.80    2.50
  -7  -1   4    3.80    1.90
  -7  -1   4    8.70    4.60
  -7  -1   4    8.60    4.50
  -7  -1   4   13.70    4.90
   6   1  -4  204.48   10.50
  -6  -1   4  195.58    9.60
  -6  -1   4  163.08   13.90
  -6  -1   4  196.98   14.60
  -6  -1   4  224.48   15.30
   5   1  -4   51.59    7.20
   5   1  -4   52.19    4.90
  -5  -1   4   41.10    6.70
  -5  -1   4   52.79    7.10
  -5  -1   4   52.39    4.50
  -5  -1   4   57.69    7.40
   4   1  -4 1019.20   38.10
   4   1  -4 1037.00   33.80
   4   1  -4 1073.99   40.00
   4   1  -4 1083.99   39.90
  -4  -1   4 1066.69   39.90
  -4  -1   4 1062.59   39.70
  -4  -1   4 1095.69   38.80
  -4  -1   4 1080.29   33.40
   3   1  -4  367.36   15.50
   3   1  -4  377.56   17.80
  -3  -1   4  362.46   19.10
  -3  -1   4  404.46   18.10
  -3  -1   4  391.36   19.10
  -3  -1   4  375.56   15.40
   2   1  -4  344.77   18.20
   2   1  -4  397.56   17.70
   2   1  -4  392.66   16.50
   2   1  -4  388.86   16.20
  -2  -1   4  382.16   16.20
  -2  -1   4  351.76   17.30
  -2  -1   4  354.86   18.50
   1   1  -4   54.89    4.90
   1   1  -4   65.79    6.20
   1   1  -4   51.69    5.30
  -1  -1   4   31.60    4.60
  -1  -1   4   39.80    5.80
  -1  -1   4   50.39    5.30
   0   1  -4   11.00    3.80
   0   1  -4   15.30    4.60
   0   1  -4    9.40    2.30
   0   1  -4   12.40    3.20
   0  -1   4   17.10    4.70
   0  -1   4   14.50    3.30
   0  -1   4   10.90    3.90
  -1   1  -4    0.30    2.10
  -1   1  -4    2.60    1.60
  -1   1  -4    2.40    2.10
   1  -1   4   -0.50    2.30
   1  -1   4    2.40    1.60
   1  -1   4    2.70    2.60
  -2   1  -4  381.56   19.90
  -2   1  -4  386.16   13.90
  -2   1  -4  408.86   19.00
   2  -1   4  416.66   19.70
   2  -1   4  409.36   21.00
   2  -1   4  394.86   14.50
  -3   1  -4  219.68   13.30
  -3   1  -4  244.48   15.60
  -3   1  -4  218.28    8.70
  -3   1  -4  221.08    8.50
   3  -1   4  215.28    9.10
   3  -1   4  248.28   14.50
   3  -1   4  209.48   15.10
  -4   1  -4  280.07   15.60
  -4   1  -4  267.17   11.00
   4  -1   4  307.77   18.50
   4  -1   4  287.67   16.50
   4  -1   4  289.17   18.80
   4  -1   4  271.27   10.80
   4  -1   4  287.87   10.90
  -5   1  -4   52.09    4.80
  -5   1  -4   66.19    7.40
   5  -1   4   56.99    4.30
   5  -1   4   69.29    7.90
   5  -1   4   66.29    9.50
   5  -1   4   63.09    4.70
  -6   1  -4  115.39    7.90
   6  -1   4  102.09    6.40
   6  -1   4  101.19   12.40
   6  -1   4   97.49    6.70
   6  -1   4   95.99    8.70
   6  -1   4  102.79   10.10
  -7   1  -4   88.59    7.90
   7  -1   4  104.89    7.60
   7  -1   4   93.59   12.60
   7  -1   4   78.29    9.50
   7  -1   4  104.59    7.00
  -8   1  -4   50.89    6.60
   8  -1   4   40.70    8.80
   8  -1   4   53.39   12.70
   8  -1   4   29.10    5.60
   8  -1   4   40.20    4.80
  -9   1  -4   20.60    5.70
   9  -1   4   21.50    9.30
   9  -1   4   16.10    6.20
   9  -1   4   29.90    6.30
   9  -1   4   21.40    4.90
 -10   1  -4   48.90    7.70
  10  -1   4   58.59    6.70
  10  -1   4   65.19    8.00
  10  -1   4   86.49   17.70
  10  -1   4   49.30   10.20
 -11   1  -4   27.30    7.30
  11  -1   4   28.60    6.60
  11  -1   4   37.00   12.30
  11  -1   4   31.50    8.80
  12  -1   4   87.39   12.50
  12  -1   4  111.69   10.00
  12  -1   4  106.59   22.10
  13  -1   4   11.70    6.90
  13  -1   4   -0.50    7.40
  14  -1   4    6.20    7.30
  14  -1   4    2.20    5.20
  15  -1   4   46.50   15.70
 -15   0   4   17.90    9.60
 -14   0   4   26.10   10.10
 -14   0   4   13.40    5.70
 -13   0   4   73.09   15.10
 -13   0   4   71.89   10.30
  12   0  -4    5.80    3.50
 -12   0   4    7.70    6.10
 -12   0   4   12.40    7.50
 -12   0   4   16.50    6.40
  11   0  -4   35.20    7.30
  11   0  -4   37.00    5.30
 -11   0   4   49.90   11.40
 -11   0   4   56.29   12.30
 -11   0   4   13.80    7.10
  10   0  -4  112.99    8.20
 -10   0   4  112.19   11.60
 -10   0   4  125.49   14.50
 -10   0   4  135.09   15.20
   9   0  -4   59.59    5.80
   9   0  -4   56.59    5.50
  -9   0   4   74.49   13.10
  -9   0   4   46.50    8.90
  -9   0   4   78.19   14.10
   8   0  -4   91.19    6.30
   8   0  -4   76.19    6.10
  -8   0   4   96.19   10.20
  -8   0   4   86.49   11.00
  -8   0   4   85.49   11.10
   7   0  -4   87.59    5.60
   7   0  -4   84.89    5.70
  -7   0   4  111.69   11.60
  -7   0   4   82.79    9.20
  -7   0   4   80.99   10.20
   6   0  -4   16.00    2.30
   6   0  -4   13.40    3.70
   6   0  -4   21.60    6.00
  -6   0   4   10.00    4.60
  -6   0   4    7.60    4.30
  -6   0   4   15.70    5.10
   5   0  -4  413.76   13.90
   5   0  -4  438.66   21.20
  -5   0   4  439.16   21.70
  -5   0   4  429.76   13.30
  -5   0   4  424.16   20.80
  -5   0   4  430.46   22.50
   4   0  -4  928.91   27.30
   4   0  -4  917.81   35.00
   4   0  -4  904.71   35.70
   4   0  -4  970.60   35.10
  -4   0   4  954.70   35.50
  -4   0   4  942.11   26.80
  -4   0   4  935.91   34.90
  -4   0   4  948.51   36.40
   3   0  -4 1872.21   61.39
   3   0  -4 1914.01   59.79
   3   0  -4 1955.10   61.59
  -3   0   4 1956.30   62.09
  -3   0   4 1932.21   54.09
  -3   0   4 1895.31   61.39
  -3   0   4 2011.60   60.49
   2   0  -4  130.19    8.50
   2   0  -4  134.29    9.50
   2   0  -4  132.99    9.80
   2   0  -4  151.08    7.70
  -2   0   4  152.38    7.70
  -2   0   4  142.79   10.20
  -2   0   4  144.99    9.90
  -2   0   4  147.69    9.00
   1   0  -4  537.65   20.60
   1   0  -4  475.15   18.00
   1   0  -4  499.65   19.00
   1   0  -4  516.65   21.70
  -1   0   4  486.75   20.40
  -1   0   4  513.65   18.60
  -1   0   4  506.85   19.20
   0   0  -4  809.42   30.40
   0   0  -4  808.12   25.20
   0   0  -4  831.62   28.10
   0   0  -4  814.62   29.10
   0   0   4  808.92   25.30
   0   0   4  809.42   28.20
   0   0   4  874.61   31.40
   0   0   4  834.82   29.40
  -1   0  -4 2309.77   68.99
  -1   0  -4 2249.27   64.59
  -1   0  -4 2240.68   68.69
  -1   0  -4 2263.47   60.69
   1   0   4 2212.38   68.99
   1   0   4 2200.48   69.19
   1   0   4 2226.58   66.69
  -2   0  -4  131.39    9.60
  -2   0  -4  113.99    6.60
   2   0   4  119.09    8.90
   2   0   4  123.09    7.10
   2   0   4  111.19    9.90
   2   0   4  123.59    9.70
  -3   0  -4  407.96   19.40
  -3   0  -4  433.36   15.60
   3   0   4  447.26   16.10
   3   0   4  431.36   20.10
   3   0   4  417.76   20.30
   3   0   4  398.96   21.50
  -4   0  -4   16.40    2.10
  -4   0  -4   18.70    5.10
   4   0   4   19.00    3.50
   4   0   4   19.10    5.10
   4   0   4   19.70    6.40
   4   0   4   12.50    4.50
  -5   0  -4  418.06   15.30
  -5   0  -4  400.46   20.00
   5   0   4  419.76   24.10
   5   0   4  398.36   16.30
   5   0   4  423.06   21.40
   5   0   4  370.66   14.30
  -6   0  -4  404.36   16.80
   6   0   4  381.66   21.40
   6   0   4  408.46   16.70
   6   0   4  447.46   26.00
   6   0   4  393.86   17.10
   6   0   4  375.66   15.70
  -7   0  -4  114.29    8.50
   7   0   4   99.59    8.20
   7   0   4  105.69   13.40
   7   0   4  108.89    8.00
   7   0   4  107.19    7.80
   7   0   4  125.59   11.90
  -8   0  -4   69.39    7.30
   8   0   4   81.59   10.20
   8   0   4   70.99    6.80
   8   0   4   59.99    6.90
   8   0   4   63.79    6.70
   8   0   4   90.19   15.00
  -9   0  -4   24.40    6.10
   9   0   4   13.10    5.80
   9   0   4   15.60    4.60
   9   0   4   26.80    9.60
  10   0   4  204.28   13.60
  10   0   4  223.48   18.60
  10   0   4  219.88   22.40
  11   0   4   34.20   10.00
  11   0   4   43.00    7.90
  11   0   4   19.60    9.20
  12   0   4   66.19   16.10
  12   0   4   71.79   11.60
  12   0   4   86.49   12.40
  13   0   4    4.80    5.50
  13   0   4    5.60    4.00
  13   0   4    6.90    9.30
  14   0   4   -1.30    2.90
  14   0   4    3.70    7.00
  14   0   4    1.90    4.50
  15   0   4  101.59   23.20
  15   0   4  142.39   22.70
 -15   1   4   18.60    9.00
  14  -1  -4   69.79   13.00
 -14   1   4   72.39   16.20
 -14   1   4   61.39   14.90
 -13   1   4    3.30    4.00
 -13   1   4    1.20    5.50
 -13   1   4    8.60    7.00
  12  -1  -4    5.40    2.50
 -12   1   4    4.20    6.00
 -12   1   4   -0.40    2.60
 -12   1   4   14.00    7.20
  11  -1  -4  173.88    9.30
  11  -1  -4  160.18    9.00
 -11   1   4  170.58   17.50
 -11   1   4  144.59   16.80
 -11   1   4  171.58   13.70
  10  -1  -4   38.20    4.30
  10  -1  -4   44.10    4.50
 -10   1   4   21.80    7.70
 -10   1   4   26.70    9.10
 -10   1   4   43.00    7.00
   9  -1  -4   39.00    4.10
   9  -1  -4   39.70    4.00
  -9   1   4   44.40    8.20
  -9   1   4   43.60   10.40
  -9   1   4   57.39   11.00
   8  -1  -4    3.00    2.40
   8  -1  -4    3.40    3.00
   8  -1  -4    4.80    1.90
  -8   1   4    3.60    4.20
  -8   1   4    3.50    3.30
  -8   1   4    3.00    4.00
   7  -1  -4  272.37    8.90
   7  -1  -4  259.67    8.80
   7  -1  -4  283.87   16.60
  -7   1   4  270.77   15.80
  -7   1   4  273.47   18.70
  -7   1   4  276.17   19.00
   6  -1  -4  117.99   11.50
  -6   1   4  125.69   10.00
  -6   1   4  106.99   10.80
  -6   1   4  138.09   12.40
   5  -1  -4  521.55   23.70
  -5   1   4  567.94   23.90
  -5   1   4  583.24   26.00
  -5   1   4  573.74   26.70
   4  -1  -4  493.15   21.70
   4  -1  -4  484.25   21.80
   4  -1  -4  512.45   23.40
  -4   1   4  508.85   21.80
  -4   1   4  527.85   22.90
  -4   1   4  461.55   22.90
   3  -1  -4 1165.68   41.10
   3  -1  -4 1177.68   41.70
   3  -1  -4 1178.08   39.80
  -3   1   4 1166.18   41.20
  -3   1   4 1160.08   39.80
  -3   1   4 1145.49   39.50
   2  -1  -4 1187.58   40.20
   2  -1  -4 1174.58   37.80
   2  -1  -4 1145.99   39.50
  -2   1   4 1229.28   38.40
  -2   1   4 1177.78   39.80
  -2   1   4 1104.69   39.90
  -2   1   4 1197.38   34.10
  -2   1   4 1177.88   33.40
   1  -1  -4  430.06   19.00
   1  -1  -4  441.46   16.60
   1  -1  -4  440.76   18.80
  -1   1   4  447.86   15.70
  -1   1   4  441.46   19.30
  -1   1   4  435.76   16.50
  -1   1   4  462.45   16.90
  -1   1   4  437.86   18.90
   0  -1  -4  478.15   16.60
   0  -1  -4  521.25   21.20
   0  -1  -4  492.35   19.50
   0   1   4  525.35   18.90
   0   1   4  492.05   21.20
   0   1   4  501.45   19.60
   0   1   4  504.45   19.90
   0   1   4  507.95   17.00
  -1  -1  -4 1324.57   43.80
  -1  -1  -4 1262.27   40.60
   1   1   4 1369.56   44.50
   1   1   4 1307.97   42.00
   1   1   4 1313.67   36.60
   1   1   4 1317.57   41.70
  -2  -1  -4  121.49    7.20
  -2  -1  -4   99.79    8.20
   2   1   4  115.09    7.30
   2   1   4  129.89    9.90
   2   1   4  108.29    8.90
   2   1   4   90.49    7.90
  -3  -1  -4    4.50    2.00
  -3  -1  -4    8.00    3.50
   3   1   4    7.90    3.80
   3   1   4    5.20    0.90
   3   1   4    2.90    2.40
  -4  -1  -4  162.38   11.50
   4   1   4  169.48    6.90
   4   1   4  171.38    9.50
   4   1   4  160.68   11.90
   4   1   4  159.98   13.20
   4   1   4  162.48   12.10
   5   1   4  340.47   15.10
   5   1   4  333.47   15.30
   5   1   4  333.97   17.50
   5   1   4  331.77   18.90
   5   1   4  329.17   12.70
   5   1   4  325.17   20.60
   6   1   4  683.73   33.70
   6   1   4  656.13   25.80
   6   1   4  666.93   25.00
   6   1   4  627.74   22.90
   6   1   4  651.73   29.80
   7   1   4    0.80    1.90
   7   1   4    0.90    3.40
   7   1   4   -2.40    1.30
   7   1   4   -2.90    1.10
   7   1   4   -0.20    1.20
   8   1   4   20.00    4.90
   8   1   4   15.90    4.20
   8   1   4    2.60    3.80
   9   1   4  103.19   12.30
   9   1   4   75.59   15.10
   9   1   4   79.99    8.50
  10   1   4    8.60    6.50
  10   1   4    2.60    3.00
  10   1   4    5.10    3.10
  11   1   4   75.89   16.60
  11   1   4   87.79   12.50
  12   1   4   17.30    6.10
  12   1   4   20.80   10.00
  12   1   4   25.80    9.10
  13   1   4    1.30    6.40
  13   1   4   -0.10    3.10
  13   1   4   -0.20    3.00
  14   1   4   15.90    8.10
  14   1   4   11.40   10.10
  14   1   4   34.10    8.70
  15   1   4  150.38   15.30
  15   1   4  178.48   25.60
  15   1   4  123.79   17.50
 -14   2   4   11.40    8.00
 -14   2   4   27.50    9.90
  13  -2  -4   14.70    5.60
 -13   2   4   10.30    7.80
 -13   2   4    8.80    7.10
 -12   2   4   -5.30    3.20
 -12   2   4   -1.90    3.10
 -12   2   4    4.40    3.70
  11  -2  -4  113.79    6.10
 -11   2   4  123.59   14.90
 -11   2   4  116.69   15.40
 -11   2   4  125.19   10.40
  10  -2  -4   16.20    3.00
  10  -2  -4   19.10    2.80
 -10   2   4   12.90    4.30
 -10   2   4   16.90    7.00
 -10   2   4    4.00    5.30
   9  -2  -4  122.69    6.30
   9  -2  -4  132.89   11.40
  -9   2   4  141.99   14.50
  -9   2   4  110.39   13.50
  -9   2   4  134.69   10.40
   8  -2  -4   25.50    2.30
   8  -2  -4   35.20    7.20
   8  -2  -4   23.70    2.60
  -8   2   4   37.60    9.30
  -8   2   4   34.40    5.30
  -8   2   4   24.40    7.70
   7  -2  -4    0.70    1.80
  -7   2   4    1.90    2.20
  -7   2   4    1.30    2.80
  -7   2   4    2.90    3.40
   6  -2  -4  960.30   35.30
  -6   2   4 1001.20   34.70
  -6   2   4  966.80   39.40
  -6   2   4  949.40   39.60
   5  -2  -4  169.28   10.90
  -5   2   4  203.28   14.30
  -5   2   4  194.98   13.60
  -5   2   4  186.08   11.10
   4  -2  -4  249.48   15.10
   4  -2  -4  267.27   13.80
   4  -2  -4  272.37   16.00
  -4   2   4  265.37   15.30
  -4   2   4  271.27   16.10
  -4   2   4  269.27   15.80
   3  -2  -4   27.70    5.40
   3  -2  -4   24.10    4.70
   3  -2  -4   23.30    5.10
  -3   2   4   29.40    5.90
  -3   2   4   20.60    5.30
  -3   2   4   25.50    5.60
   2  -2  -4  820.32   23.90
   2  -2  -4  801.62   30.50
   2  -2  -4  806.12   28.80
   2  -2  -4  833.02   28.40
  -2   2   4  820.32   30.80
  -2   2   4  792.32   28.50
  -2   2   4  771.02   24.30
   1  -2  -4 1660.33   52.59
   1  -2  -4 1606.44   49.70
   1  -2  -4 1715.43   52.29
   1  -2  -4 1666.23   48.40
  -1   2   4 1709.93   48.70
   0  -2  -4 1026.30   35.00
   0  -2  -4  999.60   32.60
   0  -2  -4 1018.60   34.20
   0   2   4 1059.59   35.40
   0   2   4  992.40   35.30
   0   2   4 1000.10   31.40
   0   2   4 1042.00   33.00
  -1  -2  -4  390.96   16.20
  -1  -2  -4  380.36   17.30
  -1  -2  -4  387.26   18.40
   1   2   4  365.26   17.60
   1   2   4  377.56   13.20
   1   2   4  388.66   16.60
   1   2   4  363.16   16.30
  -2  -2  -4  406.76   18.50
  -2  -2  -4  400.16   18.60
  -2  -2  -4  415.26   16.90
   2   2   4  412.06   18.40
   2   2   4  401.06   19.30
   2   2   4  417.56   17.40
  -3  -2  -4   16.60    5.30
  -3  -2  -4   23.30    3.50
  -3  -2  -4   22.20    5.40
   3   2   4   19.30    4.20
   3   2   4   12.50    4.10
  -4  -2  -4  196.18   13.30
   4   2   4  175.48   12.70
   4   2   4  192.38   10.80
   4   2   4  186.48    8.40
   4   2   4  176.58   11.80
   4   2   4  180.18   12.70
  -5  -2  -4  764.12   31.80
   5   2   4  694.53   29.70
   5   2   4  687.13   26.70
   5   2   4  701.53   23.90
   5   2   4  709.43   30.70
  -6  -2  -4    1.30    2.80
   6   2   4   17.10    3.70
   6   2   4   13.50    3.90
   6   2   4    8.70    4.20
   6   2   4   13.80    4.10
  -7  -2  -4    0.70    3.30
   7   2   4    0.00    1.40
   7   2   4    0.30    1.60
   7   2   4    1.80    3.10
   8   2   4  127.39   13.20
   8   2   4   94.59    8.30
   8   2   4   97.69    9.20
   9   2   4  130.39   11.00
   9   2   4  112.39   15.20
   9   2   4  106.59   12.90
  10   2   4   19.10    8.30
  10   2   4   13.10    4.80
  10   2   4    9.70    5.80
  11   2   4   -0.70    3.20
  11   2   4    3.20    3.70
  11   2   4    4.30    6.60
  12   2   4    0.20    3.60
  12   2   4    3.90    5.70
  12   2   4    1.60    3.20
  13   2   4    4.10    3.90
  13   2   4    0.60    4.00
  13   2   4   -3.20    5.10
  14   2   4   88.49   20.70
  14   2   4   76.79   11.30
  15   2   4  146.89   19.40
  15   2   4   95.89   20.90
  15   2   4  113.69   15.30
 -14   3   4    2.70    5.40
 -14   3   4   -0.70    4.50
 -13   3   4   14.50    8.20
 -13   3   4    8.50    6.30
  12  -3  -4  256.17   14.20
 -12   3   4  207.38   21.80
 -12   3   4  251.77   22.00
  11  -3  -4    2.20    1.20
  11  -3  -4    3.10    2.50
 -11   3   4    2.20    3.90
 -11   3   4    5.60    6.20
  10  -3  -4   57.69    7.90
  10  -3  -4   52.39    4.00
  10  -3  -4   51.59    5.80
 -10   3   4   59.09   12.60
 -10   3   4   73.79   11.20
 -10   3   4   53.99    5.90
   9  -3  -4    3.10    2.70
   9  -3  -4    3.00    1.60
   9  -3  -4    2.70    1.90
  -9   3   4    1.30    3.20
  -9   3   4    3.90    4.80
  -9   3   4    7.20    3.00
   8  -3  -4  117.79    5.90
   8  -3  -4  122.99    9.30
  -8   3   4  135.99   13.60
  -8   3   4  106.09    8.00
  -8   3   4  115.19   13.10
   7  -3  -4  457.55   14.40
   7  -3  -4  443.96   19.50
   7  -3  -4  436.86   14.70
  -7   3   4  481.15   25.80
  -7   3   4  437.56   25.10
  -7   3   4  458.65   18.70
   6  -3  -4  468.45   14.00
   6  -3  -4  459.45   14.10
   6  -3  -4  484.75   19.80
  -6   3   4  479.35   19.30
  -6   3   4  481.95   25.50
  -6   3   4  556.44   26.60
   5  -3  -4  216.38    6.70
   5  -3  -4  213.78   11.40
   5  -3  -4  215.18    6.80
  -5   3   4  224.88   15.30
  -5   3   4  231.88   11.40
  -5   3   4  204.38   14.70
   4  -3  -4   95.69    6.90
   4  -3  -4   84.69    3.80
  -4   3   4   99.19    9.20
  -4   3   4   91.59    6.80
  -4   3   4   79.39    8.70
  -4   3   4   83.59    3.90
   3  -3  -4   29.90    4.60
   3  -3  -4   39.80    5.80
   3  -3  -4   23.60    3.70
   3  -3  -4   29.00    2.60
  -3   3   4   21.60    5.80
  -3   3   4   27.70    5.80
  -3   3   4   28.60    3.90
   2  -3  -4 1233.98   43.60
   2  -3  -4 1255.77   40.60
   2  -3  -4 1225.08   43.10
   2  -3  -4 1276.67   37.80
  -2   3   4 1237.68   38.30
  -2   3   4 1347.57   42.70
  -2   3   4 1327.17   41.40
  -2   3   4 1307.57   44.50
   1  -3  -4  301.07   12.80
   1  -3  -4  304.07   15.40
   1  -3  -4  293.37   14.00
  -1   3   4  321.27   13.40
  -1   3   4  288.17   19.30
  -1   3   4  318.27   14.30
  -1   3   4  307.97   15.80
   0  -3  -4  335.17   15.50
   0  -3  -4  337.97   14.60
   0  -3  -4  325.77   15.40
   0   3   4  337.57   16.20
   0   3   4  309.87   15.50
   0   3   4  329.27   14.90
  -1  -3  -4  965.30   34.20
  -1  -3  -4 1020.10   34.70
  -1  -3  -4 1024.00   35.30
   1   3   4 1013.40   35.00
   1   3   4 1015.20   35.00
   1   3   4 1030.90   36.10
  -2  -3  -4  507.85   20.30
  -2  -3  -4  503.35   21.70
  -2  -3  -4  496.25   21.60
   2   3   4  500.65   21.70
   2   3   4  470.65   20.20
  -3  -3  -4  413.76   20.00
  -3  -3  -4  403.36   20.10
   3   3   4  437.26   19.80
   3   3   4  451.25   19.20
   3   3   4  409.96   20.20
   3   3   4  419.16   20.60
  -4  -3  -4   42.40    6.40
   4   3   4   52.29    7.30
   4   3   4   65.19    7.20
   4   3   4   53.49    6.10
   4   3   4   58.39    7.40
  -5  -3  -4   31.50    7.30
   5   3   4   19.20    5.40
   5   3   4   23.80    4.30
   5   3   4   28.90    5.90
   5   3   4   33.90    6.40
  -6  -3  -4   34.10    8.20
   6   3   4   26.70    5.00
   6   3   4   25.30    5.90
   6   3   4   28.90    7.70
  -7  -3  -4   -1.80    2.00
   7   3   4   -4.80    1.40
   7   3   4   -0.70    1.20
   7   3   4   -2.70    1.00
  -8  -3  -4  392.36   24.90
   8   3   4  405.96   21.00
   8   3   4  374.56   19.00
   8   3   4  382.56   27.90
  -9  -3  -4   12.00    6.40
   9   3   4    0.50    3.00
   9   3   4    3.40    3.50
  10   3   4  196.78   19.10
  10   3   4  206.48   21.60
  10   3   4  247.28   17.00
  11   3   4    4.00    5.90
  11   3   4    6.30    4.40
  11   3   4   14.50    7.40
  12   3   4    3.40    6.40
  12   3   4   16.50    6.70
  12   3   4    6.70    5.80
  13   3   4   16.20   11.30
  13   3   4   17.40    7.70
  13   3   4   34.70    9.20
  14   3   4    1.00    4.00
  14   3   4   23.90   12.00
  14   3   4    1.20    3.80
  15   3   4   39.00   12.40
  15   3   4   63.89   13.50
  15   3   4   69.59   18.70
 -14   4   4    9.70    6.90
 -14   4   4    1.40    7.60
 -13   4   4  154.18   18.00
 -13   4   4  164.58   20.40
 -12   4   4    8.60    7.10
 -12   4   4    0.10    4.50
  11  -4  -4  103.59    7.50
 -11   4   4  124.89   14.60
 -11   4   4  115.69   17.80
  10  -4  -4    3.50    1.60
  10  -4  -4    8.80    2.50
  10  -4  -4    5.80    2.20
 -10   4   4    0.50    4.40
 -10   4   4    0.50    3.80
   9  -4  -4    5.70    2.30
   9  -4  -4    5.20    2.00
   9  -4  -4    3.80    2.00
   9  -4  -4    2.80    1.90
  -9   4   4    0.70    3.80
  -9   4   4    6.20    5.20
   8  -4  -4    0.30    1.40
   8  -4  -4   -0.20    1.30
   8  -4  -4    0.50    1.40
  -8   4   4    3.60    4.20
  -8   4   4    1.40    1.30
  -8   4   4    0.90    2.70
   7  -4  -4  807.32   26.50
   7  -4  -4  805.12   26.60
   7  -4  -4  802.92   25.90
  -7   4   4  805.72   36.80
  -7   4   4  824.52   37.70
  -7   4   4  830.52   25.50
   6  -4  -4   92.29    6.00
   6  -4  -4   91.49    5.90
   6  -4  -4   95.39    5.60
  -6   4   4   96.69   10.50
  -6   4   4   88.29    5.50
   5  -4  -4  353.36   13.70
   5  -4  -4  353.26   13.70
  -5   4   4  362.76   13.70
  -5   4   4  298.87   19.10
  -5   4   4  352.26   20.10
  -5   4   4  332.57   13.60
   4  -4  -4  177.38    8.80
   4  -4  -4  178.38    8.90
  -4   4   4  170.38    9.00
  -4   4   4  170.58   12.80
  -4   4   4  201.88   14.10
  -4   4   4  183.38    9.20
   3  -4  -4   35.90    5.50
   3  -4  -4   28.10    3.50
   3  -4  -4   33.10    3.70
  -3   4   4   26.10    3.60
  -3   4   4   35.20    5.70
  -3   4   4   33.20    4.10
  -3   4   4   24.20    6.00
   2  -4  -4   82.99    6.20
   2  -4  -4   71.19    7.30
   2  -4  -4   79.99    6.20
  -2   4   4   69.79    7.20
  -2   4   4   77.19    6.40
  -2   4   4   73.09    6.20
  -2   4   4   79.39    8.10
   1  -4  -4  780.92   29.80
   1  -4  -4  782.62   27.50
   1  -4  -4  779.32   27.70
  -1   4   4  771.62   28.00
  -1   4   4  783.42   30.60
  -1   4   4  801.42   28.90
  -1   4   4  784.92   30.80
   0  -4  -4    6.90    2.90
   0  -4  -4    3.70    2.30
   0  -4  -4    6.30    2.50
   0   4   4    7.50    3.30
   0   4   4    1.50    2.30
   0   4   4   10.80    3.60
  -1  -4  -4  112.19    8.80
  -1  -4  -4   88.79    7.70
   1   4   4   95.39    8.20
   1   4   4  115.29    8.30
   1   4   4   88.49    8.10
   1   4   4  103.79    8.60
  -2  -4  -4  791.82   30.50
  -2  -4  -4  728.93   28.50
   2   4   4  742.63   29.20
   2   4   4  763.62   29.30
   2   4   4  813.32   34.10
   2   4   4  801.52   30.90
  -3  -4  -4 1834.82   57.89
  -3  -4  -4 1801.22   60.29
   3   4   4 1899.51   61.69
   3   4   4 1847.12   59.79
   3   4   4 1835.52   58.79
  -4  -4  -4 1351.46   48.30
   4   4   4 1299.27   48.10
   4   4   4 1327.97   45.50
  -5  -4  -4   51.49    9.60
   5   4   4   66.79    8.70
   5   4   4   65.29    7.40
  -6  -4  -4    7.50    4.50
   6   4   4    7.80    4.40
   6   4   4    6.00    3.30
  -7  -4  -4  178.68   15.50
   7   4   4  164.48   15.20
   7   4   4  161.48   12.70
   7   4   4  176.38   11.80
  -8  -4  -4   22.50    7.90
   8   4   4   25.60    6.40
   8   4   4   21.90    7.50
  -9  -4  -4  196.88   17.90
   9   4   4  172.98   17.30
   9   4   4  206.98   15.60
 -10  -4  -4    9.00    6.10
  10   4   4    7.10    5.00
  10   4   4    7.80    4.60
 -11  -4  -4   -4.30    2.30
  11   4   4   11.00    7.20
  11   4   4   -0.60    3.80
  11   4   4   -0.60    2.40
  12   4   4    5.00    7.10
  12   4   4   40.70   10.00
  12   4   4   28.60   10.00
  13   4   4   40.20   10.30
  13   4   4   45.30   17.40
  14   4   4    6.80    6.70
  14   4   4   -3.60    5.00
  14   4   4    5.30    5.10
  15   4   4   43.70   11.60
  15   4   4   42.00   15.30
  15   4   4   28.10   11.00
 -13   5   4  206.28   23.00
 -13   5   4  206.28   20.20
 -12   5   4   52.29   13.60
 -12   5   4   86.59   13.20
 -11   5   4   62.39   12.20
 -11   5   4   67.59   14.80
  10  -5  -4   12.30    5.40
 -10   5   4   16.20    7.50
 -10   5   4   31.60    9.30
   9  -5  -4    6.20    2.70
  -9   5   4    7.60    5.20
  -9   5   4   25.00    8.50
   8  -5  -4  201.28   10.70
  -8   5   4  206.48   18.10
  -8   5   4  227.18   17.90
   7  -5  -4    1.90    1.90
  -7   5   4   -4.80    1.70
  -7   5   4    5.20    3.80
   6  -5  -4  120.19   10.00
  -6   5   4  119.89   12.50
  -6   5   4  123.19    8.50
  -6   5   4  145.59   13.00
   5  -5  -4    1.90    2.00
  -5   5   4    0.80    2.00
  -5   5   4    1.30    3.00
  -5   5   4    0.70    2.30
  -4   5   4  188.78   11.30
  -4   5   4  225.38   15.30
  -4   5   4  205.58   14.80
  -4   5   4  191.78    7.80
  -4   5   4  189.68    8.30
   3  -5  -4  108.89    8.20
  -3   5   4   94.89    9.40
  -3   5   4   86.09    9.30
  -3   5   4   85.69    6.10
  -3   5   4   93.89    5.70
  -3   5   4  117.59    8.60
   2  -5  -4 1017.80   35.60
   2  -5  -4  976.00   37.60
  -2   5   4 1088.69   38.10
  -2   5   4 1004.90   32.60
  -2   5   4 1054.59   39.10
  -2   5   4 1043.70   34.20
  -2   5   4 1030.60   36.40
   1  -5  -4   -0.80    1.40
   1  -5  -4    2.80    2.30
  -1   5   4    3.90    2.40
  -1   5   4    2.10    1.80
  -1   5   4   -0.30    2.10
  -1   5   4    0.40    1.10
  -1   5   4    4.70    2.40
   0  -5  -4  146.89   10.80
   0  -5  -4  185.78   11.90
   0   5   4  178.88   10.50
   0   5   4  182.08   12.10
   0   5   4  190.28   12.50
   0   5   4  171.98   11.00
  -1  -5  -4   67.09    7.10
  -1  -5  -4   77.69    8.00
   1   5   4   79.49    8.00
   1   5   4   82.19    7.90
   1   5   4   93.39    8.90
   1   5   4   83.69    7.60
  -2  -5  -4  256.67   14.40
  -2  -5  -4  266.87   15.90
   2   5   4  249.58   14.70
   2   5   4  241.28   14.40
   2   5   4  254.37   15.20
   2   5   4  242.58   15.50
  -3  -5  -4  146.39   11.90
   3   5   4  115.59   10.00
   3   5   4  119.89   10.80
   3   5   4  148.59   11.30
  -4  -5  -4  150.28   12.80
   4   5   4  162.58   11.90
   4   5   4  160.68   13.10
  -5  -5  -4   -0.30    2.10
   5   5   4   -1.50    1.50
   5   5   4    1.50    2.60
  -6  -5  -4   27.20    7.50
   6   5   4   22.00    7.40
   6   5   4   23.40    6.40
   7   5   4   -0.50    2.80
   7   5   4    3.80    3.30
  -8  -5  -4  132.69   14.50
   8   5   4  165.58   13.80
   8   5   4  144.49   15.40
  -9  -5  -4   82.49   11.90
   9   5   4   97.49   13.40
   9   5   4   75.89   10.20
 -10  -5  -4    3.70    4.80
  10   5   4    0.30    3.30
  10   5   4    3.30    4.20
 -11  -5  -4   -0.30    4.00
  11   5   4   -2.90    3.30
  11   5   4   -1.40    3.00
 -12  -5  -4  220.68   21.90
  12   5   4  219.58   22.30
  12   5   4  217.88   19.00
  13   5   4   39.70   12.30
  13   5   4   47.00   14.50
  13   5   4   32.10    9.80
  14   5   4   49.30   12.10
  14   5   4   61.29   17.20
  14   5   4   56.39   16.10
  15   5   4   -1.40    3.30
  15   5   4    9.10    9.80
  15   5   4    1.20    5.40
 -13   6   4    1.10    5.20
 -13   6   4   15.80    9.30
 -12   6   4  139.79   16.20
 -12   6   4  161.38   20.00
 -11   6   4    6.30    6.80
 -11   6   4   -1.30    3.40
  10  -6  -4    7.80    3.60
 -10   6   4    1.00    3.70
 -10   6   4   23.50    9.40
   9  -6  -4  106.59    8.50
   9  -6  -4  113.29    9.30
  -9   6   4  102.99   14.20
  -9   6   4  106.29   12.90
   8  -6  -4  335.27   16.90
   8  -6  -4  271.47   14.70
  -8   6   4  335.27   24.40
  -8   6   4  355.46   22.90
   7  -6  -4   66.09    7.20
  -7   6   4   56.19    6.80
  -7   6   4   70.59   10.60
   6  -6  -4   54.69    6.70
  -6   6   4   64.09    7.20
  -6   6   4   59.29    9.00
  -6   6   4   72.39   10.10
   5  -6  -4   36.20    5.60
  -5   6   4   41.80    9.40
  -5   6   4   44.80    6.20
  -5   6   4   49.20   10.30
   4  -6  -4   25.70    5.70
  -4   6   4   30.70    7.90
  -4   6   4   31.80    6.30
  -4   6   4   26.20    6.80
   3  -6  -4 1327.17   44.80
  -3   6   4 1266.97   38.70
  -3   6   4 1262.17   47.50
  -3   6   4 1209.68   44.70
  -3   6   4 1296.27   38.10
  -3   6   4 1309.27   47.40
   2  -6  -4  696.03   28.40
  -2   6   4  665.13   24.70
  -2   6   4  699.13   30.40
  -2   6   4  668.13   29.10
  -2   6   4  671.93   31.80
  -2   6   4  719.83   24.30
   1  -6  -4   37.10    5.90
  -1   6   4   37.30    7.70
  -1   6   4   23.00    5.70
  -1   6   4   35.70    6.70
  -1   6   4   42.50    4.80
  -1   6   4   34.20    4.80
   0  -6  -4   54.49    7.40
   0   6   4   63.39    6.60
   0   6   4   54.89    7.30
   0   6   4   58.79    7.50
   0   6   4   57.89    6.10
  -1  -6  -4   41.30    8.10
   1   6   4   39.40    6.00
   1   6   4   49.50    9.40
   1   6   4   36.60    5.90
   1   6   4   32.90    5.20
  -2  -6  -4   59.99    8.00
   2   6   4   69.39    8.10
   2   6   4   79.89    8.20
   2   6   4   87.79    8.70
  -3  -6  -4  110.59   11.10
   3   6   4   91.69    9.70
   3   6   4  115.69   10.30
  -4  -6  -4    9.20    4.60
   4   6   4   10.10    4.10
   4   6   4   11.20    4.90
  -5  -6  -4   21.20    6.80
   5   6   4    6.20    4.30
   5   6   4    8.90    4.00
  -6  -6  -4  436.86   25.50
   6   6   4  394.36   22.50
  -7  -6  -4  129.59   14.00
   7   6   4  139.09   12.80
   7   6   4  125.89   14.00
  -8  -6  -4  118.79   13.80
   8   6   4   87.09   10.90
   8   6   4   79.79   12.10
  -9  -6  -4   -3.70    2.80
   9   6   4    0.80    3.00
   9   6   4    6.00    4.60
 -10  -6  -4   -1.10    3.40
  10   6   4   -4.70    2.30
  10   6   4    4.90    5.90
 -11  -6  -4  144.99   17.60
  11   6   4  213.38   21.60
  11   6   4  144.59   15.50
 -12  -6  -4    6.50    6.40
  12   6   4   15.10   11.90
  12   6   4   12.40    6.80
 -13  -6  -4   96.69   16.00
  13   6   4  115.29   17.80
  13   6   4  109.39   14.80
  14   6   4   -1.00    6.50
  14   6   4    2.20    5.70
  14   6   4    1.10    4.00
  15   6   4    0.00    4.40
  15   6   4    4.40    8.20
  15   6   4    2.20    4.60
 -12   7   4    3.20    5.50
 -12   7   4    2.20    5.90
 -11   7   4   35.20   10.10
 -11   7   4   43.70   13.30
  10  -7  -4   53.79    7.40
 -10   7   4   77.79   11.60
 -10   7   4   41.70   12.20
   9  -7  -4  148.29   11.80
  -9   7   4  141.99   19.00
  -9   7   4  159.38   16.00
   8  -7  -4   76.29    8.10
   8  -7  -4   92.09    9.40
  -8   7   4   92.09   13.10
  -8   7   4   73.69   11.10
   7  -7  -4  130.49   11.00
  -7   7   4  118.69   12.80
  -7   7   4   79.39    9.30
  -7   7   4  110.19   13.50
   6  -7  -4   37.40    7.40
  -6   7   4   46.70   10.00
  -6   7   4   43.20    8.20
  -6   7   4   38.10    9.40
   5  -7  -4   45.70    7.00
  -5   7   4   30.90    8.00
  -5   7   4   38.80    7.70
  -5   7   4   38.20    8.60
   4  -7  -4   76.29    8.80
  -4   7   4   70.39    8.80
  -4   7   4   85.19   10.10
  -4   7   4   80.89   10.30
   3  -7  -4  111.09   10.60
  -3   7   4  107.69   10.70
  -3   7   4   91.79   10.40
  -3   7   4  116.89    6.60
  -3   7   4  106.09    6.00
   2  -7  -4  169.78   13.20
  -2   7   4  177.28    9.90
  -2   7   4  198.08   14.20
  -2   7   4  198.88   10.70
  -2   7   4  177.78   14.00
  -2   7   4  206.38   15.00
   1  -7  -4    8.20    4.20
  -1   7   4    2.40    3.00
  -1   7   4    4.30    2.40
  -1   7   4    2.00    3.00
  -1   7   4    9.90    3.60
   0  -7  -4  180.68   14.30
   0   7   4  198.28   13.90
   0   7   4  207.08   12.90
   0   7   4  224.68   15.10
  -1  -7  -4   47.70    9.60
   1   7   4   33.50    7.10
   1   7   4   35.80    5.80
   1   7   4   34.90    7.10
  -2  -7  -4  674.23   31.70
   2   7   4  682.53   29.90
   2   7   4  670.73   29.90
  -3  -7  -4    4.80    3.90
   3   7   4    7.70    3.80
   3   7   4    7.40    4.10
  -4  -7  -4  156.88   14.40
   4   7   4  191.08   15.20
   4   7   4  167.08   13.60
  -5  -7  -4  108.99   11.40
  -5  -7  -4   98.19   12.00
   5   7   4   96.19   11.50
   5   7   4   97.69   10.80
  -6  -7  -4  239.38   18.20
  -6  -7  -4  277.97   20.50
   6   7   4  263.97   18.50
   6   7   4  285.67   21.00
  -7  -7  -4  701.53   34.80
  -7  -7  -4  747.43   37.00
   7   7   4  701.83   33.80
   7   7   4  671.43   36.40
  -8  -7  -4   26.80    8.90
   8   7   4   29.20    8.30
   8   7   4   31.50    8.50
  -9  -7  -4   79.69   12.50
   9   7   4   68.89   13.60
   9   7   4   78.19   11.20
 -10  -7  -4   96.29   14.20
  10   7   4   50.89   14.10
  10   7   4   47.30   10.80
 -11  -7  -4   86.49   17.50
  11   7   4   73.49   12.00
  11   7   4   83.09   17.80
 -12  -7  -4   32.60   13.20
  12   7   4    9.90    7.70
  12   7   4   15.80    8.20
 -13  -7  -4    0.40    5.10
  13   7   4    2.40    4.50
  13   7   4   -2.00    4.00
 -14  -7  -4   -1.40    4.50
  14   7   4    3.60    5.40
  14   7   4   -3.40    3.80
  15   7   4   -1.30    4.30
  15   7   4   -1.40    4.50
  15   7   4   -0.30    7.70
 -12   8   4   12.50    7.30
 -11   8   4   21.20    8.20
 -11   8   4   33.30   12.20
  10  -8  -4  228.98   17.90
 -10   8   4  268.57   24.70
 -10   8   4  247.18   20.40
   9  -8  -4   55.89    8.50
  -9   8   4   68.79   13.20
  -9   8   4   67.99   14.90
   8  -8  -4   52.59    9.80
  -8   8   4   49.70   11.20
  -8   8   4   59.09   13.80
   7  -8  -4   19.30    6.40
  -7   8   4    8.70    5.10
  -7   8   4   26.30    8.50
   6  -8  -4   36.60    8.20
  -6   8   4   21.60    8.30
  -6   8   4   48.20   10.30
   5  -8  -4   83.99   10.00
  -5   8   4  107.79   12.50
  -5   8   4   89.99   11.60
   4  -8  -4  112.59   11.40
  -4   8   4   78.89   10.30
  -4   8   4   83.39   11.00
   3  -8  -4   21.00    6.50
  -3   8   4   11.90    2.70
  -3   8   4   20.70    6.90
  -3   8   4   24.60    7.20
  -3   8   4   16.30    2.90
   2  -8  -4  338.27   20.60
  -2   8   4  319.17   19.90
  -2   8   4  329.27   20.60
  -2   8   4  317.97   14.80
   1  -8  -4   61.09    8.90
  -1   8   4   58.79    6.50
  -1   8   4   60.09    8.60
  -1   8   4   60.99    6.70
   0  -8  -4  288.67   19.10
   0   8   4  264.57   15.70
   0   8   4  275.27   15.70
   0   8   4  260.77   17.50
  -1  -8  -4  304.27   20.50
   1   8   4  311.87   19.30
   1   8   4  306.07   17.80
  -2  -8  -4  111.79   12.50
   2   8   4  114.09   11.20
   2   8   4  117.29   11.30
  -3  -8  -4   41.40    9.40
   3   8   4   49.40    8.00
   3   8   4   59.09    8.50
  -4  -8  -4   74.49   10.50
  -4  -8  -4   73.09    9.30
   4   8   4   79.19   10.00
   4   8   4   63.19    9.50
  -5  -8  -4  293.37   20.20
  -5  -8  -4  331.27   22.90
   5   8   4  329.57   21.00
  -6  -8  -4    1.20    4.10
  -6  -8  -4    5.00    4.80
   6   8   4    1.80    3.70
  -7  -8  -4   42.80   11.20
  -7  -8  -4   31.10    8.80
   7   8   4   33.60    9.30
   7   8   4   53.59   12.90
  -8  -8  -4   -2.20    2.80
  -8  -8  -4    1.50    3.90
   8   8   4    3.70    4.10
   8   8   4    0.80    3.00
  -9  -8  -4   71.09   15.10
   9   8   4   46.40   11.90
   9   8   4   41.80   11.40
 -10  -8  -4  153.68   18.20
  10   8   4  184.28   20.40
  10   8   4  187.18   18.20
 -11  -8  -4    8.50    6.40
  11   8   4    0.70    4.30
  11   8   4    1.40    4.30
 -12  -8  -4   25.60   10.60
  12   8   4   12.40    7.70
  12   8   4   27.00   11.90
 -13  -8  -4   -1.50    4.50
  13   8   4   -1.60    4.00
  13   8   4   -4.30    4.10
 -14  -8  -4   -2.30    5.60
  14   8   4    3.30    7.70
  14   8   4    2.70    5.80
 -11   9   4   95.49   20.00
 -11   9   4   60.69   12.30
 -10   9   4    3.10    4.30
 -10   9   4    3.40    5.70
   9  -9  -4   21.10    6.60
  -9   9   4   52.69   11.30
  -9   9   4   20.00    9.30
   8  -9  -4   90.89   11.20
  -8   9   4   74.79   14.80
  -8   9   4   65.79   12.90
   7  -9  -4   16.70    6.80
  -7   9   4   -2.20    3.30
  -7   9   4    9.50    5.60
   6  -9  -4    9.20    5.40
  -6   9   4    1.10    3.70
  -6   9   4    3.00    5.20
   5  -9  -4  543.95   28.30
  -5   9   4  431.06   26.60
  -5   9   4  487.35   29.60
   4  -9  -4  153.28   14.70
  -4   9   4  163.38   15.60
  -4   9   4  192.28   16.90
   3  -9  -4  115.19   12.80
  -3   9   4  129.59    6.70
  -3   9   4  130.09   13.60
  -3   9   4  121.79    6.30
   2  -9  -4   -1.30    2.90
  -2   9   4   -1.00    3.10
  -2   9   4    3.30    2.20
  -2   9   4   -0.60    2.90
  -2   9   4    0.60    1.80
   1  -9  -4  156.78   15.30
  -1   9   4  212.08   16.30
  -1   9   4  169.18   12.50
  -1   9   4  206.58   12.70
   0  -9  -4    8.80    5.70
   0   9   4   -0.60    2.50
   0   9   4   -0.10    2.90
   0   9   4   -0.10    1.90
  -1  -9  -4  193.98   17.40
   1   9   4  189.38   14.20
   1   9   4  211.78   24.00
  -2  -9  -4   68.39   13.30
   2   9   4   53.29    8.40
   2   9   4   47.70    9.60
  -3  -9  -4    1.80    3.70
   3   9   4    2.80    4.00
   3   9   4    2.10    3.10
  -4  -9  -4  198.58   15.90
  -4  -9  -4  157.88   16.40
   4   9   4  185.38   15.90
   4   9   4  178.88   16.00
  -5  -9  -4  106.89   12.10
  -5  -9  -4   83.09   12.30
   5   9   4   91.99   11.50
  -6  -9  -4   47.60   11.50
  -6  -9  -4   49.80   10.40
   6   9   4   48.30   10.60
  -7  -9  -4   21.00    8.10
  -7  -9  -4   25.60    8.40
   7   9   4   20.90    8.40
  -8  -9  -4    0.00    3.50
  -8  -9  -4    9.20    6.10
   8   9   4    5.10    4.70
   8   9   4   12.00    6.70
  -9  -9  -4  100.69   13.90
  -9  -9  -4  106.69   15.10
   9   9   4  116.09   14.60
   9   9   4  104.99   15.60
 -10  -9  -4   16.10    9.00
  10   9   4    5.70    6.10
  10   9   4   26.60    9.70
 -11  -9  -4   24.50    9.90
  11   9   4   33.20   11.00
  11   9   4   19.70    9.10
 -12  -9  -4    7.60    7.60
  12   9   4   13.60    7.70
  12   9   4    5.70    6.20
 -13  -9  -4    3.30    4.70
  13   9   4    3.70    4.80
  13   9   4    3.90    7.40
 -14  -9  -4    5.30    7.80
  14   9   4    9.70    7.80
  14   9   4   -2.80    5.10
 -10  10   4   54.09   14.50
 -10  10   4   37.50   10.40
   9 -10  -4    9.30    5.70
  -9  10   4   17.30    9.00
  -9  10   4   21.30    8.90
   8 -10  -4    3.80    4.30
  -8  10   4    1.70    4.70
  -8  10   4    3.50    4.90
   7 -10  -4   37.20    9.60
  -7  10   4   11.80    6.20
  -7  10   4   14.20    8.20
   6 -10  -4   27.60    8.40
  -6  10   4    9.30    7.30
  -6  10   4   14.40    7.00
   5 -10  -4  247.08   19.80
  -5  10   4  229.98   18.90
  -5  10   4  237.78   20.80
   4 -10  -4  100.99   12.80
  -4  10   4  105.09   13.30
  -4  10   4   95.09   12.20
   3 -10  -4    4.90    5.20
  -3  10   4    6.30    4.30
  -3  10   4    4.90    1.60
  -3  10   4    6.90    4.80
   2 -10  -4   67.29   10.70
  -2  10   4   63.79    6.60
  -2  10   4   64.29    6.50
  -2  10   4   61.79   12.00
  -2  10   4   62.49    9.70
   1 -10  -4    8.10    5.40
  -1  10   4    4.20    2.90
  -1  10   4    6.90    4.60
  -1  10   4    9.80    4.00
   0 -10  -4  279.27   21.70
   0  10   4  285.97   17.60
   0  10   4  310.57   20.80
  -1 -10  -4   -0.70    3.60
   1  10   4   24.30    7.60
   1  10   4    7.30    4.40
  -2 -10  -4  117.89   14.40
   2  10   4  117.59   12.70
   2  10   4   86.49   10.70
  -3 -10  -4  242.18   20.90
   3  10   4  226.88   18.30
   3  10   4  232.78   18.40
  -4 -10  -4   27.20    7.70
  -4 -10  -4   37.50   10.50
   4  10   4   28.30    8.30
   4  10   4   34.60    8.80
  -5 -10  -4  237.68   19.10
  -5 -10  -4  250.27   21.60
   5  10   4  263.17   20.30
  -6 -10  -4    2.40    4.00
  -6 -10  -4    4.20    5.60
   6  10   4   18.00    7.60
  -7 -10  -4   30.70    9.20
  -7 -10  -4   16.40    8.10
   7  10   4   19.40    7.80
  -8 -10  -4    7.80    5.50
  -8 -10  -4   -0.30    3.80
   8  10   4    3.90    5.30
  -9 -10  -4   14.50    7.60
  -9 -10  -4   25.60   10.10
   9  10   4   25.50    9.60
   9  10   4   18.30    8.50
 -10 -10  -4   54.69   14.30
  10  10   4   46.00   14.20
  10  10   4   37.10   11.50
 -11 -10  -4   62.19   16.10
  11  10   4   37.80   11.80
  11  10   4   66.19   15.20
 -12 -10  -4    3.80    6.70
  12  10   4    4.40    6.00
  12  10   4   10.20    6.60
 -13 -10  -4    3.10    7.20
  13  10   4   -2.70    4.00
  13  10   4    7.90    6.30
  -9  11   4    8.20    7.70
  -9  11   4    5.40    5.40
   8 -11  -4   13.90    6.90
  -8  11   4    6.20    5.30
  -8  11   4    7.30    6.70
   7 -11  -4    0.60    4.60
  -7  11   4   12.30    7.60
  -7  11   4    3.30    4.40
   6 -11  -4  261.87   21.80
  -6  11   4  296.67   24.80
  -6  11   4  282.07   21.80
   5 -11  -4    2.30    4.60
  -5  11   4   -3.90    2.70
  -5  11   4   -4.70    2.80
   4 -11  -4   74.49   12.10
  -4  11   4   77.69   11.80
  -4  11   4   61.49   12.90
   3 -11  -4   39.30   10.40
  -3  11   4   53.79   12.10
  -3  11   4   67.89   12.90
   2 -11  -4   42.00   11.10
  -2  11   4   45.70   10.50
  -2  11   4   23.60    5.30
  -2  11   4   26.50    5.20
  -2  11   4   39.70   10.40
   1 -11  -4   76.89   15.20
  -1  11   4   71.39   13.10
  -1  11   4   55.59    7.10
  -1  11   4   47.90    7.20
   0 -11  -4    1.50    4.10
   0  11   4    2.30    2.90
   0  11   4   -2.20    2.80
  -1 -11  -4    5.10    5.20
   1  11   4   10.60    4.50
   1  11   4   -3.70    2.90
  -2 -11  -4   33.80   10.30
   2  11   4   50.09   11.10
   2  11   4   57.29   13.50
  -3 -11  -4   11.10    6.90
   3  11   4   18.30    7.20
   3  11   4    3.00    4.20
  -4 -11  -4  150.58   17.60
  -4 -11  -4  161.08   15.30
   4  11   4  161.28   16.40
   4  11   4  138.69   15.40
  -5 -11  -4   96.09   14.50
  -5 -11  -4  164.78   16.00
   5  11   4  149.69   16.00
  -6 -11  -4   20.20    9.00
  -6 -11  -4   16.00    7.10
   6  11   4    6.60    6.40
  -7 -11  -4    2.60    5.80
  -7 -11  -4    2.60    4.20
   7  11   4   -1.50    3.30
  -8 -11  -4   72.39   15.00
  -8 -11  -4   36.90   13.80
   8  11   4   70.29   14.90
   8  11   4  109.79   24.00
  -9 -11  -4   13.00    8.50
  -9 -11  -4   11.30    7.10
   9  11   4    6.80    5.70
   9  11   4    6.10    6.20
 -10 -11  -4   30.30   11.40
  10  11   4   14.60    9.50
  10  11   4   40.50   12.70
 -11 -11  -4   11.50    8.30
  11  11   4    1.30    6.10
  11  11   4    4.80    5.60
 -12 -11  -4   -4.10    4.20
  12  11   4   -2.10    3.90
  12  11   4   -1.40    3.80
 -13 -11  -4    9.80    9.60
  13  11   4   12.60   13.00
  13  11   4   22.30   10.10
   8 -12  -4    3.20    5.50
  -8  12   4    2.00    6.50
  -8  12   4    1.00    4.40
   7 -12  -4  205.38   20.20
  -7  12   4  168.28   20.30
  -7  12   4  215.98   19.10
   6 -12  -4    4.30    5.70
  -6  12   4   -2.40    4.00
  -6  12   4    1.90    4.30
   5 -12  -4   94.19   14.30
  -5  12   4  106.79   15.60
  -5  12   4  106.69   13.90
   4 -12  -4    8.30    6.80
  -4  12   4    5.50    6.00
  -4  12   4   16.10    7.40
   3 -12  -4   11.00    6.50
  -3  12   4   24.10    9.40
  -3  12   4   13.50    6.50
   2 -12  -4   35.70   11.40
  -2  12   4   35.70   10.20
  -2  12   4   26.80    8.90
  -2  12   4   34.00    5.10
   1 -12  -4  221.08   21.20
  -1  12   4  233.88   15.00
  -1  12   4  226.08   19.50
   0 -12  -4   26.50   10.20
   0  12   4   23.20    8.30
   0  12   4    5.60    3.70
  -1 -12  -4   68.49   15.40
   1  12   4   39.90   10.90
   1  12   4   55.39   11.90
  -2 -12  -4   85.69   14.10
   2  12   4   89.59   12.50
   2  12   4   72.39   10.50
  -3 -12  -4   90.59   17.70
   3  12   4   83.79   11.80
   3  12   4   89.79   12.60
  -4 -12  -4   25.40    9.80
   4  12   4   10.10    5.50
   4  12   4   33.00    9.70
  -5 -12  -4   41.20   12.10
  -5 -12  -4   37.50   10.10
   5  12   4   38.10   10.60
   5  12   4   33.10    9.70
  -6 -12  -4   18.70    7.80
  -6 -12  -4    3.30    5.80
   6  12   4    2.90    4.60
   6  12   4   10.30    7.10
  -7 -12  -4   17.50    8.10
  -7 -12  -4   31.40   11.40
   7  12   4   34.20   11.10
   7  12   4   31.10   10.30
  -8 -12  -4   16.70    8.60
  -8 -12  -4   16.20    7.80
   8  12   4    2.00    5.10
   8  12   4   17.50    8.00
  -9 -12  -4    3.20    4.50
  -9 -12  -4   15.40    9.00
   9  12   4   22.30    9.30
   9  12   4   12.60    7.70
 -10 -12  -4   17.80    9.20
  10  12   4    8.10    6.60
  10  12   4   14.30    8.10
 -11 -12  -4    4.00    6.60
  11  12   4    0.10    5.50
  11  12   4   11.10    7.30
 -12 -12  -4    3.90    6.10
  12  12   4   -0.80    7.60
  -7  13   4   53.99   12.30
   6 -13  -4   19.90    9.00
  -6  13   4   14.10    8.00
  -6  13   4   10.20    8.20
   5 -13  -4   -3.20    3.70
  -5  13   4   25.30    8.90
  -5  13   4   10.40    6.70
   4 -13  -4   11.30    7.30
  -4  13   4   49.10   12.80
  -4  13   4   42.50   11.60
   3 -13  -4    3.30    5.60
  -3  13   4   -1.00    3.90
  -3  13   4   12.30    6.50
   2 -13  -4  121.09   17.00
  -2  13   4  113.49   14.60
  -2  13   4  113.59   15.10
  -2  13   4   99.49    8.10
   1 -13  -4   30.60   11.10
  -1  13   4   11.20    4.70
  -1  13   4    7.50    6.30
  -1  13   4    7.80    5.90
   0 -13  -4   93.69   17.90
   0  13   4   55.29    8.70
   0  13   4   60.99   13.30
  -1 -13  -4   14.90    8.00
   1  13   4   18.00    7.10
   1  13   4    5.20    5.50
  -2 -13  -4    7.80    6.10
   2  13   4    2.70    4.10
   2  13   4    7.60    5.40
  -3 -13  -4  135.49   18.50
   3  13   4  134.89   15.40
   3  13   4  142.79   16.40
   4  13   4   64.29   14.00
   4  13   4   66.59   14.30
  -5 -13  -4   -0.40    4.00
   5  13   4   -7.10    4.10
   5  13   4    3.20    3.90
  -6 -13  -4   36.80   13.00
  -6 -13  -4   33.10   11.40
   6  13   4    8.10    6.70
   6  13   4   23.80    9.70
  -7 -13  -4   19.40    9.80
  -7 -13  -4   61.39   14.50
   7  13   4   43.60   13.20
   7  13   4   31.40   10.80
  -8 -13  -4   47.80   15.10
  -8 -13  -4   36.30   11.50
   8  13   4   33.90   12.20
   8  13   4   48.90   13.70
  -9 -13  -4    5.90    7.20
   9  13   4   20.50    9.00
   9  13   4    7.30    6.80
 -10 -13  -4    1.00    6.10
  10  13   4   -2.90    4.60
  10  13   4    0.20    4.20
 -11 -13  -4    3.70    9.00
  11  13   4   -1.40    7.50
   6 -14  -4   36.30   12.60
  -6  14   4   62.19   19.50
  -6  14   4   12.10    8.20
   5 -14  -4    6.70    7.40
  -5  14   4    7.90    8.00
  -5  14   4    8.80    6.60
   4 -14  -4   -1.40    5.20
  -4  14   4    1.30    4.20
  -4  14   4   -3.20    3.90
   3 -14  -4   43.40   12.60
  -3  14   4   51.79   12.80
  -3  14   4   88.99   17.70
   2 -14  -4   14.40    8.80
  -2  14   4    2.30    5.60
  -2  14   4    3.30    4.20
   1 -14  -4   27.10   10.90
  -1  14   4   43.80    8.60
  -1  14   4   43.60   11.30
  -1  14   4   33.40   10.90
   0 -14  -4    1.10    3.90
   0  14   4   -1.80    3.70
  -1 -14  -4   84.29   17.50
   1  14   4  101.29   14.50
   1  14   4  125.99   13.90
  -2 -14  -4   10.00    8.00
   2  14   4   -3.40    5.40
   2  14   4    2.30    4.10
  -3 -14  -4   47.00   13.70
   3  14   4   31.90   10.80
   3  14   4   49.00   12.20
  -4 -14  -4   -0.80    5.20
   4  14   4   -4.40    2.70
   4  14   4   -3.40    3.50
  -5 -14  -4    0.40    4.80
   5  14   4   10.00    7.30
  -6 -14  -4   63.09   17.30
   6  14   4   71.79   15.20
   6  14   4  101.69   18.90
  -7 -14  -4   19.30   10.20
   7  14   4    5.90    6.80
   7  14   4   10.10    7.90
  -8 -14  -4   31.60   11.70
   8  14   4   35.90   12.30
   8  14   4   25.40   10.30
  -9 -14  -4   21.60    9.90
   9  14   4   27.50   12.50
   9  14   4   14.50    8.70
 -10 -14  -4    2.80    8.40
  10  14   4   -4.70    4.40
   4 -15  -4    3.00    7.20
  -4  15   4   11.00    8.50
  -4  15   4    7.00    7.20
   3 -15  -4   52.29   15.20
  -3  15   4   23.20    9.70
  -3  15   4   35.70   15.90
   2 -15  -4    0.00    5.10
  -2  15   4   12.30    8.20
  -2  15   4    4.60    5.90
   1 -15  -4    5.40    7.00
  -1  15   4   19.80    9.20
  -1  15   4   12.70    8.30
   0 -15  -4   37.20   12.80
   0  15   4   28.80   10.80
   0  15   4   44.50    9.40
  -1 -15  -4   -3.00    4.00
   1  15   4   -0.80    3.60
   1  15   4    5.70    6.30
  -2 -15  -4  152.18   21.00
   2  15   4  178.38   19.70
   2  15   4  149.29   16.70
  -3 -15  -4    5.90    7.20
   3  15   4    9.90    7.00
   3  15   4   13.40    7.50
  -4 -15  -4   14.80    9.10
   4  15   4    2.00    5.60
   4  15   4    3.90    5.20
  -5 -15  -4    2.40    6.00
   5  15   4    2.10    5.10
   5  15   4    6.50    6.80
  -6 -15  -4   84.39   19.90
   6  15   4   74.69   17.20
   6  15   4   72.69   16.50
  -7 -15  -4    4.90    6.90
   7  15   4   25.10   12.20
   7  15   4    5.60    6.70
   8  15   4   15.60    9.80
   8  15   4   14.40   10.30
   1 -16  -4    5.10    6.30
  -1  16   4    4.90    6.20
  -1  16   4    0.60    4.90
   0 -16  -4    8.20    7.90
   0  16   4   13.40   11.00
   0  16   4    2.00    5.10
  -1 -16  -4   39.40   13.60
   1  16   4   48.70   12.90
  -2 -16  -4    5.10    7.20
   2  16   4    9.10    6.50
   2  16   4    7.10    7.00
  -3 -16  -4    9.50    7.90
   3  16   4   12.60    8.30
   3  16   4    1.60    4.90
  -4 -16  -4    1.80    6.00
   4  16   4   17.40    8.40
   4  16   4   -0.60    4.60
   5  16   4   11.90    8.00
   5  16   4   -1.40    4.00
  -6 -16  -4   56.19   17.30
   6  16   4   37.70   12.60
   6  16   4   49.70   15.20
   6  14  -5   -0.80    4.40
  -6 -14   5    3.80    5.50
  -6 -14   5   -0.30    7.80
   5  14  -5    0.60    4.30
  -5 -14   5   11.70    7.40
  -5 -14   5    9.20   10.20
   4  14  -5   12.60    6.80
  -4 -14   5    0.60    4.40
  -4 -14   5    5.70    7.80
   3  14  -5   17.00    8.20
  -3 -14   5   19.40   12.10
  -3 -14   5   11.10    8.10
   2  14  -5   16.90    7.60
  -2 -14   5   21.60    9.40
  -2 -14   5    7.60    8.10
  -1 -14   5   17.70    9.00
  -1 -14   5    3.60    8.20
   0 -14   5   -0.80    6.00
   0 -14   5   -1.80    3.60
   2 -14   5   83.99   21.50
   8  13  -5   11.70    8.50
  -8 -13   5   17.80   10.70
  -8 -13   5    1.20    6.80
   7  13  -5   10.50    6.60
  -7 -13   5    4.70    6.50
  -7 -13   5   -1.40    5.00
   6  13  -5    5.40    5.20
  -6 -13   5    0.40    4.40
  -6 -13   5   -1.40    5.10
   5  13  -5   -2.40    3.10
  -5 -13   5    4.00    5.60
  -5 -13   5    5.00    6.50
   4  13  -5   56.69   12.50
  -4 -13   5   29.80   11.30
  -4 -13   5   39.90   14.40
   3  13  -5   14.00    6.10
  -3 -13   5   32.70   12.00
  -3 -13   5   10.40    8.50
   2  13  -5  121.99   13.30
  -2 -13   5  136.89   21.10
  -2 -13   5  113.29   16.30
   1  13  -5   -2.00    2.70
  -1 -13   5   -4.90    4.30
   0 -13   5   43.80   15.30
   0 -13   5   16.00    7.80
   1 -13   5  107.79   14.60
   1 -13   5  145.69   28.10
   2 -13   5   15.20   10.30
   2 -13   5    9.80    6.00
   3 -13   5   15.10   10.60
   3 -13   5   35.90   12.10
  -4  13  -5    6.90    6.00
   4 -13   5   12.70   14.60
  10  12  -5   -5.40    4.20
 -10 -12   5    3.30    5.80
 -10 -12   5   -2.80    4.50
   9  12  -5    1.60    5.00
  -9 -12   5   10.40    8.50
  -9 -12   5    4.50    6.60
   8  12  -5   51.29   14.20
  -8 -12   5   54.59   14.60
  -8 -12   5   74.89   17.60
   7  12  -5    6.60    6.00
  -7 -12   5   10.50    7.60
  -7 -12   5   -1.10    4.80
   6  12  -5   28.00    9.50
  -6 -12   5   40.70   13.80
  -6 -12   5   47.30   13.00
   5  12  -5   44.00   10.80
  -5 -12   5   57.69   14.40
  -5 -12   5   61.89   15.60
   4  12  -5   -2.60    2.80
  -4 -12   5    1.00    4.30
  -4 -12   5    7.20    6.80
   3  12  -5  175.98   16.10
  -3 -12   5  180.98   29.70
  -3 -12   5  165.38   22.10
   2  12  -5    8.60    5.00
  -2 -12   5   -1.10    3.10
  -2 -12   5   25.00   11.80
   1  12  -5   33.10   11.10
  -1 -12   5    5.60    6.90
  -1 -12   5   28.40   10.50
   0  12  -5   13.40    4.90
   0 -12   5    9.00    5.40
   0 -12   5   12.40    9.30
  -1  12  -5   48.40    6.50
   1 -12   5   48.30   11.20
   1 -12   5   47.00   15.20
   2 -12   5   56.69   12.70
   2 -12   5   66.59   17.60
   3 -12   5   53.49   11.60
   3 -12   5   51.79   16.20
  -4  12  -5    8.20    6.40
   4 -12   5    1.70    4.10
   4 -12   5   23.10   12.40
  -5  12  -5    5.70    6.10
   5 -12   5   -2.30    5.20
  -6  12  -5   38.20   11.20
   6 -12   5   21.50   12.50
 -11 -11   5   28.40   11.50
 -11 -11   5    4.10    7.30
 -10 -11   5   -1.60    4.50
 -10 -11   5   -2.10    4.20
  -9 -11   5   21.80    9.80
  -9 -11   5   33.30   12.40
  -8 -11   5   18.90   10.10
  -8 -11   5   15.70    9.10
  -7 -11   5   -0.10    5.00
  -7 -11   5   -0.50    3.20
   6  11  -5    2.80    4.10
  -6 -11   5   11.80    8.90
  -6 -11   5   14.00    8.10
   5  11  -5    2.00    3.90
  -5 -11   5   -1.50    6.50
   4  11  -5   91.49   12.00
  -4 -11   5   65.29   16.60
  -4 -11   5   46.40   12.70
   3  11  -5  137.39   13.70
  -3 -11   5  142.69   19.40
  -3 -11   5  123.39   16.10
   2  11  -5    9.50    4.90
  -2 -11   5   24.80   11.70
  -2 -11   5   15.80    7.70
   1  11  -5    0.90    2.60
  -1 -11   5   -2.50    3.60
  -1 -11   5    5.30    5.20
   0  11  -5   99.79    9.30
   0 -11   5  101.99   25.30
   0 -11   5   77.49   12.40
  -1  11  -5   34.70    5.00
   1 -11   5   52.69   15.50
   1 -11   5   53.59   11.90
   2 -11   5  107.59   13.30
   2 -11   5  103.19   21.00
   3 -11   5   -3.20    7.50
   3 -11   5    2.10    3.50
  -4  11  -5   -1.70    3.70
   4 -11   5   -2.70    4.60
   4 -11   5    2.30    3.50
   5 -11   5    6.00    5.00
   5 -11   5   10.20    9.30
  -6  11  -5  102.59   14.30
   6 -11   5   77.99   19.30
  -7  11  -5   18.90    8.90
   7 -11   5   19.00   11.80
  -8  11  -5    5.30    5.40
 -12 -10   5    1.40    5.10
 -12 -10   5    1.90    5.10
 -11 -10   5    1.20    5.00
 -11 -10   5   -0.90    4.30
 -10 -10   5   28.30   11.50
 -10 -10   5   54.39   13.70
  -9 -10   5   79.89   18.10
  -9 -10   5   58.69   16.50
  -8 -10   5   -0.50    5.20
  -8 -10   5    5.70    6.00
  -7 -10   5   -2.30    2.80
  -7 -10   5    8.00    6.30
  -6 -10   5   70.79   15.60
  -6 -10   5   99.59   15.50
  -5 -10   5    9.50    6.70
  -5 -10   5   -0.40    4.40
   4  10  -5   19.50    6.80
  -4 -10   5   29.30   10.00
  -4 -10   5   20.40    9.60
   3  10  -5   31.70    7.80
  -3 -10   5   13.20    8.30
  -3 -10   5   33.20   10.00
   2  10  -5    9.50    4.40
  -2 -10   5   10.00    7.50
  -2 -10   5    5.50    4.80
   1  10  -5  155.78   12.30
  -1 -10   5  147.39   16.40
  -1 -10   5  158.98   19.90
   0  10  -5   19.70    4.90
   0 -10   5   10.50    6.40
   0 -10   5    5.90    6.80
  -1  10  -5   96.79    8.50
  -1  10  -5   74.79    6.70
   1 -10   5  101.39   12.90
   1 -10   5   86.59   18.40
   2 -10   5   24.50    7.70
   2 -10   5   15.00    8.70
   3 -10   5    1.60    7.30
   3 -10   5   -0.70    2.80
  -4  10  -5   -1.20    2.70
   4 -10   5   -0.60    3.20
   4 -10   5    0.60    5.20
  -5  10  -5   74.89   11.40
   5 -10   5   65.09    9.40
   5 -10   5   74.59   18.80
  -6  10  -5    4.90    4.40
   6 -10   5    0.50    2.90
   6 -10   5    0.70    6.50
  -7  10  -5  103.59   14.20
   7 -10   5   85.39   20.40
  -8  10  -5    8.50    6.70
   8 -10   5    9.30   10.00
  -9  10  -5    2.70    5.50
   9 -10   5   -3.80    6.90
 -12  -9   5    0.10    5.00
 -12  -9   5   -1.70    4.20
 -11  -9   5   -1.00    4.30
 -11  -9   5   -1.20    4.00
 -10  -9   5  106.39   16.10
 -10  -9   5   75.59   18.10
 -10  -9   5   85.39   17.00
  -9  -9   5   18.00    8.80
  -9  -9   5   12.20    7.30
  -9  -9   5   -1.00    4.50
  -8  -9   5   14.40    8.60
  -8  -9   5    2.90    4.70
  -8  -9   5   15.00    7.60
  -7  -9   5   59.49   14.50
  -7  -9   5   62.29   15.30
  -7  -9   5   50.69   12.60
  -6  -9   5    7.50    6.10
  -6  -9   5   -1.30    3.10
  -5  -9   5  168.88   18.70
  -5  -9   5  173.48   18.80
  -4  -9   5    3.70    5.10
  -4  -9   5   34.70   11.90
  -3  -9   5   73.49   15.30
  -3  -9   5   83.89   17.10
   2   9  -5    2.40    3.70
  -2  -9   5    1.90    4.10
  -2  -9   5    2.90    5.20
   1   9  -5  247.18   15.00
  -1  -9   5  217.68   19.50
  -1  -9   5  237.48   23.00
   0   9  -5  179.88   11.70
   0   9  -5  176.58   12.60
   0  -9   5  200.68   21.20
   0  -9   5  164.38   16.60
  -1   9  -5  130.69    8.60
  -1   9  -5  116.09    8.60
   1  -9   5  111.19   16.70
   1  -9   5  117.19   13.60
  -2   9  -5    3.80    1.40
   2  -9   5    9.70    5.30
   2  -9   5    4.10    6.00
   3  -9   5   26.00   11.00
  -4   9  -5  106.09   12.10
   4  -9   5   84.79   19.50
   4  -9   5   96.59   11.40
  -5   9  -5    9.30    5.50
   5  -9   5   10.30    4.70
   5  -9   5   -0.30    5.40
  -6   9  -5   65.89   12.20
   6  -9   5   39.70    8.50
   6  -9   5   63.39   17.80
  -7   9  -5   -3.10    2.50
   7  -9   5    0.50    2.80
   7  -9   5   -0.90    7.00
  -8   9  -5   29.30    9.50
   8  -9   5   11.50   10.00
   9  -9   5  105.59   23.00
 -10   9  -5   53.59   12.70
  10  -9   5  118.39   25.30
 -13  -8   5    2.80    6.40
 -13  -8   5    1.90    6.90
 -13  -8   5    5.10    5.40
 -12  -8   5   15.80    9.50
 -12  -8   5   18.70    8.10
 -12  -8   5   25.70   10.70
 -11  -8   5   80.49   17.60
 -11  -8   5   63.79   14.80
 -11  -8   5   54.09   12.50
 -10  -8   5    6.80    5.90
 -10  -8   5    6.70    6.60
 -10  -8   5    0.40    4.50
  -9  -8   5   57.69   15.40
  -9  -8   5   45.60   11.40
  -9  -8   5   57.09   20.80
  -8  -8   5    1.10    4.00
  -8  -8   5    3.70    5.40
  -8  -8   5   11.50    6.50
  -7  -8   5  197.18   19.10
  -7  -8   5  172.08   19.10
  -7  -8   5  169.58   17.40
  -6  -8   5   12.70    7.30
  -6  -8   5    7.50    5.20
  -6  -8   5   14.90    7.30
  -5  -8   5   96.59   12.00
  -5  -8   5   81.99   12.90
  -5  -8   5   93.69   13.40
  -4  -8   5    3.50    4.50
  -4  -8   5    3.40    4.90
  -4  -8   5    6.20    4.30
  -3  -8   5  100.79   13.50
  -3  -8   5  100.99   14.20
  -2  -8   5   93.39   12.90
  -2  -8   5  125.69   15.50
   1   8  -5   -1.00    1.90
  -1  -8   5   -3.90    1.80
  -1  -8   5    1.10    4.00
   0   8  -5  146.79   10.90
   0   8  -5  165.68   10.60
   0  -8   5  140.59   14.70
   0  -8   5  177.68   19.10
  -1   8  -5  105.19    7.80
  -1   8  -5   99.19    7.20
   1  -8   5  102.39   15.00
   1  -8   5  137.99   17.10
  -2   8  -5    2.10    1.50
  -2   8  -5    1.60    1.10
   2  -8   5    6.80    6.10
   2  -8   5    0.70    3.40
   3  -8   5   46.30   10.10
   3  -8   5   55.09   13.60
   4  -8   5   71.79   10.00
   4  -8   5   71.89   16.80
  -5   8  -5   56.59   10.70
   5  -8   5   38.50    8.70
   5  -8   5   20.40    9.80
  -6   8  -5   33.80    9.00
   6  -8   5   47.50    9.60
   6  -8   5   31.80   12.20
  -7   8  -5   14.30    6.20
   7  -8   5   -0.70    2.70
  -8   8  -5    8.80    5.40
   8  -8   5    4.00    3.40
   8  -8   5   15.50    9.20
  -9   8  -5  140.69   15.20
   9  -8   5  127.99   20.70
 -10   8  -5   26.40    8.60
  10  -8   5   58.99   17.30
 -11   8  -5   39.60   11.10
  11  -8   5   60.89   18.70
 -13  -7   5   64.49   15.80
 -13  -7   5   39.00    9.80
 -13  -7   5   27.50   10.30
 -12  -7   5   24.50    8.20
 -12  -7   5   25.20   11.20
 -12  -7   5   28.30   11.00
 -11  -7   5   93.39   17.70
 -11  -7   5  104.09   13.20
 -11  -7   5   94.29   18.90
 -10  -7   5   17.90    6.80
 -10  -7   5   16.40    8.00
 -10  -7   5    4.00    8.30
  -9  -7   5   23.40    8.80
  -9  -7   5    8.00    7.00
  -9  -7   5   16.60    6.80
  -8  -7   5   13.40    6.80
  -8  -7   5   20.20    7.60
  -8  -7   5   48.00   12.90
  -7  -7   5   35.10    9.40
  -7  -7   5   33.70    9.80
  -7  -7   5   26.50    8.20
  -6  -7   5  306.57   21.80
  -6  -7   5  286.87   22.10
  -6  -7   5  298.57   24.00
  -5  -7   5   22.70    7.90
  -5  -7   5   20.20    7.90
  -5  -7   5   16.20    6.00
  -4  -7   5  168.98   17.10
  -4  -7   5  165.58   15.50
  -4  -7   5  159.28   16.30
  -3  -7   5  176.78   14.10
  -3  -7   5  199.68   18.40
  -3  -7   5  190.48   17.60
  -2  -7   5   20.70    7.70
  -2  -7   5   57.29   12.40
  -2  -7   5   37.10    7.30
   1   7  -5   66.19    7.80
  -1  -7   5   58.39   12.20
  -1  -7   5   80.19   15.30
   0  -7   5   27.80    9.80
   0  -7   5   29.20    8.40
  -1   7  -5    1.00    1.80
  -1   7  -5    2.30    1.80
   1  -7   5   -3.80    3.20
   1  -7   5    7.40    4.40
  -2   7  -5    6.10    2.20
  -2   7  -5    8.20    1.70
   2  -7   5    5.90    5.30
   2  -7   5    9.80    5.40
   3  -7   5  423.26   31.00
   3  -7   5  475.05   26.00
   4  -7   5   90.69   14.60
   4  -7   5   92.99   10.90
  -5   7  -5  152.68   15.50
   5  -7   5  148.89   13.40
   5  -7   5  160.08   19.90
  -6   7  -5    9.40    4.80
   6  -7   5   21.40    6.60
   6  -7   5    8.50    7.10
  -7   7  -5   18.20    5.80
   7  -7   5   32.10    7.60
   7  -7   5   17.70    9.60
  -8   7  -5   23.40    7.50
   8  -7   5   18.40   10.30
   8  -7   5   13.90    5.30
  -9   7  -5   11.90    5.80
   9  -7   5    5.40    4.00
   9  -7   5   -0.70    5.10
 -10   7  -5   16.60    6.80
  10  -7   5    6.80    8.50
 -11   7  -5    0.20    4.20
  11  -7   5    1.20    7.10
 -14  -6   5   25.80   11.10
 -13  -6   5    8.10    6.40
 -13  -6   5    2.50    4.20
 -13  -6   5   13.00    6.00
 -12  -6   5  197.88   21.90
 -12  -6   5  190.58   21.50
 -12  -6   5  198.88   16.80
 -11  -6   5   21.70    8.80
 -11  -6   5   19.50    7.10
 -11  -6   5   16.50    8.70
 -10  -6   5   27.80    8.50
 -10  -6   5   43.00   12.00
 -10  -6   5   21.10    8.70
  -9  -6   5   20.90    8.10
  -9  -6   5   29.40   10.40
  -9  -6   5   13.90    6.60
  -8  -6   5   17.30    6.70
  -8  -6   5   14.10    8.00
  -8  -6   5   33.30    9.60
  -7  -6   5   72.79   14.60
  -7  -6   5  100.09   11.90
  -7  -6   5   65.79   10.50
  -6  -6   5   40.50   11.00
  -6  -6   5   39.20    9.70
  -6  -6   5   47.10    9.80
  -5  -6   5   79.29   10.90
  -5  -6   5   81.19   12.20
  -5  -6   5  126.39   12.60
  -4  -6   5   20.20    5.90
  -4  -6   5   11.20    6.00
  -4  -6   5    1.00    3.80
  -3  -6   5   33.70    9.40
  -3  -6   5   35.70    8.10
  -2  -6   5  703.33   35.40
  -2  -6   5  675.73   34.10
  -2  -6   5  692.53   29.30
   1   6  -5  442.46   21.00
  -1  -6   5  447.76   20.50
  -1  -6   5  460.35   26.40
  -1  -6   5  410.76   26.60
   0   6  -5    2.30    2.00
   0  -6   5    3.40    3.50
   0  -6   5    3.20    2.30
   0  -6   5    4.70    4.60
  -1   6  -5  174.28    9.80
  -1   6  -5  192.38    9.30
   1  -6   5  174.78   15.20
   1  -6   5  159.18   24.90
  -2   6  -5  121.79    5.30
   2  -6   5  115.19   14.80
   2  -6   5  120.59   12.30
   3  -6   5   54.59    8.40
   3  -6   5   68.79   14.70
  -4   6  -5  325.17   17.90
   4  -6   5  334.87   20.80
   4  -6   5  310.17   25.70
  -5   6  -5    0.30    2.20
   5  -6   5    4.80    6.30
   5  -6   5    4.40    4.00
  -6   6  -5   60.49    8.10
   6  -6   5   37.70    8.40
   6  -6   5   53.99   14.30
  -7   6  -5   -0.70    2.30
   7  -6   5    4.70    4.30
   7  -6   5    1.90    6.20
  -8   6  -5  181.28   14.90
   8  -6   5  218.88   23.90
   8  -6   5  180.88   14.60
  -9   6  -5    3.20    3.60
   9  -6   5    3.20    3.90
   9  -6   5   12.80    8.80
 -10   6  -5    7.10    5.00
  10  -6   5    4.60    3.80
  10  -6   5   -0.40    6.20
 -11   6  -5   46.40   10.40
  11  -6   5   45.60   15.90
 -12   6  -5   13.10    6.80
  12  -6   5   22.90   13.20
 -14  -5   5   -4.50    3.40
 -14  -5   5   -5.00    3.90
 -13  -5   5   85.59   18.40
 -13  -5   5   76.39   10.10
 -13  -5   5   73.49   17.00
 -12  -5   5   -0.50    4.70
 -12  -5   5    1.60    3.80
 -11  -5   5   64.69   11.40
 -11  -5   5   89.89   17.00
 -11  -5   5   55.89   13.70
 -10  -5   5   15.40    5.80
 -10  -5   5   21.00    8.80
 -10  -5   5   16.60    7.50
  -9  -5   5   28.90    9.10
  -9  -5   5   45.10    9.10
  -9  -5   5   48.00   12.40
  -8  -5   5  328.07   23.80
  -8  -5   5  309.17   24.00
  -8  -5   5  361.96   21.30
  -7  -5   5  273.87   22.30
  -7  -5   5  306.67   21.90
  -7  -5   5  309.67   19.70
  -6  -5   5   -2.70    2.80
  -6  -5   5    6.80    4.20
  -6  -5   5    5.30    5.00
  -5  -5   5   84.89   10.50
  -5  -5   5  126.79   12.50
  -5  -5   5  103.49   12.80
  -4  -5   5   63.09    9.20
  -4  -5   5   60.49   12.20
  -4  -5   5   47.30    7.60
  -3  -5   5  181.38   15.00
  -3  -5   5  176.28   13.20
  -3  -5   5  150.38   14.60
   2   5  -5  666.33   28.40
  -2  -5   5  634.74   32.20
  -2  -5   5  677.23   33.10
  -2  -5   5  678.33   28.20
   1   5  -5  285.67   15.40
  -1  -5   5  248.38   19.30
  -1  -5   5  301.87   15.60
  -1  -5   5  303.07   20.00
   0   5  -5   83.89    7.20
   0  -5   5  110.99   12.80
   0  -5   5   94.99    7.60
   0  -5   5  108.99   11.70
  -1   5  -5   12.50    3.10
   1  -5   5   15.00    3.20
   1  -5   5   17.30    6.00
   1  -5   5   26.60    8.30
  -2   5  -5  250.67    8.70
  -2   5  -5  231.48   11.20
   2  -5   5  258.77   17.80
   2  -5   5  233.98   19.70
   3  -5   5   28.80    7.50
  -4   5  -5   60.69    6.70
   4  -5   5   51.29    8.00
   4  -5   5   47.70   11.30
  -5   5  -5   70.89    7.70
   5  -5   5   62.79   14.00
   5  -5   5   67.39    9.10
  -6   5  -5    3.80    3.30
   6  -5   5    1.60    4.70
   6  -5   5   12.80    5.80
  -7   5  -5  542.95   25.70
   7  -5   5  564.64   28.50
   7  -5   5  559.44   37.10
  -8   5  -5    2.80    3.30
   8  -5   5   16.30    8.50
   8  -5   5    6.30    4.70
  -9   5  -5   19.80    6.30
   9  -5   5   18.40    9.60
   9  -5   5   20.50    7.00
 -10   5  -5   13.20    5.90
  10  -5   5   13.60   11.10
  10  -5   5    2.60    3.70
 -11   5  -5   14.90    6.30
  11  -5   5    5.70    4.50
  11  -5   5    5.40    8.40
 -12   5  -5   24.80    8.10
  12  -5   5   26.30   12.60
 -13   5  -5   17.50    8.70
  13  -5   5   34.70   15.10
 -14  -4   5   13.50    8.00
 -14  -4   5    8.10    6.40
  13   4  -5   64.39   12.30
 -13  -4   5   97.69   15.80
 -13  -4   5   76.79   15.60
 -12  -4   5    4.70    5.50
 -12  -4   5   -0.80    4.40
 -12  -4   5    2.40    3.80
 -11  -4   5   48.20    8.90
 -11  -4   5   34.70   12.00
 -11  -4   5   18.90    7.90
 -10  -4   5   80.59   15.80
 -10  -4   5   78.89   12.60
 -10  -4   5   70.39    8.60
  -9  -4   5  149.79   16.40
  -9  -4   5  162.58   16.70
  -9  -4   5  118.89   11.10
  -8  -4   5  381.56   25.40
  -8  -4   5  332.17   24.10
  -8  -4   5  335.47   19.30
   7   4  -5  174.68   21.20
  -7  -4   5  173.38   13.30
  -7  -4   5  178.98   16.90
  -7  -4   5  162.78   15.60
   6   4  -5   31.20    7.90
  -6  -4   5   32.60    9.10
  -6  -4   5   34.20    7.40
  -6  -4   5   43.10    9.90
   5   4  -5   32.10    7.30
  -5  -4   5   45.60    7.00
  -5  -4   5   38.60    8.60
  -5  -4   5   27.10    8.20
   4   4  -5   12.10    5.10
  -4  -4   5   -2.00    2.30
  -4  -4   5    2.40    3.10
  -4  -4   5   -1.60    1.80
   3   4  -5   82.09    9.50
  -3  -4   5   79.79    8.80
  -3  -4   5   81.49   10.40
  -3  -4   5   75.69    9.10
   2   4  -5  721.83   37.30
   2   4  -5  792.12   31.30
  -2  -4   5  815.82   31.70
  -2  -4   5  821.42   35.10
  -2  -4   5  779.12   35.50
   1   4  -5  174.78   11.50
  -1  -4   5  183.08   11.60
  -1  -4   5  164.88   14.10
  -1  -4   5  187.18   15.10
   0   4  -5   51.69    5.50
   0  -4   5   50.29    8.10
   0  -4   5   54.19    5.50
   0  -4   5   55.49    8.80
  -1   4  -5  809.02   28.10
   1  -4   5  875.01   28.40
   1  -4   5  882.91   36.90
   1  -4   5  917.31   39.90
  -2   4  -5    2.80    1.30
   2  -4   5    1.70    2.80
   2  -4   5    1.50    3.60
   2  -4   5    0.80    0.90
   3  -4   5  212.98   15.60
   3  -4   5  216.68   18.60
  -4   4  -5   43.60    5.20
   4  -4   5   55.59   13.40
   4  -4   5   50.39    7.80
  -5   4  -5   -0.50    1.80
   5  -4   5    0.70    2.90
   5  -4   5    0.70    4.00
  -6   4  -5   51.29    6.40
   6  -4   5   85.99   16.70
   6  -4   5   52.89    8.40
  -7   4  -5   14.20    4.70
   7  -4   5   11.90    5.10
   7  -4   5   11.30    7.40
  -8   4  -5  219.38   15.00
   8  -4   5  242.48   17.70
   8  -4   5  245.58   24.10
  -9   4  -5   22.10    6.60
   9  -4   5   20.00    9.80
   9  -4   5   32.70    8.40
 -10   4  -5   54.49   10.20
  10  -4   5   49.00   10.40
  10  -4   5   56.39   16.20
 -11   4  -5   44.10    9.40
  11  -4   5   37.10   14.60
 -12   4  -5   39.00    9.50
  12  -4   5   15.80    6.90
  12  -4   5   60.79   17.30
 -13   4  -5    2.20    4.90
  13  -4   5    7.10    8.70
 -14  -3   5   75.99   17.60
 -14  -3   5   85.79   16.30
 -13  -3   5   28.20   11.70
 -13  -3   5   13.80    7.60
  12   3  -5   37.50    8.00
 -12  -3   5   52.49   12.70
 -12  -3   5   53.89   13.40
 -11  -3   5    6.50    6.70
 -11  -3   5   14.10    4.70
 -11  -3   5   14.50    7.60
  10   3  -5    0.90    3.20
 -10  -3   5    3.90    5.00
 -10  -3   5    3.00    2.90
 -10  -3   5    3.10    4.80
   9   3  -5  133.69   11.90
  -9  -3   5  156.48   16.40
  -9  -3   5  139.29   15.30
  -9  -3   5  158.38   11.30
   8   3  -5  386.76   20.60
  -8  -3   5  376.56   24.90
  -8  -3   5  378.96   25.20
  -8  -3   5  384.06   18.90
  -7  -3   5   18.60    6.70
  -7  -3   5   34.00   11.40
  -7  -3   5   36.70    6.70
   6   3  -5    6.60    4.00
  -6  -3   5    3.70    2.90
  -6  -3   5   15.10    6.20
  -6  -3   5    7.50    4.80
   5   3  -5  582.94   26.00
  -5  -3   5  548.75   27.80
  -5  -3   5  578.04   29.50
  -5  -3   5  555.54   24.80
   4   3  -5  280.37   16.70
  -4  -3   5  287.17   19.30
  -4  -3   5  319.47   18.60
  -4  -3   5  275.37   16.30
   3   3  -5  264.07   17.10
  -3  -3   5  255.17   15.80
  -3  -3   5  236.38   15.20
  -3  -3   5  283.97   18.70
   2   3  -5  245.68   13.80
   2   3  -5  248.08   14.50
   2   3  -5  247.68   15.80
  -2  -3   5  212.38   16.00
  -2  -3   5  242.28   14.30
  -2  -3   5  227.38   15.30
   1   3  -5   27.00    6.90
   1   3  -5   24.10    5.10
  -1  -3   5   24.80    6.50
  -1  -3   5   18.60    5.70
  -1  -3   5   20.70    4.80
   0   3  -5  332.17   19.90
   0   3  -5  329.67   19.90
   0   3  -5  365.76   15.70
   0  -3   5  356.86   15.70
   0  -3   5  325.57   20.00
   0  -3   5  298.37   19.00
  -1   3  -5   76.89    9.00
  -1   3  -5   89.59    6.20
   1  -3   5   84.59    9.50
   1  -3   5  102.39    6.60
   1  -3   5  100.79   11.00
  -2   3  -5  935.31   28.50
  -2   3  -5  891.31   37.20
   2  -3   5 1002.80   39.10
   2  -3   5  968.10   41.70
   2  -3   5  948.01   28.80
  -3   3  -5    4.40    3.20
   3  -3   5    8.90    5.30
   3  -3   5    3.00    3.00
  -4   3  -5   27.20    3.70
   4  -3   5   32.60    9.10
   4  -3   5   25.10    7.20
  -5   3  -5   32.00    4.40
   5  -3   5   27.10    8.70
   5  -3   5   22.20    6.90
  -6   3  -5   79.59    7.10
   6  -3   5   62.19    8.90
   6  -3   5   91.59   13.30
  -7   3  -5    0.30    2.10
   7  -3   5    0.30    3.10
   7  -3   5    3.70    5.00
  -8   3  -5   70.29    7.90
   8  -3   5   84.69   10.60
   8  -3   5   89.29   14.80
  -9   3  -5   70.19    8.40
   9  -3   5   72.89   10.30
   9  -3   5   58.89   15.40
 -10   3  -5   53.99    7.90
  10  -3   5   91.59   20.20
 -11   3  -5  118.69   12.00
  11  -3   5   79.79   17.80
  11  -3   5   67.09   10.70
 -12   3  -5   12.90    5.60
  12  -3   5   20.10    8.20
  12  -3   5    9.00    8.90
 -13   3  -5   -1.60    4.00
  13  -3   5    6.90    8.70
  13  -3   5   -1.90    3.90
  14  -3   5    4.80    8.00
 -15  -2   5   29.30   10.10
 -15  -2   5    3.40   10.10
 -14  -2   5   31.10   13.80
 -14  -2   5   11.10    8.10
 -13  -2   5   91.59   17.60
 -13  -2   5   85.89   12.90
  12   2  -5    6.00    3.50
 -12  -2   5    3.60    3.80
 -12  -2   5    1.60    5.50
  11   2  -5  139.89   10.80
 -11  -2   5  141.59   15.60
 -11  -2   5  142.59   17.10
  10   2  -5  114.89    9.80
 -10  -2   5  138.49   16.00
 -10  -2   5  147.29   15.10
   9   2  -5   77.39    7.90
  -9  -2   5   74.19   11.60
  -9  -2   5  106.89   12.80
  -9  -2   5   79.69    6.90
   8   2  -5   17.60    4.60
  -8  -2   5   21.00    7.30
  -8  -2   5   20.40    4.40
   7   2  -5    4.30    2.90
  -7  -2   5   -0.70    2.90
  -7  -2   5    5.80    4.40
  -7  -2   5    5.70    2.80
   6   2  -5  384.36   18.30
  -6  -2   5  392.06   23.30
  -6  -2   5  436.06   24.70
  -6  -2   5  406.46   17.80
   5   2  -5   37.40    5.20
  -5  -2   5   36.30    4.90
  -5  -2   5   44.80    7.30
  -5  -2   5   46.20    9.60
   4   2  -5  875.41   31.90
  -4  -2   5  844.52   36.50
  -4  -2   5  826.12   30.90
  -4  -2   5  859.51   35.30
   3   2  -5  335.07   17.10
   3   2  -5  302.27   16.30
   3   2  -5  349.87   18.50
  -3  -2   5  317.47   16.30
  -3  -2   5  324.57   19.70
  -3  -2   5  313.27   17.70
   2   2  -5  302.07   16.30
   2   2  -5  268.47   17.50
   2   2  -5  299.57   15.30
   2   2  -5  286.57   15.80
  -2  -2   5  284.37   18.00
  -2  -2   5  302.37   16.40
  -2  -2   5  305.97   16.40
   1   2  -5    2.20    2.40
   1   2  -5    0.40    1.50
   1   2  -5    1.10    2.10
   1   2  -5    4.90    2.40
  -1  -2   5   -0.50    2.40
  -1  -2   5    7.50    3.00
  -1  -2   5    1.90    2.60
   0   2  -5   19.60    5.50
   0   2  -5   27.30    4.90
   0   2  -5   20.30    6.20
   0  -2   5   26.30    6.70
   0  -2   5   17.30    3.90
   0  -2   5   16.90    4.70
  -1   2  -5    0.40    2.50
  -1   2  -5    1.60    2.70
  -1   2  -5    4.90    2.10
   1  -2   5    3.20    1.80
   1  -2   5   -2.10    1.60
   1  -2   5    4.90    3.60
  -2   2  -5 1056.29   40.40
  -2   2  -5 1106.09   45.10
  -2   2  -5 1063.29   32.50
   2  -2   5 1098.09   41.50
   2  -2   5 1058.89   43.30
   2  -2   5 1058.39   33.00
  -3   2  -5   52.19    3.90
  -3   2  -5   51.49    3.40
  -3   2  -5   48.80    6.80
   3  -2   5   60.29    8.00
   3  -2   5   53.29    8.90
   3  -2   5   47.00    3.60
  -4   2  -5   66.99    8.10
  -4   2  -5   78.49    5.40
   4  -2   5   88.19   11.40
   4  -2   5   85.09    4.30
   4  -2   5   70.59    8.80
  -5   2  -5  283.67   12.70
   5  -2   5  247.68   17.20
   5  -2   5  257.77    9.20
   5  -2   5  289.07    9.60
   5  -2   5  276.77   21.40
  -6   2  -5   92.69    7.20
   6  -2   5   68.69   16.20
   6  -2   5  119.99   11.80
   6  -2   5  103.29    4.90
  -7   2  -5  354.16   16.60
   7  -2   5  345.47   21.60
   7  -2   5  335.07   12.10
   7  -2   5  340.17   12.50
   7  -2   5  326.27   25.70
  -8   2  -5   11.40    4.10
   8  -2   5    1.50    1.50
   8  -2   5    8.50    6.20
   8  -2   5    5.40    1.80
   8  -2   5   10.40    5.20
  -9   2  -5   32.50    6.70
   9  -2   5   41.30    9.80
   9  -2   5   27.20    3.80
   9  -2   5   25.90    3.40
   9  -2   5   13.50    8.60
 -10   2  -5  165.78   13.20
  10  -2   5  179.48   16.50
  10  -2   5  162.48    9.70
  10  -2   5  171.58    9.90
  10  -2   5  183.78   21.90
 -11   2  -5  245.68   23.20
  11  -2   5  220.28   19.10
  11  -2   5  211.78   11.00
  11  -2   5  206.58   24.30
 -12   2  -5    0.00    3.80
  12  -2   5   -0.30    6.10
  12  -2   5   -1.10    3.30
  13  -2   5    3.20    6.90
  13  -2   5    2.10    4.30
  14  -2   5   10.60   10.10
 -15  -1   5   57.29   16.20
 -15  -1   5   54.59   12.90
 -14  -1   5   21.40    8.00
 -14  -1   5   27.50   10.70
 -13  -1   5   81.99   17.30
 -13  -1   5   42.50   10.20
 -12  -1   5   72.89   11.20
 -12  -1   5   73.79   18.10
  11   1  -5   49.00    4.90
  11   1  -5   41.30    4.60
 -11  -1   5   54.69   13.00
 -11  -1   5   39.20   10.00
  10   1  -5  650.63   23.60
  10   1  -5  678.93   24.10
 -10  -1   5  653.73   36.90
 -10  -1   5  662.73   33.60
   9   1  -5   10.00    3.00
   9   1  -5   11.30    3.10
  -9  -1   5    8.90    5.80
  -9  -1   5   17.40    7.00
   8   1  -5    6.40    2.60
  -8  -1   5    9.50    5.00
  -8  -1   5   11.60    5.70
  -8  -1   5   10.10    2.50
  -8  -1   5    7.50    4.50
   7   1  -5   98.39    6.80
  -7  -1   5  100.89   11.90
  -7  -1   5  101.49   11.30
  -7  -1   5   96.79    6.10
  -7  -1   5   99.29   11.20
   6   1  -5  110.89    7.10
  -6  -1   5  116.39   12.00
  -6  -1   5  103.19   10.90
  -6  -1   5  101.39   11.00
  -6  -1   5  111.39    6.60
   5   1  -5  206.88   10.40
  -5  -1   5  224.88   15.80
  -5  -1   5  178.18   13.70
  -5  -1   5  208.98    9.90
  -5  -1   5  184.28   14.70
   4   1  -5  273.07   12.70
   4   1  -5  241.58   18.60
  -4  -1   5  266.27   17.20
  -4  -1   5  269.47   15.70
  -4  -1   5  235.08   16.10
  -4  -1   5  266.17   12.30
   3   1  -5   84.09    9.10
   3   1  -5   85.19    8.50
   3   1  -5   72.89    6.50
   3   1  -5   73.69    7.30
  -3  -1   5   83.29    6.70
  -3  -1   5   89.29    8.90
  -3  -1   5   86.59    9.40
   2   1  -5   94.09    8.50
   2   1  -5   93.99    9.40
   2   1  -5  104.69    8.10
   2   1  -5  119.69    8.50
  -2  -1   5  120.79   10.70
  -2  -1   5   98.99    8.10
  -2  -1   5  101.69    9.20
   1   1  -5  436.86   19.90
   1   1  -5  466.35   20.90
   1   1  -5  501.15   23.40
   1   1  -5  470.85   18.40
  -1  -1   5  468.65   22.90
  -1  -1   5  464.45   20.40
  -1  -1   5  480.35   21.10
   0   1  -5  416.06   20.40
   0   1  -5  431.06   21.40
   0   1  -5  427.56   16.00
   0   1  -5  423.46   17.90
   0  -1   5  454.95   21.20
   0  -1   5  426.16   18.20
   0  -1   5  392.56   21.10
  -1   1  -5  168.68    7.60
  -1   1  -5  193.58    9.90
  -1   1  -5  172.28   12.50
   1  -1   5  183.38   13.50
   1  -1   5  172.98   12.90
   1  -1   5  163.68    9.50
  -2   1  -5    4.70    3.50
  -2   1  -5    4.60    1.90
  -2   1  -5    0.20    1.60
   2  -1   5    0.70    1.90
   2  -1   5    2.60    1.50
   2  -1   5    0.40    2.70
  -3   1  -5   37.20    7.30
  -3   1  -5   24.40    2.90
  -3   1  -5   23.30    2.00
   3  -1   5   22.30    5.60
   3  -1   5   24.20    6.80
   3  -1   5   21.90    3.10
  -4   1  -5  256.47   15.90
  -4   1  -5  259.87    9.80
   4  -1   5  265.87   11.30
   4  -1   5  295.07   19.90
   4  -1   5  257.47   16.90
  -5   1  -5  374.76   14.00
   5  -1   5  424.86   25.50
   5  -1   5  356.36   14.10
   5  -1   5  352.56   14.10
   5  -1   5  359.26   21.10
  -6   1  -5  162.38    9.30
   6  -1   5  163.68    8.50
   6  -1   5  157.58   16.30
   6  -1   5  168.08    9.00
   6  -1   5  186.08   14.90
  -7   1  -5   17.50    4.00
   7  -1   5   13.80    6.10
   7  -1   5   37.40   10.50
   7  -1   5   16.00    3.80
   7  -1   5   19.30    3.90
  -8   1  -5   53.19    6.30
   8  -1   5   57.39    6.00
   8  -1   5   57.09   11.20
   8  -1   5   65.19    5.80
   8  -1   5   72.49   14.60
  -9   1  -5   37.20    7.00
   9  -1   5   53.59   12.90
   9  -1   5   40.00    5.90
   9  -1   5   35.80    4.80
   9  -1   5   28.80   10.10
 -10   1  -5   68.79    8.30
  10  -1   5   58.79   15.50
  10  -1   5   71.19    6.90
  10  -1   5   47.90    6.60
  10  -1   5   75.19   11.10
  11  -1   5   17.50    7.50
  11  -1   5   11.30    4.00
  11  -1   5   16.90   10.00
  12  -1   5   67.99    7.70
  12  -1   5  100.19   14.00
  12  -1   5   85.19   21.70
  13  -1   5   24.20    9.10
  13  -1   5   11.20    8.10
  13  -1   5   14.90    6.20
  14  -1   5   18.40   12.00
  14  -1   5    7.70    7.00
 -14   0   5   26.30   11.00
 -14   0   5   31.40    9.00
 -13   0   5    6.80    6.20
 -13   0   5   -0.30    2.90
 -12   0   5   18.70    9.00
 -12   0   5   23.00    7.50
 -12   0   5   13.10   12.60
 -11   0   5  122.39   13.10
 -11   0   5  146.69   17.20
 -11   0   5  141.99   16.70
 -10   0   5  114.49   14.40
 -10   0   5   96.59   13.40
  -9   0   5   23.30    8.50
  -9   0   5   26.00    8.40
  -9   0   5   37.20    8.60
  -8   0   5    2.60    3.60
  -8   0   5    6.50    5.40
  -8   0   5    4.10    3.50
  -7   0   5   56.29    8.30
  -7   0   5   71.09   10.10
  -7   0   5   50.69    8.20
  -6   0   5   23.40    6.80
  -6   0   5   14.30    5.60
  -6   0   5   23.80    6.40
   5   0  -5 1107.49   43.20
   5   0  -5 1138.59   31.30
  -5   0   5 1162.08   43.30
  -5   0   5 1119.59   44.50
  -5   0   5 1164.88   43.30
   4   0  -5   91.89    7.30
   4   0  -5  103.29   10.00
  -4   0   5  109.29   10.20
  -4   0   5  106.99    5.10
  -4   0   5   87.89    8.90
  -4   0   5  110.79   10.50
   3   0  -5  318.07   18.10
   3   0  -5  344.07   16.90
   3   0  -5  357.96   13.70
  -3   0   5  352.66   17.30
  -3   0   5  341.57   18.80
  -3   0   5  333.27   18.40
  -3   0   5  336.77   13.30
   2   0  -5  169.58    9.60
   2   0  -5  190.98   10.80
   2   0  -5  171.58   12.50
   2   0  -5  188.08   12.20
  -2   0   5  155.78   10.10
  -2   0   5  175.08    9.60
  -2   0   5  171.18   12.50
  -2   0   5  215.58   12.90
   1   0  -5 1437.16   46.40
   1   0  -5 1732.53   60.19
   1   0  -5 1413.26   47.30
   1   0  -5 1462.25   44.60
  -1   0   5 1442.76   48.10
  -1   0   5 1408.86   46.50
  -1   0   5 1430.76   46.90
  -1   0   5 1406.96   49.99
   0   0  -5  327.67   16.50
   0   0  -5  366.86   16.20
   0   0  -5  316.57   12.70
   0   0   5  333.07   17.00
   0   0   5  344.67   18.40
   0   0   5  342.97   16.00
  -1   0  -5    1.80    1.70
  -1   0  -5    0.10    1.80
  -1   0  -5   -0.10    1.80
   1   0   5    4.70    3.00
   1   0   5    1.80    1.80
   1   0   5    5.60    2.50
   1   0   5    2.30    2.70
  -2   0  -5  189.48    9.70
  -2   0  -5  200.78   13.20
   2   0   5  167.08   12.70
   2   0   5  187.98   13.80
   2   0   5  174.98   11.80
  -3   0  -5   69.19    5.40
  -3   0  -5   63.09    7.50
   3   0   5   78.49    6.00
   3   0   5   77.79    8.20
   3   0   5   83.89    9.00
   3   0   5   62.99    8.90
  -4   0  -5 1244.58   37.90
  -4   0  -5 1129.89   44.00
   4   0   5 1281.07   46.50
   4   0   5 1245.48   49.20
   5   0   5  756.12   36.60
   5   0   5  740.73   26.10
   5   0   5  763.12   26.10
   5   0   5  724.43   32.70
   6   0   5  100.79    7.60
   6   0   5   92.09   10.50
   6   0   5  108.79   13.40
   6   0   5  107.29    7.60
   7   0   5   44.80   10.00
   7   0   5   19.00    4.50
   7   0   5   32.20    4.50
   8   0   5   40.50    5.20
   8   0   5   35.10   10.60
   8   0   5   46.60    9.70
   8   0   5   43.10    5.90
   9   0   5  396.76   18.90
   9   0   5  432.46   21.20
   9   0   5  448.86   27.10
   9   0   5  446.96   20.20
   9   0   5  490.85   33.30
  10   0   5   36.20   10.40
  10   0   5   23.40   10.10
  10   0   5   33.00    6.50
  11   0   5    0.10    4.80
  11   0   5   -2.40    2.80
  11   0   5    1.80    2.70
  12   0   5    0.40    4.80
  12   0   5    0.40    3.40
  12   0   5    1.50    3.00
  13   0   5    3.50    3.70
  13   0   5    9.50    9.80
  13   0   5    3.60    4.40
  14   0   5   16.80    9.00
  14   0   5   54.09   17.40
 -14   1   5   10.40    8.20
 -14   1   5    4.00    6.30
 -14   1   5   29.30   13.10
 -13   1   5   18.40    9.40
 -13   1   5   15.50    6.00
 -13   1   5   21.60    9.00
 -12   1   5  101.19   15.10
 -12   1   5   97.79   11.30
 -12   1   5  106.49   18.70
 -11   1   5  185.38   14.90
 -11   1   5  162.68   18.40
 -11   1   5  216.78   20.20
 -10   1   5   41.80   10.70
 -10   1   5   40.40   11.00
 -10   1   5   23.60    7.00
  -9   1   5   31.10    9.20
  -9   1   5   29.10    7.10
  -9   1   5   24.00    7.70
  -8   1   5   -2.00    1.90
  -8   1   5    2.80    4.40
  -8   1   5    3.80    4.40
  -7   1   5  525.65   33.10
  -7   1   5  546.15   25.80
  -7   1   5  532.75   28.10
   6  -1  -5   29.00    6.90
  -6   1   5   25.80    6.50
  -6   1   5   25.60    7.10
  -6   1   5   24.10    7.60
   5  -1  -5  226.08   14.80
  -5   1   5  241.78   16.80
  -5   1   5  212.98   14.90
  -5   1   5  232.68   14.80
   4  -1  -5  269.97   16.00
  -4   1   5  275.77   16.00
  -4   1   5  255.57   16.50
  -4   1   5  272.47   15.90
   3  -1  -5  246.58   13.60
   3  -1  -5  272.47   15.60
   3  -1  -5  257.77   15.50
  -3   1   5  250.87   14.10
  -3   1   5  244.68   14.80
  -3   1   5  248.08    8.50
  -3   1   5  234.48    8.20
  -3   1   5  259.97   15.70
   2  -1  -5  163.68    9.80
   2  -1  -5  172.18   11.50
   2  -1  -5  168.28   11.70
  -2   1   5  167.08   11.90
  -2   1   5  165.38   10.20
  -2   1   5  155.78    8.20
  -2   1   5  157.48    7.60
  -2   1   5  171.88   11.90
   1  -1  -5  306.37   13.60
   1  -1  -5  305.17   18.00
   1  -1  -5  326.47   17.00
  -1   1   5  356.86   17.80
  -1   1   5  307.17   16.20
  -1   1   5  331.47   14.60
  -1   1   5  311.07   13.40
   0  -1  -5  866.51   33.10
   0  -1  -5  886.01   31.10
   0  -1  -5  835.82   27.00
   0   1   5  865.91   29.80
   0   1   5  884.61   33.80
   0   1   5  865.21   27.40
   0   1   5  865.71   31.60
  -1  -1  -5  156.98    9.60
  -1  -1  -5  122.69   11.70
   1   1   5  171.58   11.80
   1   1   5  169.48   10.30
   1   1   5  153.18    6.50
   1   1   5  171.78   10.60
  -2  -1  -5  188.28   13.00
  -2  -1  -5  211.58   11.10
   2   1   5  193.28   13.60
   2   1   5  216.28   14.30
   2   1   5  227.78   11.80
  -3  -1  -5 1770.42   61.19
  -3  -1  -5 1884.11   56.49
   3   1   5 1913.31   62.99
   3   1   5 1918.91   64.49
   3   1   5 1824.82   61.29
   3   1   5 1949.10   57.29
  -4  -1  -5   48.00    4.90
  -4  -1  -5   38.10    7.80
   4   1   5   43.60    8.80
   4   1   5   47.40    9.50
   4   1   5   50.19    5.30
   5   1   5 1087.59   42.60
   5   1   5 1027.90   30.60
   5   1   5 1092.69   45.40
   5   1   5 1041.70   35.70
   6   1   5    1.40    3.90
   6   1   5    2.20    3.60
   6   1   5    3.90    1.50
   6   1   5    6.40    2.70
   6   1   5    5.10    3.20
   7   1   5   99.59   11.70
   7   1   5  117.99    9.00
   7   1   5   96.09    6.80
   7   1   5  106.69    8.90
   7   1   5   99.89   14.60
   8   1   5   29.70    8.20
   8   1   5   34.70    6.50
   8   1   5   23.70    9.10
   8   1   5   27.50    4.50
   9   1   5  103.29   15.40
   9   1   5   98.59    8.20
   9   1   5   95.99    9.10
   9   1   5   88.69   12.10
  10   1   5   73.79   11.60
  10   1   5   40.50   13.20
  10   1   5   50.29    7.10
  11   1   5   50.69    7.50
  11   1   5   65.59   13.60
  11   1   5   99.79   20.60
  12   1   5    3.90    4.40
  12   1   5    7.30    4.20
  12   1   5    1.50    6.30
  13   1   5   26.60    9.50
  13   1   5   49.30   15.70
  13   1   5   45.20    9.10
  14   1   5   25.40   11.50
  14   1   5   59.39   11.20
  14   1   5   55.49   16.60
  15   1   5   23.70   12.40
  15   1   5   -0.10    5.30
 -14   2   5   -0.30    5.80
 -14   2   5   -1.70    4.10
 -13   2   5   10.80    7.30
 -13   2   5    5.90    6.40
 -13   2   5    3.50    3.40
 -12   2   5  171.98   13.10
 -12   2   5  159.38   19.00
 -12   2   5  169.78   19.20
 -11   2   5   80.09    9.00
 -11   2   5   68.19   15.60
 -11   2   5   89.39   13.30
 -10   2   5  126.79   10.90
 -10   2   5   95.19   13.30
 -10   2   5   98.39   13.50
  -9   2   5    0.60    4.50
  -9   2   5    0.20    3.60
  -9   2   5    4.20    3.40
   8  -2  -5  102.59   10.20
  -8   2   5   85.99    8.90
  -8   2   5   80.69   11.20
  -8   2   5   74.79   11.00
   7  -2  -5   45.50    6.70
  -7   2   5   64.09   11.90
  -7   2   5   38.40    9.70
  -7   2   5   69.09    7.70
   6  -2  -5  966.20   37.40
  -6   2   5  959.40   41.70
  -6   2   5 1024.70   41.40
  -6   2   5 1039.60   37.50
   5  -2  -5   39.30    5.80
  -5   2   5   52.19    6.60
  -5   2   5   48.90    9.90
  -5   2   5   50.69    7.20
   4  -2  -5    0.80    1.80
  -4   2   5    4.20    2.90
  -4   2   5    6.20    4.00
  -4   2   5    3.00    2.80
   3  -2  -5  932.81   33.90
   3  -2  -5  866.71   32.90
  -3   2   5  911.51   36.00
  -3   2   5  854.41   33.20
  -3   2   5  942.11   33.90
   2  -2  -5  230.68   14.10
   2  -2  -5  217.38   13.10
   2  -2  -5  195.68   11.40
  -2   2   5  208.08   12.00
  -2   2   5  200.38   13.00
  -2   2   5  209.48   13.80
  -2   2   5  222.78    9.30
  -2   2   5  237.38    9.80
   1  -2  -5  343.77   17.30
   1  -2  -5  349.27   17.50
   1  -2  -5  359.36   15.10
  -1   2   5  350.06   18.00
  -1   2   5  344.57   15.10
  -1   2   5  360.56   14.50
  -1   2   5  367.16   15.20
  -1   2   5  341.07   17.90
   0  -2  -5   31.90    6.60
   0  -2  -5   31.50    5.10
   0   2   5   37.30    5.70
   0   2   5   36.10    6.70
   0   2   5   41.30    4.00
   0   2   5   33.40    4.40
  -1  -2  -5    2.00    2.10
  -1  -2  -5    6.50    2.50
   1   2   5    9.80    3.80
   1   2   5    9.40    3.40
   1   2   5    3.80    1.40
   1   2   5    9.60    3.50
  -2  -2  -5  186.48   10.90
  -2  -2  -5  181.98   12.00
  -2  -2  -5  184.38   12.60
   2   2   5  199.88   11.50
   2   2   5  185.98    7.20
  -3  -2  -5    0.80    2.10
  -3  -2  -5    3.10    2.00
  -3  -2  -5    1.70    2.30
   3   2   5   -0.90    1.90
   3   2   5    4.70    3.00
   3   2   5    3.00    2.30
  -4  -2  -5 1067.69   42.10
   4   2   5 1137.69   38.30
   4   2   5 1156.78   43.70
   4   2   5 1122.09   33.50
  -5  -2  -5  139.49   12.30
   5   2   5  135.39    6.70
   5   2   5  137.09    9.80
   5   2   5  144.49   12.90
  -6  -2  -5  153.98   14.00
   6   2   5  180.58   11.70
   6   2   5  193.98   15.50
   6   2   5  170.28    8.80
   6   2   5  173.68   11.80
   6   2   5  208.28   17.80
   7   2   5  134.59   13.50
   7   2   5  179.98   17.70
   7   2   5  130.89   10.40
   7   2   5  126.09    8.20
   8   2   5  408.06   30.10
   8   2   5  388.16   20.00
   8   2   5  355.46   26.90
   9   2   5   45.90   13.20
   9   2   5   42.10    7.90
   9   2   5   20.80    5.00
   9   2   5   49.70   10.60
  10   2   5   76.49   16.80
  10   2   5   61.89   13.80
  10   2   5   66.49    8.50
  11   2   5    8.40    6.00
  11   2   5    7.30    4.90
  11   2   5    4.20    6.30
  12   2   5   25.30    7.60
  12   2   5   33.10   10.90
  12   2   5   31.90   12.20
  13   2   5    9.00    8.90
  13   2   5   11.00    5.40
  13   2   5    5.10    6.00
  14   2   5  114.79   24.60
  14   2   5   75.19   11.10
  14   2   5  103.29   20.20
  15   2   5   11.80   10.00
  15   2   5    6.30    7.40
 -14   3   5   -2.50    4.00
 -14   3   5   10.20   10.80
 -13   3   5    7.60    6.70
 -13   3   5   30.00   11.70
  12  -3  -5  204.18   13.40
 -12   3   5  185.68   21.00
 -12   3   5  206.28   21.60
 -11   3   5   49.40   12.60
 -11   3   5   49.90   13.00
 -11   3   5   38.90    5.70
  10  -3  -5   20.80    6.20
 -10   3   5   32.90    6.20
 -10   3   5   37.40   10.60
 -10   3   5   36.30    9.40
   9  -3  -5  112.49   10.20
  -9   3   5  117.59   14.30
  -9   3   5  162.58   16.40
  -9   3   5  131.09    9.70
  -8   3   5  113.09   13.30
  -8   3   5  100.29    8.50
  -8   3   5   97.19   12.40
   7  -3  -5  454.45   21.10
  -7   3   5  471.65   27.00
  -7   3   5  463.35   26.40
  -7   3   5  453.75   20.10
   6  -3  -5    6.00    3.10
  -6   3   5   11.80    3.70
  -6   3   5   20.40    6.70
   5  -3  -5  102.99    8.50
  -5   3   5  100.19   10.40
  -5   3   5  118.39   11.50
  -5   3   5  114.49    8.90
   4  -3  -5  123.09    9.30
  -4   3   5  137.79    9.80
  -4   3   5  121.89   11.60
  -4   3   5  137.59   11.40
   3  -3  -5  183.28    7.00
   3  -3  -5  191.48   11.60
   3  -3  -5  172.28   11.60
  -3   3   5  151.48   12.50
  -3   3   5  182.18    7.30
  -3   3   5  204.48   12.10
  -3   3   5  180.98   12.20
   2  -3  -5  387.96   17.50
   2  -3  -5  378.16   14.40
   2  -3  -5  372.56   17.80
   2  -3  -5  361.86   19.10
  -2   3   5  398.56   15.00
  -2   3   5  406.96   20.60
  -2   3   5  399.36   18.20
  -2   3   5  401.06   18.70
   1  -3  -5  171.78    9.40
   1  -3  -5  187.58   11.70
   1  -3  -5  176.98   11.80
  -1   3   5  177.98   10.50
  -1   3   5  183.38   11.90
  -1   3   5  163.38    9.40
  -1   3   5  193.08   12.70
   0  -3  -5   18.80    4.60
   0  -3  -5   18.20    4.40
   0  -3  -5   12.90    3.40
   0   3   5   20.40    3.90
   0   3   5   22.80    5.50
   0   3   5   21.40    4.40
   0   3   5   22.70    5.40
  -1  -3  -5  105.99    9.30
  -1  -3  -5  108.79    8.70
  -1  -3  -5  118.59    9.10
   1   3   5  108.39    9.60
   1   3   5  124.49    7.10
   1   3   5  123.29    9.50
   1   3   5  115.99    9.00
  -2  -3  -5  111.99    9.80
  -2  -3  -5  149.09   10.80
  -2  -3  -5  132.09    9.40
   2   3   5  147.89   11.50
   2   3   5  126.99   10.20
   2   3   5  126.99    9.60
  -3  -3  -5  449.36   19.70
  -3  -3  -5  469.85   22.30
  -3  -3  -5  443.96   21.90
   3   3   5  459.85   20.40
   3   3   5  444.36   22.80
   3   3   5  427.56   21.60
  -4  -3  -5   54.99    7.50
  -4  -3  -5   67.69    6.70
   4   3   5   50.99    7.60
   4   3   5   49.30    6.30
  -5  -3  -5   85.69    9.90
   5   3   5   83.99    9.90
   5   3   5   98.39    6.50
   5   3   5   79.19    8.00
  -6  -3  -5  263.27   18.60
   6   3   5  243.28   15.00
   6   3   5  261.17   12.50
   6   3   5  279.47   19.00
   7   3   5  220.48   14.30
   7   3   5  203.88   11.50
   7   3   5  211.98   17.30
  -8  -3  -5  238.88   19.60
   8   3   5  276.77   16.90
   8   3   5  251.57   19.80
   8   3   5  246.48   13.90
  -9  -3  -5  107.39   13.40
   9   3   5   95.09   14.50
   9   3   5  105.29   13.30
   9   3   5   94.99   10.20
  10   3   5   18.70    9.60
  10   3   5    3.10    4.90
  10   3   5   11.90    5.20
  11   3   5   19.50    6.30
  11   3   5    4.70    6.70
  11   3   5   13.10    6.30
  12   3   5    1.20    5.90
  12   3   5    5.60    4.20
  12   3   5   11.60    7.80
  13   3   5  144.39   14.90
  13   3   5  118.19   24.80
  13   3   5  122.29   20.40
  14   3   5    9.70    7.60
  14   3   5   -0.20    5.90
  14   3   5    0.90    3.50
  15   3   5    4.60    8.10
  15   3   5   10.70    6.40
  15   3   5   13.10    8.00
 -14   4   5   39.50   13.00
 -14   4   5   18.90    8.70
 -13   4   5  124.69   16.70
 -13   4   5  109.49   17.30
 -12   4   5   64.29   19.80
 -12   4   5   32.20   11.70
 -11   4   5   73.89   15.20
 -11   4   5   91.49   13.60
  10  -4  -5   14.40    4.50
 -10   4   5   23.00    8.70
 -10   4   5   27.10    9.70
   9  -4  -5   19.00    4.20
  -9   4   5   36.60    9.00
  -9   4   5   46.60   10.80
  -9   4   5   26.80    5.10
   8  -4  -5  279.27   13.70
  -8   4   5  273.87   21.10
  -8   4   5  287.27   21.10
  -8   4   5  266.87   14.80
   7  -4  -5  288.17   14.20
  -7   4   5  331.77   21.90
  -7   4   5  296.87   15.90
  -7   4   5  266.47   20.40
   6  -4  -5   29.60    5.20
  -6   4   5   31.20    5.00
  -6   4   5   30.40    7.90
  -6   4   5   41.90    9.40
   5  -4  -5   46.60    5.10
  -5   4   5   37.50    6.20
  -5   4   5   36.20    8.20
  -5   4   5   54.29   10.00
   4  -4  -5  137.09    6.30
   4  -4  -5  154.48    9.50
  -4   4   5  140.99   14.10
  -4   4   5  137.59   12.50
  -4   4   5  152.08   12.10
   3  -4  -5   72.89    5.10
   3  -4  -5   79.89    6.80
  -3   4   5   79.69    5.70
  -3   4   5   75.39    8.90
  -3   4   5   81.09    8.40
  -3   4   5   75.09    7.00
   2  -4  -5   15.60    3.20
   2  -4  -5    9.60    3.20
  -2   4   5   14.40    5.00
  -2   4   5    2.30    1.90
  -2   4   5   10.90    3.60
  -2   4   5    8.50    3.50
   1  -4  -5  101.49    8.20
   1  -4  -5  111.69    9.50
   1  -4  -5  112.79   10.00
  -1   4   5   96.69    7.70
  -1   4   5   96.69    8.10
  -1   4   5  105.39    8.90
  -1   4   5  113.39   10.10
   0  -4  -5    7.80    3.40
   0  -4  -5    7.00    3.20
   0  -4  -5    6.40    2.70
   0   4   5   10.00    4.10
   0   4   5    3.60    2.60
   0   4   5    2.90    2.10
   0   4   5    2.20    2.30
  -1  -4  -5  790.82   30.70
  -1  -4  -5  756.62   30.00
  -1  -4  -5  774.52   30.00
   1   4   5  804.82   31.20
   1   4   5  771.22   30.70
   1   4   5  804.02   31.80
  -2  -4  -5  152.48   11.40
  -2  -4  -5  134.49   10.00
  -2  -4  -5  134.09   10.80
   2   4   5  153.18   11.90
   2   4   5  116.39    9.90
   2   4   5  145.79   10.50
   2   4   5  140.99   11.20
  -3  -4  -5  642.64   26.40
  -3  -4  -5  659.23   28.50
   3   4   5  667.53   29.20
   3   4   5  598.74   28.10
   3   4   5  625.04   26.50
  -4  -4  -5   44.50    7.30
   4   4   5   39.10    5.90
   4   4   5   53.79    7.80
  -5  -4  -5   51.69    8.20
   5   4   5   55.49    8.50
   5   4   5   60.49    7.40
  -6  -4  -5  240.38   18.20
   6   4   5  258.77   13.50
   6   4   5  281.47   16.70
   6   4   5  285.07   19.90
  -7  -4  -5  373.56   23.90
   7   4   5  362.76   28.20
   7   4   5  362.56   20.40
   7   4   5  396.36   18.30
  -8  -4  -5   18.70    7.00
   8   4   5   38.40   10.80
   8   4   5   44.60    8.90
   8   4   5   25.70    5.80
  -9  -4  -5  146.29   16.10
   9   4   5  165.98   14.20
   9   4   5  188.38   18.30
 -10  -4  -5   59.39   12.70
  10   4   5   67.09   14.10
  10   4   5   57.19   10.60
  11   4   5   51.99   12.10
  11   4   5   24.20    7.50
  11   4   5   36.50   12.90
  12   4   5  120.39   16.80
  12   4   5  156.38   21.90
  12   4   5  161.28   15.50
  13   4   5   13.00    6.90
  13   4   5    0.60    6.00
  13   4   5   32.90   12.90
  14   4   5    7.70    9.70
  14   4   5   11.00    6.50
  14   4   5   14.80    8.70
  15   4   5    1.60    5.00
  15   4   5    2.90    8.00
  15   4   5    1.80    4.40
 -13   5   5   94.09   17.80
 -13   5   5   66.39   16.40
 -12   5   5   99.19   24.60
 -12   5   5  136.09   18.80
 -11   5   5   -0.50    4.00
 -11   5   5    6.00    6.10
 -10   5   5   22.60    8.30
  -9   5   5  122.19   15.20
  -9   5   5  107.59   13.90
  -8   5   5  105.79   13.40
  -8   5   5  113.59   13.50
   7  -5  -5    0.90    0.70
   7  -5  -5    1.50    0.80
  -7   5   5    1.60    0.90
  -7   5   5   -1.10    3.00
  -7   5   5   -1.30    2.90
   6  -5  -5   38.50    3.30
   6  -5  -5   34.10    3.30
   6  -5  -5   34.60    3.50
  -6   5   5   51.09   10.20
  -6   5   5   51.19   11.80
  -6   5   5   45.90    3.80
   5  -5  -5  187.88    9.60
   5  -5  -5  188.78    9.30
  -5   5   5  204.38    9.90
  -5   5   5  211.88   10.10
  -5   5   5  224.38   16.40
  -5   5   5  208.88   16.40
   4  -5  -5  135.19    8.10
   4  -5  -5  139.59    8.20
  -4   5   5  126.09    8.20
  -4   5   5  137.39    8.70
  -4   5   5  134.29   12.70
  -4   5   5  129.39   11.80
   3  -5  -5  510.85   20.80
   3  -5  -5  554.34   21.30
  -3   5   5  614.54   26.70
  -3   5   5  536.65   21.80
  -3   5   5  585.34   27.80
   2  -5  -5   20.30    4.20
   2  -5  -5   25.90    4.10
  -2   5   5   35.20    5.60
  -2   5   5   33.20    4.80
  -2   5   5   29.70    5.70
  -2   5   5   30.90    6.50
   1  -5  -5    1.10    1.90
   1  -5  -5   -0.20    1.30
  -1   5   5    0.10    1.90
  -1   5   5   -1.20    1.80
  -1   5   5   -0.50    1.50
  -1   5   5   -1.00    1.90
   0  -5  -5  261.17   14.70
   0   5   5  249.88   14.80
   0   5   5  240.88   15.70
   0   5   5  267.07   13.90
   0   5   5  259.47   15.20
  -1  -5  -5  313.27   17.30
   1   5   5  323.67   17.90
   1   5   5  321.97   18.00
   1   5   5  339.37   18.20
   1   5   5  328.97   16.80
  -2  -5  -5   42.40    6.50
   2   5   5   46.10    6.80
   2   5   5   39.00    7.70
   2   5   5   38.40    7.20
   2   5   5   38.50    5.70
  -3  -5  -5   87.79    9.40
   3   5   5   75.49    8.30
   3   5   5   83.19    9.40
  -4  -5  -5    1.10    3.10
   4   5   5   -0.90    2.00
   4   5   5    0.50    2.30
  -5  -5  -5    0.30    2.60
   5   5   5    3.30    3.50
   5   5   5    7.10    3.40
  -6  -5  -5  246.48   18.80
   6   5   5  274.27   17.40
   6   5   5  251.67   19.20
  -7  -5  -5    2.30    3.60
   7   5   5   -0.20    2.60
   7   5   5    2.80    3.50
   7   5   5   -1.40    1.70
  -8  -5  -5  285.27   21.90
   8   5   5  324.97   23.80
   8   5   5  302.67   19.70
  -9  -5  -5   18.30    7.20
   9   5   5   13.40    7.00
   9   5   5   14.40    6.00
 -10  -5  -5   39.50   11.30
  10   5   5   28.80   10.30
  10   5   5   27.10    7.50
 -11  -5  -5  205.98   21.20
  11   5   5  256.37   19.70
  11   5   5  239.98   23.30
 -12  -5  -5  123.89   17.10
  12   5   5   99.79   20.30
  12   5   5  105.99   13.50
  12   5   5  112.39   24.00
  13   5   5   37.10   12.20
  13   5   5   13.70    7.10
  13   5   5   21.90   11.50
  14   5   5    3.50    6.10
  14   5   5   -0.50    5.30
  14   5   5   -1.20    3.60
  15   5   5    6.30    5.40
  15   5   5    7.40    7.90
  15   5   5   24.10   12.80
 -13   6   5   31.20   14.90
 -13   6   5   25.70    9.90
 -12   6   5   68.69   14.50
 -12   6   5   62.09   15.60
 -11   6   5   34.10   10.50
 -11   6   5   39.10   11.70
 -10   6   5   40.60   10.90
 -10   6   5   58.89   14.30
  -9   6   5  272.47   21.80
  -9   6   5  251.37   22.30
   8  -6  -5   32.80    3.40
   8  -6  -5   33.70    3.50
  -8   6   5   75.49   14.00
  -8   6   5   34.30    9.50
   7  -6  -5   37.90    4.40
   7  -6  -5   36.80    4.10
  -7   6   5   38.50    9.50
  -7   6   5   39.90    9.70
  -6   6   5    7.40    5.20
  -6   6   5   -4.20    2.00
  -6   6   5    3.90    2.40
   5  -6  -5   54.39    5.70
  -5   6   5   51.69    3.40
  -5   6   5   47.90   10.70
  -5   6   5   44.60    5.60
  -5   6   5   50.39   10.10
  -5   6   5   44.70    2.80
   4  -6  -5  421.76   18.60
  -4   6   5  393.26   23.30
  -4   6   5  442.16   16.40
  -4   6   5  375.46   25.80
  -4   6   5  413.16   15.10
  -4   6   5  373.86   18.60
   3  -6  -5  163.18   11.00
  -3   6   5  157.98    8.80
  -3   6   5  149.99   11.20
  -3   6   5  161.08   13.20
  -3   6   5  165.48    9.90
  -3   6   5  175.58   14.50
   2  -6  -5   21.70    5.40
  -2   6   5   33.60    4.30
  -2   6   5   29.00    5.50
  -2   6   5   24.80    6.30
  -2   6   5   28.10    6.40
  -2   6   5   35.20    6.80
   1  -6  -5   38.30    5.90
  -1   6   5   45.70    6.60
  -1   6   5   38.40    5.50
  -1   6   5   36.00    5.80
  -1   6   5   35.00    4.80
  -1   6   5   43.40    7.00
   0  -6  -5  134.59   10.80
   0   6   5  115.99   10.10
   0   6   5  116.89   11.00
   0   6   5  132.29    9.80
   0   6   5  125.59   10.90
  -1  -6  -5   10.30    4.40
   1   6   5   18.30    5.90
   1   6   5    5.10    2.90
   1   6   5    6.80    3.70
   1   6   5   11.40    4.20
  -2  -6  -5   96.49    9.90
   2   6   5   72.39    8.60
   2   6   5   83.59    9.20
  -3  -6  -5   -0.30    2.80
   3   6   5    3.00    2.70
   3   6   5   10.30    4.80
  -4  -6  -5   16.30    6.10
   4   6   5   24.80    6.20
   4   6   5    9.80    4.40
  -5  -6  -5  661.13   32.80
   5   6   5  681.03   31.20
   5   6   5  705.73   33.90
  -6  -6  -5 1041.30   45.50
   6   6   5 1042.40   45.90
  -7  -6  -5   66.79   10.60
   7   6   5   47.50   11.00
   7   6   5   44.20    9.30
  -8  -6  -5   19.20    6.90
   8   6   5    0.80    3.50
   8   6   5    4.30    3.90
  -9  -6  -5   92.69   13.60
   9   6   5  104.89   14.40
   9   6   5   88.29   11.40
 -10  -6  -5   47.00   11.40
  10   6   5   57.89   13.10
  10   6   5   71.69   10.80
 -11  -6  -5  108.19   15.70
  11   6   5  140.19   18.10
  11   6   5  119.09   14.20
 -12  -6  -5    8.90    7.30
  12   6   5    7.10    5.40
  12   6   5    5.70    5.70
 -13  -6  -5   45.80   13.10
  13   6   5   39.90   15.20
  13   6   5   34.50   12.80
  13   6   5   27.50    9.80
  14   6   5   11.40   10.20
  14   6   5   20.80    9.20
  14   6   5   13.60    8.60
  15   6   5    4.60    6.50
  15   6   5    2.20    9.50
  15   6   5   15.60    9.80
 -12   7   5   -0.10    5.70
 -12   7   5   -1.00    4.30
 -11   7   5  233.28   23.70
 -11   7   5  178.38   18.80
 -10   7   5  145.39   16.70
 -10   7   5  179.38   19.80
   9  -7  -5   53.79    5.30
  -9   7   5   66.39   13.40
  -9   7   5   88.39   16.50
   8  -7  -5   19.00    4.10
   8  -7  -5   31.40    4.70
  -8   7   5   11.90    6.50
  -8   7   5   39.60   11.30
   7  -7  -5    2.10    2.50
  -7   7   5   -0.60    3.10
  -7   7   5    1.00    2.40
  -7   7   5   -3.30    2.60
   6  -7  -5    9.00    3.90
  -6   7   5   11.20    6.00
  -6   7   5   15.30    4.60
  -6   7   5    6.30    5.10
   5  -7  -5  152.28   11.20
  -5   7   5  133.39   13.90
  -5   7   5  151.88   14.60
   4  -7  -5  408.16   20.00
  -4   7   5  383.06   23.40
  -4   7   5  374.36   13.60
  -4   7   5  363.06   19.90
  -4   7   5  385.86   13.60
  -4   7   5  416.86   23.90
   3  -7  -5  116.69   10.10
  -3   7   5  101.19   11.60
  -3   7   5   88.59   10.50
  -3   7   5   73.19    8.90
  -3   7   5   96.69    7.30
  -3   7   5  103.49    6.90
   2  -7  -5   56.19    7.40
  -2   7   5   45.20    8.90
  -2   7   5   50.49    9.90
  -2   7   5   47.40    5.30
  -2   7   5   52.79    9.70
  -2   7   5   50.59    5.90
   1  -7  -5  694.73   30.20
  -1   7   5  677.73   29.30
  -1   7   5  692.83   31.10
  -1   7   5  681.33   27.70
  -1   7   5  664.43   31.50
  -1   7   5  656.43   29.30
   0  -7  -5   31.10    7.50
   0   7   5   32.00    5.20
   0   7   5   30.30    6.70
   0   7   5   50.89    7.60
  -1  -7  -5   73.49    9.20
   1   7   5   79.19    9.40
   1   7   5   92.19    9.40
  -2  -7  -5   10.50    5.00
   2   7   5    8.00    3.90
   2   7   5    2.40    2.90
  -3  -7  -5    7.90    4.40
   3   7   5   14.90    5.60
   3   7   5    7.60    4.10
  -4  -7  -5   51.59    8.50
   4   7   5   38.10    8.10
   4   7   5   24.80    6.60
  -5  -7  -5   58.99    9.80
   5   7   5   60.49    8.90
   5   7   5  104.39   21.60
  -6  -7  -5  804.42   39.20
   6   7   5  852.11   40.60
   6   7   5  789.62   36.30
  -7  -7  -5   89.99   12.40
   7   7   5   68.49   13.30
   7   7   5   78.29   10.70
  -8  -7  -5  108.89   14.40
   8   7   5  114.79   14.80
   8   7   5  126.09   13.40
  -9  -7  -5   45.10   11.50
   9   7   5   27.10    9.10
   9   7   5   47.90   12.70
 -10  -7  -5   57.09   14.00
  10   7   5   70.69   11.40
  10   7   5   57.59   14.70
 -11  -7  -5   14.30    8.20
  11   7   5   25.70   10.60
  11   7   5    1.90    4.50
 -12  -7  -5   21.80    9.60
  12   7   5    6.70    5.00
  12   7   5   17.20    9.40
 -13  -7  -5    1.00    5.50
  13   7   5    3.10    4.90
  13   7   5    9.20    9.40
 -14  -7  -5   11.10    8.50
  14   7   5    6.60    8.50
  14   7   5    6.70    7.00
  14   7   5   -1.20    7.20
 -12   8   5    8.60    6.90
 -12   8   5   -2.80    4.60
 -11   8   5   -0.90    4.70
 -11   8   5    2.00    6.40
 -10   8   5  349.47   29.50
 -10   8   5  430.56   28.50
   9  -8  -5   20.80    5.10
  -9   8   5   30.20    9.90
  -9   8   5   33.30    9.60
   8  -8  -5   28.20    6.10
  -8   8   5   41.30   18.30
  -8   8   5   27.10    9.20
   7  -8  -5   36.40    7.20
  -7   8   5   42.20   10.10
  -7   8   5   36.00    7.40
  -7   8   5   34.30   10.10
   6  -8  -5   69.99    8.20
  -6   8   5   60.49   12.20
  -6   8   5   51.39    7.80
  -6   8   5   59.49   12.40
   5  -8  -5  305.17   18.00
  -5   8   5  294.87   21.70
  -5   8   5  281.47   21.00
  -5   8   5  248.98   25.30
   4  -8  -5    5.40    3.70
  -4   8   5    6.80    4.90
  -4   8   5    7.60    5.10
   3  -8  -5   58.89    8.40
  -3   8   5   57.89    5.10
  -3   8   5   44.10   11.40
  -3   8   5   54.99   10.70
  -3   8   5   48.40    5.10
   2  -8  -5  230.88   16.30
  -2   8   5  227.98   13.00
  -2   8   5  213.68   17.40
  -2   8   5  221.68   12.20
  -2   8   5  209.78   16.20
   1  -8  -5  126.79   12.30
  -1   8   5  112.99   12.20
  -1   8   5  131.69   10.30
  -1   8   5  109.89    9.20
  -1   8   5  145.09   18.00
   0  -8  -5  808.62   35.90
   0   8   5  812.22   32.80
   0   8   5  781.52   35.40
   0   8   5  759.42   31.40
  -1  -8  -5   67.09    9.60
   1   8   5   63.39    8.20
   1   8   5   79.59   10.00
  -2  -8  -5  124.79   12.80
   2   8   5   95.59   10.70
  -3  -8  -5   61.29    9.90
   3   8   5   71.49    9.50
   3   8   5   67.59    9.40
  -4  -8  -5  262.57   20.10
   4   8   5  266.67   19.10
   4   8   5  290.47   23.40
  -5  -8  -5   58.59   12.00
   5   8   5   51.09   10.70
   5   8   5   39.60    9.90
  -6  -8  -5  191.08   18.20
   6   8   5  195.78   16.80
   6   8   5  211.68   18.80
  -7  -8  -5   25.40    8.70
   7   8   5   52.09   12.50
   7   8   5   53.49   11.40
  -8  -8  -5  119.19   15.50
   8   8   5  135.59   14.60
   8   8   5  102.39   14.70
  -9  -8  -5   27.80    9.80
   9   8   5   14.10    6.10
   9   8   5   27.30    9.40
 -10  -8  -5   23.50    9.70
  10   8   5   17.20    7.70
  10   8   5    5.50    6.10
 -11  -8  -5   -1.90    3.90
  11   8   5   -0.60    3.90
 -12  -8  -5   10.70    7.20
  12   8   5    5.20    5.80
  12   8   5    3.30    5.20
 -13  -8  -5   -2.60    4.10
  13   8   5    0.70    4.30
  13   8   5   -2.60    3.60
 -14  -8  -5   13.90    9.00
  14   8   5    7.30    7.60
  14   8   5    5.30    7.70
 -11   9   5  114.69   15.60
 -10   9   5   13.80    7.20
 -10   9   5   15.90    9.30
  -9   9   5   33.30   10.10
  -9   9   5   23.50   10.10
   8  -9  -5    7.90    4.40
  -8   9   5    6.70    5.60
  -8   9   5    1.20    4.20
   7  -9  -5   30.30    7.80
  -7   9   5   42.00   11.20
   6  -9  -5  124.89   12.00
  -6   9   5  104.69   13.50
  -6   9   5   99.19   13.60
   5  -9  -5  245.58   17.40
  -5   9   5  258.27   20.40
  -5   9   5  214.68   19.30
   4  -9  -5   39.90    9.20
  -4   9   5   50.39   11.20
  -4   9   5   44.10   10.70
   3  -9  -5    0.60    3.50
  -3   9   5    4.20    2.00
  -3   9   5   -2.00    3.30
  -3   9   5    3.70    2.00
  -3   9   5    6.70    5.10
   2  -9  -5    9.40    5.10
  -2   9   5   20.30    7.20
  -2   9   5   14.00    4.30
  -2   9   5   20.70    4.90
  -2   9   5   16.60    6.50
   1  -9  -5  334.47   21.80
  -1   9   5  325.57   17.80
  -1   9   5  280.07   16.40
  -1   9   5  316.87   20.40
  -1   9   5  336.07   22.10
   0  -9  -5   55.09    9.10
   0   9   5   46.90    7.10
   0   9   5   44.50    9.50
  -1  -9  -5    6.10    5.70
   1   9   5    6.10    4.00
   1   9   5    7.00    4.00
  -2  -9  -5    6.30    4.70
   2   9   5   19.70    6.80
   2   9   5   13.40    6.00
  -3  -9  -5   95.29   12.20
   3   9   5   71.39   10.20
   3   9   5   91.39   11.30
  -4  -9  -5   64.29   12.70
   4   9   5   75.09   13.70
   4   9   5   54.29   11.50
  -5  -9  -5   69.09   11.10
   5   9   5   94.09   12.50
   5   9   5   73.99   10.90
  -6  -9  -5   45.10   11.50
   6   9   5   38.40    9.20
   6   9   5   65.59   12.90
  -7  -9  -5   45.00   11.70
   7   9   5   63.69   12.50
   7   9   5   57.29   12.90
  -8  -9  -5   -2.20    2.30
   8   9   5    1.70    4.00
   8   9   5    1.60    4.30
  -9  -9  -5  488.15   33.30
   9   9   5  460.75   30.00
   9   9   5  446.36   32.70
  10   9   5    2.50    5.20
  10   9   5   11.00    8.50
 -11  -9  -5   51.99   13.70
  11   9   5   57.59   16.60
  11   9   5   44.00   11.30
 -12  -9  -5    1.20    5.80
  12   9   5    2.30    5.00
  12   9   5    0.60    5.20
 -13  -9  -5   -0.50    5.10
  13   9   5   -1.40    5.10
  13   9   5   -3.80    4.00
 -14  -9  -5   24.70   11.20
  14   9   5   26.40   10.10
  14   9   5   54.09   20.10
 -10  10   5   37.30   12.80
 -10  10   5   42.50   14.40
  -9  10   5   20.00    9.60
  -9  10   5   23.20    9.00
   8 -10  -5   34.00    8.50
  -8  10   5   47.40   13.70
  -8  10   5   25.50    9.40
   7 -10  -5   56.79   10.70
  -7  10   5   59.49   13.40
  -7  10   5   71.49   13.50
   6 -10  -5  124.19   13.60
  -6  10   5  120.79   16.00
  -6  10   5  143.69   16.10
   5 -10  -5    8.40    5.80
  -5  10   5   24.60    8.60
  -5  10   5   -1.70    3.60
  -4  10   5   30.00    9.50
  -4  10   5   26.50    8.80
   3 -10  -5  224.48   21.10
  -3  10   5  237.48   19.20
  -3  10   5  215.98    9.90
  -3  10   5  248.58   19.70
  -3  10   5  205.08    9.80
   2 -10  -5   44.30    9.90
  -2  10   5   33.50    5.30
  -2  10   5   30.50    8.60
  -2  10   5   32.30    5.20
  -2  10   5   18.20    7.00
   1 -10  -5   19.60    8.00
  -1  10   5    3.80    3.40
  -1  10   5    9.00    4.10
  -1  10   5   11.00    5.40
  -1  10   5    1.20    3.60
   0 -10  -5   38.20   10.10
   0  10   5   70.69   10.60
   0  10   5   50.89    7.60
  -1 -10  -5   -5.20    2.30
   1  10   5   -0.10    2.90
   1  10   5    0.20    2.80
  -2 -10  -5   23.30    8.50
   2  10   5   15.80    6.60
   2  10   5   17.50    6.70
  -3 -10  -5  165.08   17.00
   3  10   5  134.29   14.30
   3  10   5  135.59   14.20
  -4 -10  -5   75.89   12.30
   4  10   5   68.39   11.00
   4  10   5   75.89   11.10
  -5 -10  -5  134.29   16.20
   5  10   5  149.29   16.20
   5  10   5  141.69   15.40
  -6 -10  -5   11.10    7.00
   6  10   5    4.90    4.90
   6  10   5   11.20    6.10
  -7 -10  -5   59.49   14.90
   7  10   5   57.29   12.10
   7  10   5   44.80   11.00
  -8 -10  -5   87.49   14.30
   8  10   5   99.09   19.40
   8  10   5   82.99   12.70
 -10 -10  -5  162.18   20.30
  10  10   5  129.69   16.80
  10  10   5  159.98   20.30
 -11 -10  -5    0.50    5.30
  11  10   5   -4.80    2.80
  11  10   5   -7.50    3.60
 -12 -10  -5   10.00    8.60
  12  10   5   21.40   10.20
  12  10   5    5.90    6.60
 -13 -10  -5   25.90   11.40
  13  10   5   11.80    7.60
  13  10   5   37.20   14.60
  -9  11   5   28.50   13.30
  -9  11   5   14.60    8.30
   8 -11  -5    9.10    6.50
  -8  11   5    4.30    5.70
  -8  11   5   17.10    9.00
   7 -11  -5   79.49   11.50
  -7  11   5   72.49   15.80
  -7  11   5   61.39   13.00
   6 -11  -5   67.59   10.80
  -6  11   5   60.29   12.80
  -6  11   5   71.59   15.10
   5 -11  -5    4.60    5.00
  -5  11   5    0.30    4.00
  -5  11   5    0.50    4.10
   4 -11  -5    7.60    5.60
  -4  11   5   44.20   11.40
  -4  11   5   35.80   10.40
   3 -11  -5  118.19   14.30
  -3  11   5  161.68   16.70
  -3  11   5  130.69   15.40
   2 -11  -5   72.69   14.00
  -2  11   5   61.69   12.30
  -2  11   5   59.89   12.40
  -2  11   5   78.99    7.60
  -2  11   5   68.99    7.70
   1 -11  -5   43.80   11.10
  -1  11   5   33.00    9.10
  -1  11   5   45.20   11.50
  -1  11   5   27.30    6.60
   0 -11  -5    2.60    4.70
   0  11   5    5.80    3.80
   0  11   5   -2.20    3.30
  -1 -11  -5    2.70    4.30
   1  11   5    3.50    3.70
   1  11   5    5.10    4.80
  -2 -11  -5  130.39   15.90
   2  11   5   98.69   13.00
   2  11   5  101.89   12.20
  -3 -11  -5    1.00    4.10
   3  11   5   24.30    8.20
   3  11   5    8.10    6.00
  -4 -11  -5  320.37   25.50
   4  11   5  276.27   22.20
   4  11   5  327.27   23.60
  -5 -11  -5    3.40    4.40
   5  11   5   -2.40    2.60
   5  11   5    0.30    3.60
  -6 -11  -5    3.80    5.60
   6  11   5   21.60    8.70
   6  11   5   18.70    8.60
  -7 -11  -5  181.28   20.00
   7  11   5  132.49   17.40
   7  11   5  139.69   16.70
  -8 -11  -5   34.40   13.00
   8  11   5   28.30   10.00
   8  11   5   33.80   14.40
  -9 -11  -5    9.60    7.10
   9  11   5    9.20    6.40
   9  11   5    9.10    7.80
 -10 -11  -5   13.80    8.50
  10  11   5    4.70    5.60
  10  11   5    3.10    4.70
 -11 -11  -5    0.30    5.90
  11  11   5    3.10    5.80
  11  11   5    6.30    6.40
 -12 -11  -5   -1.90    5.50
  12  11   5   -0.60    6.10
  12  11   5    1.70    5.30
 -13 -11  -5   27.00   15.50
  13  11   5   23.00   13.10
  13  11   5   32.50   12.20
  -8  12   5   52.39   13.10
   7 -12  -5   34.80   10.20
  -7  12   5   78.69   17.20
  -7  12   5   51.89   12.40
   6 -12  -5    0.40    4.80
  -6  12   5   -0.50    3.90
  -6  12   5   -2.30    3.50
   5 -12  -5   16.70    8.00
  -5  12   5   14.70    8.60
  -5  12   5    9.40    6.60
   4 -12  -5   47.60   12.00
  -4  12   5   64.49   14.40
  -4  12   5   27.50    9.30
   3 -12  -5    7.10    6.10
  -3  12   5   12.40    6.80
  -3  12   5   34.20   10.30
   2 -12  -5  171.28   17.80
  -2  12   5  155.18   17.10
  -2  12   5  135.99   10.00
  -2  12   5  157.88   17.00
   1 -12  -5   21.80    9.10
  -1  12   5   23.00    6.40
  -1  12   5   32.10    9.80
  -1  12   5   29.70    9.00
   0 -12  -5    0.90    4.50
   0  12   5    0.00    2.60
   0  12   5   -1.00    3.40
  -1 -12  -5   74.39   16.10
   1  12   5   58.29    9.30
   1  12   5   52.19   11.90
  -2 -12  -5   84.39   13.60
   2  12   5  120.69   14.80
   2  12   5  103.19   12.80
  -3 -12  -5   63.09   14.20
   3  12   5   52.09   11.90
   3  12   5   33.70    9.50
  -4 -12  -5    8.30    7.20
   4  12   5   18.50    7.70
   4  12   5   29.40    9.80
  -5 -12  -5   -1.40    3.40
   5  12   5   -0.30    4.20
   5  12   5   -0.20    3.30
   6  12   5    5.40    6.60
   6  12   5   12.60    7.60
  -7 -12  -5  148.29   19.40
   7  12   5  198.28   24.50
   7  12   5  168.98   19.10
  -8 -12  -5    1.30    6.10
   8  12   5   14.10    8.00
   8  12   5    6.90    5.90
  -9 -12  -5   18.80   10.10
   9  12   5   41.80   12.20
   9  12   5   42.30   12.20
 -10 -12  -5   18.90   10.70
  10  12   5    7.20    6.90
  10  12   5    4.10    6.40
 -11 -12  -5    1.10    5.40
  11  12   5    1.30    5.80
  11  12   5   -0.40    5.10
  12  12   5   18.90   10.40
  12  12   5   31.70   14.10
  -7  13   5    8.70    8.80
  -7  13   5    0.40    4.80
   6 -13  -5   15.80    8.10
  -6  13   5   12.50    8.30
  -6  13   5   11.30    7.90
   5 -13  -5   31.20   10.40
  -5  13   5   36.90   11.40
  -5  13   5   32.30   11.40
   4 -13  -5    7.00    6.10
  -4  13   5    4.20    5.20
  -4  13   5    5.90    5.90
   3 -13  -5   47.30   12.10
  -3  13   5   61.79   13.40
  -3  13   5   79.49   15.70
   2 -13  -5   17.90    8.50
  -2  13   5    2.10    4.50
  -2  13   5   21.10    4.70
  -2  13   5   27.20    9.80
   1 -13  -5   -2.00    4.80
  -1  13   5    3.70    5.50
  -1  13   5    0.60    2.90
  -1  13   5   -2.10    3.70
   0 -13  -5   15.20    8.20
   0  13   5   19.80    8.90
   0  13   5    4.00    3.90
  -1 -13  -5   44.90   12.90
   1  13   5   76.89   15.00
   1  13   5   50.99   10.60
  -2 -13  -5   26.40   10.00
   2  13   5    1.70    3.80
   2  13   5    6.30    5.40
  -3 -13  -5   80.09   18.20
   3  13   5   58.09   12.80
   3  13   5   66.09   14.00
  -4 -13  -5   13.10    9.60
   4  13   5   -3.10    4.70
  -5 -13  -5    4.50    6.50
   5  13   5    1.70    3.80
   5  13   5   -1.20    4.50
  -6 -13  -5   31.60   10.90
   6  13   5   11.30    7.40
   6  13   5    8.50    9.60
  -7 -13  -5  164.48   20.80
   7  13   5  127.09   18.10
   7  13   5  122.59   17.30
  -8 -13  -5   23.40   10.80
   8  13   5   43.10   13.00
   8  13   5   14.10    8.50
  -9 -13  -5   -3.50    4.10
   9  13   5   -2.70    3.50
   9  13   5    9.20    6.40
 -10 -13  -5   11.30    8.00
  10  13   5   11.00    8.10
  10  13   5    8.50    7.20
 -11 -13  -5   10.60   11.00
  11  13   5    7.80   13.30
  11  13   5   16.70   11.80
   5 -14  -5    9.80    7.20
  -5  14   5    4.80    9.20
  -5  14   5    9.40    6.90
   4 -14  -5   43.00   13.20
  -4  14   5   49.20   13.30
  -4  14   5   53.29   13.30
   3 -14  -5   31.50   11.20
  -3  14   5   44.80   19.50
  -3  14   5   43.20   12.80
   2 -14  -5   -1.40    4.20
  -2  14   5    5.60    5.60
   1 -14  -5    2.40    5.50
  -1  14   5    4.20    4.20
  -1  14   5   -3.90    3.00
   0 -14  -5   92.49   19.10
   0  14   5  100.29   14.50
   0  14   5   78.99   11.10
  -1 -14  -5   74.89   16.90
   1  14   5   76.89   16.10
   1  14   5   41.30    9.80
  -2 -14  -5   17.30    9.10
   2  14   5   10.80    5.80
   2  14   5   28.40   10.60
  -3 -14  -5    3.70    6.20
   3  14   5   -2.20    2.50
   3  14   5    3.70    6.00
  -4 -14  -5   -3.20    3.60
   4  14   5   -0.70    4.20
   4  14   5   -3.80    3.50
  -5 -14  -5   29.30   10.50
   5  14   5   15.80    9.90
   5  14   5   15.30    7.80
  -6 -14  -5   19.80   10.20
   6  14   5   14.70    8.10
   6  14   5   19.10    9.30
  -7 -14  -5   31.20   11.30
   7  14   5   55.89   14.20
   7  14   5   64.19   17.20
  -8 -14  -5    2.80    5.00
   8  14   5   22.30   10.40
   8  14   5   12.40    8.30
  -9 -14  -5    7.50    7.90
   9  14   5   10.80    8.90
   9  14   5    2.10    6.80
 -10 -14  -5    6.70    7.60
  10  14   5    4.80    7.00
  10  14   5    5.30    8.40
   3 -15  -5   20.70   10.50
  -3  15   5   13.20    8.30
  -3  15   5   -3.30    6.20
   2 -15  -5   -1.90    4.60
  -2  15   5    5.80    5.90
  -2  15   5    1.80    5.50
   1 -15  -5   24.00   10.80
  -1  15   5   15.10    8.10
  -1  15   5   28.60   10.30
   0 -15  -5   54.89   15.00
   0  15   5   65.99   15.60
   0  15   5   51.89   10.90
   0  15   5   43.00   12.50
  -1 -15  -5   53.09   14.60
   1  15   5   27.40    8.40
   1  15   5   30.60   10.50
  -2 -15  -5   30.30   11.80
   2  15   5   27.80    9.00
   2  15   5    8.60    6.90
  -3 -15  -5   15.40    9.40
   3  15   5   10.00    7.20
   3  15   5    4.30    5.50
  -4 -15  -5   19.80   11.50
   4  15   5   13.40    7.90
   4  15   5   -1.10    4.10
  -5 -15  -5  134.89   25.70
   5  15   5  105.89   16.60
   5  15   5   94.29   19.60
  -6 -15  -5   -0.30    5.40
   6  15   5    7.00    6.80
   6  15   5    8.70    7.60
  -7 -15  -5   39.90   13.20
   7  15   5   44.20   14.20
   7  15   5   48.20   14.50
  -8 -15  -5    9.20    9.40
   8  15   5   -0.70    4.90
   8  15   5    5.50   10.40
   1 -16  -5   69.99   17.50
  -1  16   5   26.10   10.50
  -1  16   5   14.80    8.60
   0 -16  -5    5.30    7.60
   0  16   5    1.40    5.40
   0  16   5    0.50    4.90
  -1 -16  -5   40.90   14.60
   1  16   5   32.80   12.00
  -2 -16  -5   -3.70    4.40
   2  16   5    7.20    7.00
   2  16   5    2.70    4.60
  -3 -16  -5   -1.80    4.30
   3  16   5    4.20    5.70
   3  16   5   -5.50    3.80
  -4 -16  -5   44.30   14.60
   4  16   5   39.40   12.30
   4  16   5   30.30   11.30
  -5 -16  -5    1.50   11.00
   5  16   5    6.70    7.10
   5  16   5   28.60   11.10
  -6 -16  -5   62.09   17.20
   6  16   5   76.09   17.40
   6  16   5   56.69   19.50
   4  14  -6   49.00   11.80
  -4 -14   6   52.09   14.20
  -4 -14   6   51.49   16.80
   3  14  -6    6.00    6.10
  -3 -14   6   -1.90    4.00
  -3 -14   6   -0.10    7.50
  -2 -14   6   22.60   11.60
  -2 -14   6   44.40   13.60
  -1 -14   6    1.50    5.50
  -1 -14   6    3.10    7.40
   0 -14   6    6.40    6.40
   0 -14   6    4.30    8.50
   7  13  -6    4.20    6.10
  -7 -13   6    8.60   12.60
  -7 -13   6   -1.80    5.10
   6  13  -6    3.20    4.90
  -6 -13   6   -1.80    3.50
  -6 -13   6   -2.30    5.50
   5  13  -6   11.20    6.60
  -5 -13   6   17.70   11.10
  -5 -13   6    8.90    8.00
   4  13  -6    7.70    5.80
  -4 -13   6   26.30   12.20
  -4 -13   6   22.40   10.40
   3  13  -6   71.69   11.50
  -3 -13   6   65.49   17.70
  -3 -13   6   60.49   16.10
   2  13  -6    9.70    5.90
  -2 -13   6   14.90    8.90
  -2 -13   6   21.20   12.70
  -1 -13   6    1.70    4.40
  -1 -13   6    5.70    7.20
   0 -13   6    1.90    7.10
   0 -13   6   -1.10    4.60
   1 -13   6  145.79   19.40
   1 -13   6  172.38   25.10
   2 -13   6    4.10    8.70
   2 -13   6    9.50    6.70
   3 -13   6   16.30   11.70
   9  12  -6   32.10   11.80
  -9 -12   6   23.80   10.40
  -9 -12   6   24.70   12.20
   8  12  -6   28.50   10.50
  -8 -12   6    6.50    7.30
  -8 -12   6   27.10   11.70
   7  12  -6    4.90    6.20
  -7 -12   6   -2.30    3.50
  -7 -12   6    9.80    7.60
   6  12  -6    3.20    5.70
  -6 -12   6    8.50    7.90
  -6 -12   6    0.40    6.00
   5  12  -6   49.80   12.10
  -5 -12   6   42.60   12.40
  -5 -12   6   59.69   16.20
   4  12  -6    4.30    5.60
  -4 -12   6    6.70    6.20
  -4 -12   6   11.70    9.40
   3  12  -6   29.90    8.70
  -3 -12   6   28.80   11.10
  -3 -12   6   30.80   13.20
   2  12  -6    8.40    5.60
  -2 -12   6   -4.00    4.30
  -2 -12   6   -0.50    3.30
  -1 -12   6   -1.20    4.70
  -1 -12   6   -1.30    5.90
   0  12  -6   83.89    8.50
   0 -12   6   74.69   18.60
   0 -12   6   97.79   14.50
   1 -12   6   17.90   10.70
   1 -12   6   -0.10    3.40
   2 -12   6   53.29   13.80
   2 -12   6   45.20   16.40
   3 -12   6    4.40    5.00
   3 -12   6   11.40   10.20
  -4  12  -6    1.10    4.80
   4 -12   6   -1.10    3.50
   4 -12   6   -4.30    5.40
  -5  12  -6   94.59   14.50
   5 -12   6   69.79   25.00
 -10 -11   6   48.90   14.00
  -9 -11   6   41.80   13.60
  -9 -11   6   35.90   12.60
  -8 -11   6    3.40    5.80
  -8 -11   6    9.60    7.40
  -7 -11   6   -3.00    3.20
  -7 -11   6    8.90    8.00
  -6 -11   6   77.99   17.80
  -6 -11   6   79.19   18.80
   5  11  -6   -4.20    2.50
  -5 -11   6    2.10    6.70
  -5 -11   6    5.40    5.30
   4  11  -6   83.89   11.80
  -4 -11   6   71.69   18.30
  -4 -11   6   73.59   15.70
   3  11  -6    3.20    4.10
  -3 -11   6   -0.60    6.60
  -3 -11   6   -0.30    3.20
   2  11  -6    2.70    3.80
  -2 -11   6    6.80    7.50
  -2 -11   6   16.60    9.40
   1  11  -6   40.90    8.10
  -1 -11   6   11.70    8.60
  -1 -11   6   43.30   11.70
   0  11  -6   41.20    6.20
   0 -11   6   45.90   12.20
   0 -11   6   45.40   14.50
   1 -11   6   10.20    6.20
   1 -11   6   10.90    9.20
   2 -11   6   30.30   13.40
   2 -11   6   15.60    7.60
   3 -11   6   28.60    9.40
   3 -11   6   11.80    9.10
  -4  11  -6   -0.30    4.50
   4 -11   6   -1.30    3.00
   4 -11   6   -2.70    5.90
  -5  11  -6   44.30   12.10
   5 -11   6   48.90   17.00
   5 -11   6   44.40    9.90
  -6  11  -6   22.30    8.80
   6 -11   6   14.10   11.00
  -7  11  -6    8.60    6.50
 -11 -10   6   30.20   16.60
 -11 -10   6   22.20    8.60
 -10 -10   6   98.99   19.70
 -10 -10   6  105.49   16.10
  -9 -10   6   -0.60    5.60
  -9 -10   6   -1.00    4.40
  -8 -10   6   35.90   13.10
  -8 -10   6   24.30   11.20
  -7 -10   6   49.99   13.80
  -7 -10   6  100.19   15.70
  -6 -10   6   48.60   14.10
  -6 -10   6   33.10   11.00
  -5 -10   6   26.30   11.20
  -5 -10   6   18.30    9.20
  -4 -10   6   23.80    9.80
  -4 -10   6    3.20    4.90
   3  10  -6   -1.50    2.40
  -3 -10   6   -3.90    2.20
  -3 -10   6    9.50    7.10
   2  10  -6    0.00    2.90
  -2 -10   6    4.60    5.00
  -2 -10   6   -1.00    4.50
   1  10  -6   67.59    8.30
  -1 -10   6   70.79   16.70
  -1 -10   6   79.09   12.80
   0  10  -6   16.20    4.90
   0 -10   6   10.70    6.20
   0 -10   6   18.30    9.60
  -1  10  -6   26.20    4.70
   1 -10   6   17.20    9.80
   1 -10   6   20.10    7.90
   2 -10   6    4.10    4.90
   2 -10   6    5.60    8.30
   3 -10   6   -0.60    5.20
   3 -10   6    4.90    4.40
  -4  10  -6   67.79   10.70
   4 -10   6   50.39   15.00
   4 -10   6   60.69   12.60
  -5  10  -6   42.20   10.60
   5 -10   6   55.69   16.70
   5 -10   6   43.40   10.80
  -6  10  -6   18.40    8.10
   6 -10   6   14.60    6.40
   6 -10   6   15.40   10.60
  -7  10  -6    1.40    4.50
   7 -10   6   -2.10    7.30
  -8  10  -6   20.20    7.90
   8 -10   6   34.00   15.90
 -12  -9   6    3.40    6.20
 -12  -9   6   21.80   15.00
 -11  -9   6  127.69   23.80
 -11  -9   6   84.79   18.40
 -11  -9   6  104.89   17.00
 -10  -9   6   11.50    6.70
 -10  -9   6   13.30    7.20
 -10  -9   6   29.50   11.40
  -9  -9   6    1.10    4.40
  -9  -9   6    6.10    5.50
  -9  -9   6   31.10   12.60
  -8  -9   6   28.20    9.40
  -8  -9   6   43.80   13.30
  -8  -9   6   33.80   10.60
  -7  -9   6   30.40   12.20
  -7  -9   6    8.30    6.90
  -7  -9   6   -0.60    3.40
  -6  -9   6   28.90    9.50
  -6  -9   6   46.10   13.40
  -6  -9   6   26.70    9.80
  -5  -9   6  173.68   19.50
  -5  -9   6  172.18   19.60
  -5  -9   6  195.88   17.70
  -4  -9   6   16.80    8.10
  -4  -9   6   21.10    8.90
  -3  -9   6   78.99   16.30
  -3  -9   6   68.49   15.60
  -2  -9   6   81.39   17.30
  -2  -9   6   79.09   17.00
   1   9  -6   88.69    9.10
  -1  -9   6   97.09   13.70
  -1  -9   6   79.29   16.70
   0   9  -6   78.69    7.70
   0   9  -6   80.49    8.50
   0  -9   6   85.89   18.40
   0  -9   6   94.69   13.10
  -1   9  -6    3.10    2.30
  -1   9  -6    1.00    2.00
   1  -9   6   -2.40    5.50
   1  -9   6    2.20    4.50
   2  -9   6    0.90    3.30
   2  -9   6   11.40    8.40
   3  -9   6   16.60   10.20
   3  -9   6    2.00    4.00
  -4   9  -6   77.99   10.80
   4  -9   6   99.99   12.40
  -5   9  -6   84.39   11.20
   5  -9   6   76.69   10.90
   5  -9   6   78.99   19.80
  -6   9  -6   -1.60    3.20
   6  -9   6    4.00    4.40
   6  -9   6   -6.20    4.10
  -7   9  -6   34.90    9.30
   7  -9   6   39.10   14.50
  -8   9  -6   83.19   12.30
   8  -9   6   81.09   20.80
  -9   9  -6   92.49   17.90
   9  -9   6  100.19   23.90
 -13  -8   6    3.00    6.70
 -13  -8   6    1.00    5.00
 -12  -8   6   65.79   13.10
 -12  -8   6   71.39   17.60
 -12  -8   6   69.89   16.00
 -11  -8   6   24.20   10.70
 -11  -8   6   19.60    9.50
 -11  -8   6    6.00    5.70
 -10  -8   6   14.40    7.10
 -10  -8   6    4.00    6.00
 -10  -8   6    7.20    5.90
  -9  -8   6   -0.40    3.50
  -9  -8   6    0.80    4.50
  -9  -8   6    4.90    6.30
  -8  -8   6   88.29   13.60
  -8  -8   6   77.39   15.10
  -7  -8   6   78.59   16.20
  -7  -8   6   72.49   15.00
  -7  -8   6   90.89   13.10
  -6  -8   6  120.49   15.30
  -6  -8   6  123.99   14.50
  -6  -8   6  100.09   15.20
  -5  -8   6    8.50    6.20
  -5  -8   6    3.90    4.00
  -5  -8   6   10.60    6.60
  -4  -8   6   -1.60    4.30
  -4  -8   6    4.40    4.80
  -4  -8   6    2.40    3.90
  -3  -8   6   -0.70    4.20
  -3  -8   6    7.80    5.20
  -2  -8   6   -0.70    2.40
  -2  -8   6    2.30    5.20
  -1  -8   6   76.49   16.10
  -1  -8   6   41.90   10.10
   0   8  -6  103.69    8.40
   0   8  -6   77.09    8.10
   0  -8   6  127.39   17.00
   0  -8   6  102.09   13.40
  -1   8  -6   57.39    5.40
  -1   8  -6   54.19    5.70
   1  -8   6   60.99   12.50
   1  -8   6   62.29   14.90
   2  -8   6   17.20    9.00
   2  -8   6   25.80    8.70
   3  -8   6  176.98   21.10
   3  -8   6  182.98   17.10
   4  -8   6    7.90    8.00
   4  -8   6    2.70    3.50
  -5   8  -6   61.59    9.20
   5  -8   6   70.39   10.50
   5  -8   6   79.59   18.10
  -6   8  -6   56.59   10.90
   6  -8   6   50.99   13.50
   6  -8   6   76.09   22.20
  -7   8  -6   11.90    5.80
   7  -8   6   14.80    9.80
   7  -8   6    4.70    5.20
  -8   8  -6   58.99   11.50
   8  -8   6   35.20   13.40
   8  -8   6   53.89   10.50
  -9   8  -6   69.89   11.30
   9  -8   6  135.39   22.10
 -10   8  -6    4.00    5.50
  10  -8   6    9.20    9.10
 -13  -7   6   53.49   24.00
 -13  -7   6   32.00   11.90
 -12  -7   6   93.79   19.30
 -12  -7   6   81.89   19.80
 -12  -7   6   77.89   11.60
 -11  -7   6    0.10    5.50
 -11  -7   6   11.00    6.10
 -11  -7   6    5.40    6.70
 -10  -7   6   33.10    9.20
 -10  -7   6   27.60   11.00
 -10  -7   6   25.20    9.60
  -9  -7   6    9.30    7.70
  -9  -7   6    5.00    6.20
  -9  -7   6   25.20    8.20
  -8  -7   6   36.20   10.20
  -8  -7   6   34.00   10.10
  -8  -7   6   49.30   12.80
  -7  -7   6  271.17   22.20
  -7  -7   6  331.87   26.40
  -7  -7   6  299.07   22.70
  -6  -7   6   97.69   14.40
  -6  -7   6  112.99   14.10
  -6  -7   6  121.19   14.00
  -5  -7   6   17.10    7.80
  -5  -7   6    9.10    5.40
  -5  -7   6   11.00    7.20
  -4  -7   6   31.30    8.50
  -4  -7   6   29.90    9.90
  -4  -7   6   31.90   10.80
  -3  -7   6  632.74   35.20
  -3  -7   6  604.04   29.60
  -3  -7   6  632.24   35.70
  -2  -7   6   -0.40    2.20
  -2  -7   6    2.60    3.70
  -2  -7   6    3.20    4.60
  -1  -7   6  144.59   16.50
  -1  -7   6  130.49   10.70
  -1  -7   6  105.09   13.50
   0   7  -6    0.50    1.80
   0  -7   6    3.20    4.60
   0  -7   6    0.80    4.60
  -1   7  -6   18.00    4.10
  -1   7  -6   23.50    3.40
   1  -7   6   22.80    9.80
   1  -7   6   20.50    8.00
  -2   7  -6  243.68    8.30
   2  -7   6  308.47   25.00
   2  -7   6  279.67   24.90
   3  -7   6   64.09   14.80
   4  -7   6   56.29   11.60
   4  -7   6   62.39   15.50
  -5   7  -6   16.40    5.60
   5  -7   6   14.90    6.70
   5  -7   6   16.60   10.60
  -6   7  -6   44.00    9.00
   6  -7   6   41.10   13.40
   6  -7   6   18.60    6.90
  -7   7  -6  176.38   14.70
   7  -7   6  192.68   26.40
   7  -7   6  164.38   15.40
  -8   7  -6   16.30    6.40
   8  -7   6   17.90    6.70
   8  -7   6    9.70    8.20
  -9   7  -6    6.80    4.60
   9  -7   6   -1.00    3.00
   9  -7   6    9.40    8.40
 -10   7  -6    4.60    5.10
  10  -7   6   19.80   12.10
 -11   7  -6   57.59   12.00
  11  -7   6   38.90   14.80
 -13  -6   6    1.40    5.60
 -13  -6   6    7.50    7.00
 -12  -6   6   93.29   11.30
 -12  -6   6   70.79   15.80
 -12  -6   6   91.29   19.10
 -11  -6   6   14.40    5.70
 -11  -6   6    9.10    7.00
 -11  -6   6   37.50   12.50
 -10  -6   6   11.20   10.50
 -10  -6   6   28.60    9.80
 -10  -6   6   11.60    5.60
  -9  -6   6   70.29   14.90
  -9  -6   6   70.49   10.10
  -9  -6   6   65.19   15.10
  -8  -6   6   23.60    8.60
  -8  -6   6   36.70   11.70
  -7  -6   6  101.09   14.60
  -7  -6   6  144.89   15.60
  -7  -6   6  122.69   13.50
  -6  -6   6    0.10    4.20
  -6  -6   6   -1.30    2.90
  -6  -6   6    2.60    4.20
  -5  -6   6    2.30    4.30
  -5  -6   6   -1.50    3.40
  -5  -6   6    5.40    4.80
  -4  -6   6  411.76   27.50
  -4  -6   6  434.86   26.60
  -4  -6   6  383.46   26.60
  -3  -6   6   12.80    6.50
  -3  -6   6   19.20    7.40
  -3  -6   6   21.80    6.60
  -2  -6   6  570.84   31.60
  -2  -6   6  500.35   24.70
  -2  -6   6  514.45   34.50
   1   6  -6   29.30    6.40
  -1  -6   6   32.30   10.90
  -1  -6   6   28.10    6.10
  -1  -6   6   36.80   10.60
   0  -6   6   28.90    5.60
   0  -6   6   21.40    7.40
   0  -6   6   16.50    7.10
  -1   6  -6   28.50    4.00
   1  -6   6   38.30   10.00
   1  -6   6   33.10   10.00
  -2   6  -6  202.48    8.30
  -2   6  -6  194.48    7.60
   2  -6   6  176.18   16.30
   2  -6   6  231.68   21.40
   3  -6   6  126.79   13.50
   3  -6   6  116.69   16.10
  -4   6  -6   41.50    6.60
   4  -6   6   75.49   15.80
   4  -6   6   67.19   10.20
  -5   6  -6   36.90    7.00
   5  -6   6   34.70    9.00
   5  -6   6   24.80   11.10
  -6   6  -6  154.08   12.30
   6  -6   6  132.29   13.70
   6  -6   6  121.39   18.10
  -7   6  -6    3.20    2.90
   7  -6   6    1.80    3.80
   7  -6   6   -3.30    4.70
  -8   6  -6   69.19    9.20
   8  -6   6   57.99   11.20
   8  -6   6   73.99   18.20
  -9   6  -6   12.70    6.10
   9  -6   6   14.30    9.30
 -10   6  -6    2.50    4.20
  10  -6   6   -7.00    4.40
 -11   6  -6   39.50    9.60
  11  -6   6   21.80   13.50
  12  -6   6  106.29   23.50
 -14  -5   6    6.00    5.70
 -14  -5   6   13.40    9.60
 -13  -5   6   63.49   15.40
 -13  -5   6   56.49   15.20
 -12  -5   6   28.90    7.30
 -12  -5   6   16.50    8.60
 -12  -5   6   18.60    8.70
 -11  -5   6   22.50   14.80
 -11  -5   6   23.90    9.50
 -11  -5   6   15.20    6.20
 -10  -5   6  119.99   18.00
 -10  -5   6  100.79   11.00
 -10  -5   6  108.79   15.80
  -9  -5   6  134.59   15.90
  -9  -5   6  100.39   11.10
  -9  -5   6   98.29   14.50
  -8  -5   6  245.28   21.00
  -8  -5   6  237.28   21.70
  -8  -5   6  264.37   18.10
  -7  -5   6   25.60    8.70
  -7  -5   6    9.30    4.70
  -7  -5   6   34.00    9.90
  -6  -5   6   -0.30    2.90
  -6  -5   6    0.30    3.50
  -6  -5   6   -2.10    2.50
  -5  -5   6   29.10    8.30
  -5  -5   6   55.09    8.90
  -5  -5   6   63.89   13.60
  -4  -5   6  184.08   15.00
  -4  -5   6  179.98   15.70
  -4  -5   6  172.08   16.60
  -3  -5   6  365.06   21.00
  -3  -5   6  379.16   23.50
  -3  -5   6  371.96   25.00
  -2  -5   6   55.49    7.50
  -2  -5   6   65.29   12.20
  -2  -5   6   60.69   11.70
   1   5  -6    0.30    2.00
  -1  -5   6   -4.20    1.90
  -1  -5   6   -0.40    2.50
  -1  -5   6    2.60    2.60
   0   5  -6   93.79    8.10
   0  -5   6  105.39   12.40
   0  -5   6  119.29   14.00
   0  -5   6   98.69    8.10
  -1   5  -6  153.88    9.20
   1  -5   6  147.19   15.90
   1  -5   6  150.08   14.60
   1  -5   6  144.99    8.90
  -2   5  -6   62.19    4.30
   2  -5   6   68.39   10.10
   2  -5   6   70.79   14.30
   3  -5   6  120.49   12.90
   3  -5   6  109.29   14.80
  -4   5  -6   76.69    7.40
   4  -5   6   91.49   13.90
   4  -5   6   59.89    9.50
  -5   5  -6    3.60    2.60
   5  -5   6    5.00    4.50
   5  -5   6    9.30    6.70
  -6   5  -6  216.58   13.90
   6  -5   6  223.28   17.90
   6  -5   6  199.48   21.70
  -7   5  -6  245.58   15.40
   7  -5   6  252.07   19.30
   7  -5   6  272.97   26.10
  -8   5  -6    1.80    2.70
   8  -5   6   -3.80    3.50
   8  -5   6    5.00    4.50
  -9   5  -6   10.10    4.80
   9  -5   6   23.10   11.30
   9  -5   6   18.60    7.70
 -10   5  -6   53.79    8.60
  10  -5   6   48.00   11.10
  10  -5   6   73.29   18.40
 -11   5  -6    3.40    4.00
  11  -5   6    0.90    5.50
  11  -5   6    4.90    4.80
 -12   5  -6   56.09   10.90
  12  -5   6   77.29   20.10
 -14  -4   6   24.40   10.80
 -14  -4   6   26.30   12.90
 -13  -4   6   -1.40    3.90
 -13  -4   6    2.20    6.10
 -12  -4   6  141.99   17.70
 -12  -4   6   74.39    8.10
 -12  -4   6   93.29   18.10
 -11  -4   6    1.50    4.50
 -11  -4   6   10.10    4.20
 -11  -4   6    3.70    5.40
 -10  -4   6   51.79    7.30
 -10  -4   6   75.89   15.10
 -10  -4   6   29.50    9.90
  -9  -4   6  351.76   26.40
  -9  -4   6  406.06   28.10
  -9  -4   6  364.16   19.80
  -8  -4   6  198.58   19.00
  -8  -4   6  179.28   13.30
  -8  -4   6  150.88   16.30
  -7  -4   6   -2.80    2.50
  -7  -4   6   -1.50    2.80
  -7  -4   6    1.20    3.00
  -6  -4   6   -0.30    3.30
  -6  -4   6    5.50    3.50
  -6  -4   6    1.50    3.40
  -5  -4   6   77.19   11.30
  -5  -4   6   67.19    9.00
  -4  -4   6   23.90    7.00
  -4  -4   6   17.70    8.30
  -4  -4   6   17.80    6.10
  -3  -4   6  317.47   22.20
  -3  -4   6  336.77   19.40
  -3  -4   6  311.37   19.90
  -2  -4   6    1.20    2.40
  -2  -4   6    2.80    3.50
  -2  -4   6    4.10    4.00
   1   4  -6   -0.20    1.50
  -1  -4   6   -1.30    2.40
  -1  -4   6    1.60    3.20
  -1  -4   6    2.90    2.50
   0   4  -6  549.05   23.10
   0  -4   6  583.64   30.40
   0  -4   6  602.14   23.70
   0  -4   6  581.34   30.90
  -1   4  -6  542.75   20.80
   1  -4   6  494.25   27.80
   1  -4   6  575.94   21.50
   1  -4   6  563.34   31.00
  -2   4  -6    5.60    1.90
   2  -4   6    2.30    1.40
   2  -4   6   10.50    6.20
   2  -4   6   -0.50    2.60
   3  -4   6   -0.70    2.30
  -4   4  -6    3.50    2.40
   4  -4   6    4.60    4.10
   4  -4   6   -1.30    3.50
  -5   4  -6    5.90    3.20
   5  -4   6    2.40    5.70
   5  -4   6    3.20    3.80
  -6   4  -6  522.25   22.10
   6  -4   6  474.05   33.60
   6  -4   6  537.15   29.10
  -7   4  -6   65.59    7.30
   7  -4   6   58.59   15.00
   7  -4   6   48.70   10.60
  -8   4  -6   99.69    9.30
   8  -4   6   95.19   18.80
   8  -4   6   87.89   13.70
  -9   4  -6   44.90    7.10
   9  -4   6   43.50   10.20
   9  -4   6   23.90   11.10
 -10   4  -6   13.00    5.10
  10  -4   6   16.10    7.80
  10  -4   6    0.40   12.30
 -11   4  -6   87.19   10.50
  11  -4   6   68.49   17.90
  11  -4   6   82.39   12.00
 -12   4  -6    4.50    4.70
  12  -4   6   -2.70    5.50
  12  -4   6   -0.20    4.60
  13  -4   6   -2.50    6.30
 -14  -3   6   11.10    8.40
 -14  -3   6   15.70    7.80
 -13  -3   6   41.50   12.80
 -13  -3   6    6.20    5.70
 -12  -3   6    1.60    5.10
 -12  -3   6    0.10    4.80
 -11  -3   6    4.80    5.10
 -11  -3   6   11.60    3.50
 -11  -3   6    9.70    7.00
 -10  -3   6   68.59   14.10
 -10  -3   6   42.20    5.60
 -10  -3   6   49.20   13.10
   9   3  -6  259.07   22.70
  -9  -3   6  303.87   23.80
  -9  -3   6  276.47   22.30
  -9  -3   6  273.97   14.90
   8   3  -6    0.40    3.60
  -8  -3   6   -4.80    1.70
  -8  -3   6   -1.10    3.10
  -8  -3   6    1.70    2.50
   7   3  -6   -1.00    2.90
  -7  -3   6   -3.40    2.40
  -7  -3   6    3.60    4.20
  -7  -3   6    0.30    2.10
   6   3  -6  447.76   25.00
  -6  -3   6  500.65   28.00
  -6  -3   6  498.85   22.80
  -6  -3   6  512.25   29.10
   5   3  -6   36.50    7.90
  -5  -3   6   43.10    9.60
  -5  -3   6   26.70    6.00
  -5  -3   6   25.50    6.90
   4   3  -6  106.39   10.40
  -4  -3   6   99.79    9.70
  -4  -3   6  114.29   12.80
  -4  -3   6  117.09   11.50
   3   3  -6    8.00    3.90
  -3  -3   6    6.90    4.20
  -3  -3   6   -2.10    1.60
  -3  -3   6    6.40    3.50
   2   3  -6    9.60    4.00
   2   3  -6    9.40    4.10
   2   3  -6    8.50    4.70
  -2  -3   6    7.00    4.30
  -2  -3   6    6.30    3.60
  -2  -3   6    7.70    5.10
   1   3  -6  119.39    9.10
   1   3  -6  105.59    9.00
   1   3  -6  115.09   13.20
  -1  -3   6  129.29   10.00
  -1  -3   6  109.99   11.50
  -1  -3   6  116.39   12.40
   0   3  -6  577.44   23.50
   0  -3   6  579.04   23.60
   0  -3   6  589.24   29.50
   0  -3   6  573.84   29.20
  -1   3  -6  306.17   14.20
   1  -3   6  313.07   14.50
   1  -3   6  300.17   19.90
   1  -3   6  330.27   21.40
  -2   3  -6  106.99    6.40
   2  -3   6  110.89    6.90
   2  -3   6  102.29   11.40
   2  -3   6  104.89   12.80
  -3   3  -6    8.50    1.70
   3  -3   6   10.10    5.70
   3  -3   6   -0.80    1.80
   3  -3   6    6.00    1.60
  -4   3  -6    0.90    1.70
   4  -3   6    3.10    4.00
   4  -3   6   -1.50    4.20
  -5   3  -6  189.68   10.00
   5  -3   6  179.98   15.60
   5  -3   6  151.28   17.30
  -6   3  -6  237.78   12.30
   6  -3   6  196.08   16.90
   6  -3   6  228.88   22.00
  -7   3  -6   89.79    7.70
   7  -3   6  100.29   18.80
   7  -3   6   89.59   11.60
  -8   3  -6    9.20    3.80
   8  -3   6   13.30    8.20
   8  -3   6    6.70    5.70
  -9   3  -6  158.08   11.80
   9  -3   6  159.98   21.10
   9  -3   6  148.99   15.30
 -10   3  -6  131.09   11.40
  10  -3   6  128.59   14.70
  10  -3   6  126.09   24.40
 -11   3  -6   15.70    8.10
  11  -3   6   14.30    9.10
  11  -3   6   26.70    8.70
 -12   3  -6   -1.10    3.20
  12  -3   6    1.20    4.40
  12  -3   6    1.30    7.00
  13  -3   6    1.10    6.60
  13  -3   6   -1.60    4.50
 -14  -2   6   24.80   10.10
 -14  -2   6   23.00   10.90
 -13  -2   6   14.70    7.70
 -13  -2   6   22.10    9.80
 -12  -2   6   12.40    6.70
 -12  -2   6    1.30    5.50
  11   2  -6   92.49    6.00
 -11  -2   6  105.49   26.50
 -11  -2   6  105.29   13.90
  10   2  -6  114.69    8.20
  10   2  -6  120.99    8.40
 -10  -2   6  163.28   16.80
 -10  -2   6  165.38   17.80
   9   2  -6    0.90    2.10
  -9  -2   6   -1.90    3.00
  -9  -2   6    0.90    1.70
  -9  -2   6    1.10    4.10
   8   2  -6    7.80    3.20
  -8  -2   6   15.30    7.10
  -8  -2   6   11.40    3.90
  -8  -2   6   23.70    9.00
   7   2  -6  126.39    9.40
  -7  -2   6  135.89   14.60
  -7  -2   6  152.38   15.10
   6   2  -6   80.19    7.60
  -6  -2   6   63.19    9.70
  -6  -2   6   81.79   11.10
  -6  -2   6   75.99    6.90
   5   2  -6   16.80    4.50
  -5  -2   6   11.90    3.70
  -5  -2   6   15.70    5.80
  -5  -2   6   17.90    6.70
   4   2  -6  348.77   17.70
  -4  -2   6  347.27   20.70
  -4  -2   6  334.87   17.20
  -4  -2   6  348.67   22.00
   3   2  -6   24.30    5.80
  -3  -2   6   25.50    5.70
  -3  -2   6   10.80    4.90
  -3  -2   6   15.50    5.30
   2   2  -6  142.79   10.20
   2   2  -6  163.28   11.90
  -2  -2   6  151.28   11.70
  -2  -2   6  141.39   11.50
  -2  -2   6  125.99   12.70
   1   2  -6  398.86   21.10
   1   2  -6  391.16   19.10
   1   2  -6  399.46   17.70
  -1  -2   6  367.86   20.70
  -1  -2   6  411.86   19.60
  -1  -2   6  391.06   22.60
   0   2  -6  271.47   12.70
   0   2  -6  276.07   17.60
   0   2  -6  275.27   14.20
   0  -2   6  272.27   18.20
   0  -2   6  258.27   17.40
   0  -2   6  236.38   13.80
  -1   2  -6  150.48    8.20
  -1   2  -6  144.89    9.20
   1  -2   6  154.28    9.70
   1  -2   6  153.88   13.70
   1  -2   6  144.59   13.00
  -2   2  -6  157.48    8.70
   2  -2   6  160.38   13.90
   2  -2   6  189.38   15.90
   2  -2   6  170.88    9.40
  -3   2  -6   85.19    5.40
  -3   2  -6   95.59    5.20
   3  -2   6   86.49   11.60
   3  -2   6   92.19   10.70
   3  -2   6   92.89    6.00
  -4   2  -6  130.69    6.60
   4  -2   6  114.89   13.90
   4  -2   6  118.59    6.40
   4  -2   6  125.39   12.50
  -5   2  -6  110.09    6.50
   5  -2   6  105.59    5.30
   5  -2   6  119.29   12.30
   5  -2   6  110.29    6.20
  -6   2  -6  532.15   21.10
   6  -2   6  452.35   31.00
   6  -2   6  480.35   15.10
   6  -2   6  462.85   26.80
  -7   2  -6    1.80    2.00
   7  -2   6    3.60    1.10
   7  -2   6    5.20    2.10
   7  -2   6    8.90    5.90
   7  -2   6    0.40    5.50
  -8   2  -6   41.20    5.50
   8  -2   6   36.00    2.60
   8  -2   6   45.10   12.60
  -9   2  -6  133.39   10.10
   9  -2   6   88.99   18.90
   9  -2   6  119.69    5.40
   9  -2   6  109.29   13.40
 -10   2  -6  308.87   17.00
  10  -2   6  269.67   10.00
  10  -2   6  331.27   23.80
  10  -2   6  300.07   29.00
  11  -2   6   11.70    6.50
  12  -2   6   10.00    6.60
  12  -2   6    2.10    6.40
  13  -2   6   22.10    8.90
  13  -2   6   18.90   11.60
  14  -2   6    3.30    8.40
 -14  -1   6   23.30    9.70
 -14  -1   6   27.70   11.00
 -13  -1   6    0.10    5.40
 -13  -1   6    2.80    5.20
 -12  -1   6   22.10    8.30
 -12  -1   6   31.80   11.00
 -11  -1   6  216.68   18.80
 -11  -1   6  168.08   19.00
 -10  -1   6  128.69   16.10
 -10  -1   6  113.09   13.70
  -9  -1   6   50.29   11.30
  -9  -1   6   50.79   11.90
   8   1  -6   47.20    3.20
   8   1  -6   49.00    4.20
  -8  -1   6   64.09   14.00
  -8  -1   6   66.99   10.20
  -8  -1   6   59.99   12.80
   7   1  -6  140.09    7.20
  -7  -1   6  106.99   12.30
  -7  -1   6  129.29   13.60
  -7  -1   6  156.98   15.30
  -7  -1   6  125.59    6.20
   6   1  -6   40.20    4.30
  -6  -1   6   43.40    9.10
  -6  -1   6   43.30    4.00
  -6  -1   6   35.60    8.30
  -6  -1   6   48.70   10.40
   5   1  -6  288.27   13.40
  -5  -1   6  312.67   20.30
  -5  -1   6  290.07   12.80
  -5  -1   6  283.57   19.20
  -5  -1   6  287.57   18.10
   4   1  -6    2.90    2.40
  -4  -1   6    8.80    3.10
  -4  -1   6    8.30    4.50
  -4  -1   6    4.50    3.40
   3   1  -6   34.20    4.90
   3   1  -6   40.10    5.70
  -3  -1   6   44.70    8.80
  -3  -1   6   46.70    9.40
   2   1  -6 1294.97   45.90
   2   1  -6 1264.87   44.20
  -2  -1   6 1301.77   44.30
  -2  -1   6 1328.57   46.90
  -2  -1   6 1270.17   48.80
   1   1  -6   11.50    3.40
   1   1  -6    7.90    3.60
   1   1  -6   13.60    4.20
  -1  -1   6    8.70    3.90
  -1  -1   6   11.30    4.00
  -1  -1   6    7.70    4.00
   0   1  -6   20.50    4.80
   0   1  -6   15.20    3.20
   0   1  -6   13.60    4.90
   0  -1   6   21.80    4.90
   0  -1   6   21.30    6.00
   0  -1   6    5.40    4.20
  -1   1  -6   70.19    4.70
  -1   1  -6   71.59    6.40
  -1   1  -6   70.49    8.60
   1  -1   6   53.59    6.00
   1  -1   6   82.09    9.50
  -2   1  -6  258.37   12.30
   2  -1   6  252.87   12.80
   2  -1   6  286.77   19.10
  -3   1  -6  219.88   10.60
   3  -1   6  218.68   17.60
   3  -1   6  240.98   11.90
   3  -1   6  233.18   16.80
  -4   1  -6 1089.19   34.10
  -4   1  -6 1271.47   38.20
   4  -1   6 1300.97   39.40
   4  -1   6 1408.26   53.99
   4  -1   6 1371.16   50.39
  -5   1  -6   74.59    4.00
   5  -1   6   70.09    9.60
   5  -1   6   66.59    5.50
   5  -1   6   72.39    5.50
   5  -1   6   61.29   12.30
  -6   1  -6  268.17   10.90
   6  -1   6  264.67   12.10
   6  -1   6  262.77   12.00
   6  -1   6  269.57   19.40
   6  -1   6  271.37   22.40
  -7   1  -6  136.09    8.80
   7  -1   6  124.69   13.40
   7  -1   6  115.99   15.40
   7  -1   6  125.89    8.10
   7  -1   6  125.99   10.00
  -8   1  -6  202.98   11.30
   8  -1   6  221.58   22.20
   8  -1   6  193.88   10.50
   8  -1   6  211.58   11.50
   8  -1   6  238.58   19.50
   9  -1   6   16.20    4.10
   9  -1   6    2.60    5.30
   9  -1   6   48.80   11.90
   9  -1   6   24.90    4.60
  10  -1   6    5.20    5.00
  10  -1   6   25.90   12.10
  10  -1   6   15.00    3.70
  11  -1   6   29.30   12.10
  11  -1   6   31.10    5.70
  11  -1   6   32.60    9.60
  12  -1   6    6.40    3.00
  12  -1   6    4.30    5.70
  12  -1   6    0.00    6.40
  13  -1   6   11.70    7.90
  13  -1   6    4.40    8.70
  14  -1   6    2.10    8.30
 -14   0   6    5.10    6.30
 -14   0   6    1.70    4.40
 -13   0   6   15.10    6.80
 -13   0   6   13.90    8.50
 -12   0   6    5.70    4.80
 -12   0   6   -1.70    3.70
 -11   0   6  278.27   20.60
 -11   0   6  266.47   23.90
 -10   0   6   47.20   10.40
 -10   0   6   65.09   13.90
 -10   0   6   39.60   11.00
  -9   0   6   12.30    5.80
  -9   0   6   16.10    7.10
  -8   0   6   79.89   14.60
  -8   0   6   81.49   11.30
  -8   0   6   65.39    9.70
  -7   0   6   49.40   10.30
  -7   0   6   70.69   10.00
  -7   0   6   51.29   10.70
  -6   0   6  374.46   21.80
  -6   0   6  369.96   21.70
  -6   0   6  290.17   25.60
  -5   0   6   59.99    8.70
  -5   0   6   53.59    8.20
  -5   0   6   44.50    8.50
   4   0  -6   49.30    4.20
  -4   0   6   62.49    7.60
  -4   0   6   51.19    7.90
  -4   0   6   44.70    8.70
  -4   0   6   56.49    4.30
   3   0  -6  100.39    8.90
   3   0  -6  125.79    7.80
  -3   0   6  117.59    9.70
  -3   0   6  135.99   11.60
  -3   0   6  114.19   11.20
  -3   0   6  113.79    7.60
   2   0  -6  585.64   23.90
   2   0  -6  556.14   27.40
   2   0  -6  600.44   26.60
   2   0  -6  614.34   23.60
  -2   0   6  652.43   24.10
  -2   0   6  629.54   24.60
  -2   0   6  596.04   26.70
  -2   0   6  594.64   28.10
   1   0  -6  951.50   32.30
   1   0  -6  972.90   35.80
   1   0  -6 1010.80   35.40
  -1   0   6  988.10   35.60
  -1   0   6  963.60   32.60
  -1   0   6  939.81   38.70
  -1   0   6  953.40   36.40
   0   0  -6  169.78    8.80
   0   0  -6  174.88   13.50
   0   0  -6  195.08   13.00
   0   0   6  200.38   11.80
   0   0   6  213.48   13.90
   0   0   6  203.48   12.60
  -1   0  -6  536.95   26.80
  -1   0  -6  540.05   17.20
  -1   0  -6  539.95   21.80
   1   0   6  533.55   23.50
   1   0   6  496.75   25.90
   1   0   6  579.24   26.30
   1   0   6  539.95   22.40
  -2   0  -6  424.36   17.70
   2   0   6  447.56   23.70
   2   0   6  409.16   22.80
   2   0   6  424.26   18.60
   2   0   6  417.16   20.90
  -3   0  -6   71.69    6.00
   3   0   6   73.69    6.60
   3   0   6   53.99    8.10
   3   0   6   74.69   10.00
  -4   0  -6  364.06   15.10
   4   0   6  372.06   21.90
   4   0   6  326.57   15.50
   4   0   6  364.46   23.50
   5   0   6  248.08   12.60
   5   0   6  266.97   20.90
   5   0   6  256.67   18.50
   6   0   6   36.60    8.60
   6   0   6   44.20    5.10
   6   0   6   39.00    4.80
   7   0   6  230.28   13.00
   7   0   6  214.58   20.60
   7   0   6  245.28   19.10
   7   0   6  245.98   12.80
   8   0   6  117.19    9.30
   8   0   6  101.29   12.90
   8   0   6  140.79   17.80
   8   0   6  108.59    8.50
   9   0   6  361.96   29.40
   9   0   6  351.56   17.40
   9   0   6  348.07   18.20
   9   0   6  331.67   24.20
  10   0   6   -5.90    3.30
  10   0   6    3.80    4.80
  10   0   6    4.30    2.70
  11   0   6   13.60    4.90
  11   0   6   36.70   11.30
  11   0   6   32.80   11.80
  12   0   6   35.00   10.80
  12   0   6   46.90    8.40
  12   0   6   22.00   10.40
  13   0   6   28.60   13.20
  13   0   6   24.30    9.60
  13   0   6   12.80    6.20
  14   0   6   63.59   18.10
  14   0   6   61.09   15.10
 -14   1   6    0.60    5.20
 -13   1   6    2.60    3.70
 -13   1   6   -0.30    3.70
 -13   1   6   -5.40    3.50
 -12   1   6   63.99   14.30
 -12   1   6   82.89   16.50
 -12   1   6   74.99   10.40
 -11   1   6   84.09   10.80
 -11   1   6  105.29   14.90
 -11   1   6   98.29   18.80
 -10   1   6   75.99   14.60
 -10   1   6   77.09   10.10
 -10   1   6   83.69   15.80
  -9   1   6   34.00    9.50
  -9   1   6   12.00    5.30
  -9   1   6    9.40    6.50
  -8   1   6  132.09   14.40
  -8   1   6  139.59   15.40
  -8   1   6  169.18   14.20
  -7   1   6  504.85   29.40
  -7   1   6  509.75   28.30
  -7   1   6  540.15   27.00
  -6   1   6   35.60   11.10
  -6   1   6   42.00    8.50
  -6   1   6   60.39   12.60
  -5   1   6   16.60    5.50
  -5   1   6   19.90    6.70
  -5   1   6   31.50    8.00
   4  -1  -6   25.90    6.30
  -4   1   6   23.50    6.80
  -4   1   6   25.10    6.50
  -4   1   6   26.90    6.40
   3  -1  -6  834.82   35.10
   3  -1  -6  904.31   33.00
  -3   1   6  862.41   26.50
  -3   1   6  888.81   36.20
  -3   1   6  893.21   33.50
  -3   1   6  882.61   35.90
  -3   1   6  861.91   27.20
   2  -1  -6   13.80    4.70
  -2   1   6   12.40    3.70
  -2   1   6   17.90    6.00
  -2   1   6    4.50    3.30
  -2   1   6   10.20    2.70
  -2   1   6   14.30    3.50
   1  -1  -6   65.09    7.30
   1  -1  -6   65.49    7.90
   1  -1  -6   61.09    5.50
  -1   1   6   63.19    8.00
  -1   1   6   65.49    6.00
  -1   1   6   71.69    7.90
  -1   1   6   57.79    5.60
   0  -1  -6  168.58    8.60
   0  -1  -6  182.58   13.20
   0  -1  -6  169.28   11.30
   0   1   6  169.08   11.90
   0   1   6  187.88   11.10
   0   1   6  180.78    9.10
   0   1   6  172.38   12.00
   0   1   6  171.78   13.40
  -1  -1  -6  150.28   12.10
   1   1   6  153.78    7.00
   1   1   6  133.79   12.00
   1   1   6  150.58   10.60
   1   1   6  182.08   13.00
  -2  -1  -6   35.40    4.80
   2   1   6   35.70    5.70
   2   1   6   39.90    8.50
   2   1   6   38.10    5.40
   2   1   6   27.90    6.30
  -3  -1  -6  595.74   23.10
   3   1   6  607.34   29.70
   3   1   6  588.94   23.80
   3   1   6  584.64   28.70
  -4  -1  -6    6.30    2.60
   4   1   6    4.30    4.60
   4   1   6    9.10    3.20
   4   1   6    4.40    2.90
   5   1   6   76.19    7.10
   5   1   6   68.79   10.80
   5   1   6   92.99   10.90
   6   1   6   27.90    5.60
   6   1   6   19.20    6.30
   6   1   6   21.70    7.90
   6   1   6   22.40    4.90
   7   1   6  198.98   17.60
   7   1   6  217.18   13.20
   7   1   6  231.18   13.70
   7   1   6  233.68   21.00
   8   1   6  208.28   21.20
   8   1   6  242.48   14.20
   8   1   6  226.28   19.00
   8   1   6  205.98   10.40
   9   1   6   49.10   13.40
   9   1   6   62.49   12.50
   9   1   6   49.00    6.70
  10   1   6   17.00    8.20
  10   1   6   20.30    4.80
  10   1   6   36.90    7.30
  10   1   6   14.80    9.10
  11   1   6   15.80    5.40
  11   1   6   18.00    7.80
  11   1   6   19.00   10.70
  12   1   6    7.60    7.00
  12   1   6   -4.50    3.70
  12   1   6    1.70    3.10
  13   1   6  131.99   17.90
  13   1   6  143.19   22.30
  13   1   6  136.39   12.90
  14   1   6   14.50    8.60
  14   1   6   33.60   12.00
  14   1   6   18.20   10.90
 -14   2   6   -0.10    4.70
 -13   2   6   24.20   10.90
 -13   2   6   12.90    8.00
 -12   2   6   79.89    9.70
 -12   2   6   77.59   16.00
 -12   2   6   67.79   14.60
 -11   2   6   79.59   16.30
 -11   2   6   68.49   14.60
 -11   2   6   90.79   10.00
 -10   2   6   37.00   10.70
 -10   2   6   21.70    6.10
 -10   2   6   28.20   10.00
  -9   2   6   33.80    9.90
  -9   2   6   54.69   12.00
  -9   2   6   42.40    8.30
  -8   2   6  109.69   13.60
  -8   2   6   93.29   12.40
  -8   2   6  107.99   10.50
  -7   2   6  355.36   20.30
  -7   2   6  399.46   24.30
  -7   2   6  375.46   24.60
   6  -2  -6   15.30    5.50
  -6   2   6   24.50    7.70
  -6   2   6   22.70    7.80
  -6   2   6   27.40    6.60
   5  -2  -6    7.70    3.70
  -5   2   6    5.00    3.60
  -5   2   6    8.40    4.80
  -5   2   6   10.20    4.70
   4  -2  -6   26.80    6.20
  -4   2   6   48.90    9.10
  -4   2   6   48.50    7.10
  -4   2   6   42.70    6.50
   3  -2  -6  142.49   10.60
   3  -2  -6  149.79   11.60
  -3   2   6  130.59    5.80
  -3   2   6  129.89    5.60
  -3   2   6  131.09   10.30
  -3   2   6  125.09   11.80
  -3   2   6  139.49   11.40
   2  -2  -6  350.86   19.40
   2  -2  -6  373.26   17.30
  -2   2   6  394.66   18.00
  -2   2   6  414.46   21.30
  -2   2   6  378.06   14.80
  -2   2   6  370.76   20.20
  -2   2   6  380.26   15.40
   1  -2  -6   39.10    5.90
   1  -2  -6   33.60    4.30
   1  -2  -6   31.80    6.60
  -1   2   6   31.10    4.50
  -1   2   6   26.00    3.90
  -1   2   6   24.10    5.90
  -1   2   6   35.50    7.50
  -1   2   6   36.30    4.60
   0  -2  -6   -0.20    1.70
   0  -2  -6    1.30    2.10
   0   2   6    1.30    1.90
   0   2   6   -2.00    1.30
   0   2   6   -1.40    1.50
   0   2   6    0.10    1.80
   0   2   6   -0.30    1.10
  -1  -2  -6  254.87   14.00
  -1  -2  -6  250.47   15.80
   1   2   6  246.78   15.30
   1   2   6  251.67   14.80
   1   2   6  265.47   16.40
   1   2   6  241.18   10.20
   1   2   6  239.18   16.10
  -2  -2  -6 2009.20   62.69
   2   2   6 1993.80   68.09
   2   2   6 2027.30   65.19
   2   2   6 1917.11   66.89
   2   2   6 2016.50   55.49
   2   2   6 2121.19   64.39
  -3  -2  -6  228.88   12.60
   3   2   6  202.68   15.30
   3   2   6  193.48   15.30
   3   2   6  204.08   12.60
  -4  -2  -6  291.67   15.20
   4   2   6  325.87   16.40
   4   2   6  300.77   19.60
   4   2   6  324.57   21.30
   5   2   6  195.18   17.30
   5   2   6  226.78   17.10
   5   2   6  203.08    6.80
   5   2   6  190.08   12.30
   6   2   6    2.00    1.10
   6   2   6    0.50    2.10
   6   2   6    1.40    2.40
   6   2   6   -4.50    1.70
   6   2   6   -0.10    3.00
   7   2   6  786.42   41.60
   7   2   6  793.92   47.70
   7   2   6  774.22   25.50
   7   2   6  784.42   31.40
   8   2   6  105.49    9.80
   8   2   6  102.49   13.30
   8   2   6  105.99   15.10
   8   2   6  101.69    7.20
   9   2   6   13.60    6.10
   9   2   6    2.90    3.30
   9   2   6    6.40    7.90
   9   2   6    5.30    4.30
  10   2   6    0.70    2.20
  10   2   6    8.50    4.40
  10   2   6    1.40    3.80
  10   2   6    2.30    4.80
  11   2   6   97.69   10.70
  11   2   6  107.29   21.00
  11   2   6   59.09   14.30
  12   2   6   94.39   10.90
  12   2   6   82.09   22.50
  12   2   6   56.09   13.70
  13   2   6   -1.90    4.30
  13   2   6    4.90    3.90
  13   2   6    1.40    6.20
  14   2   6   31.90    8.40
  14   2   6   39.10   15.20
  14   2   6   49.10   13.90
 -14   3   6    8.80    9.10
 -14   3   6    5.00    6.10
 -13   3   6   79.69   16.60
 -13   3   6   74.59   16.80
 -12   3   6    8.20    7.20
 -12   3   6    1.10    3.20
 -12   3   6    7.80    7.10
 -11   3   6  183.58   12.70
 -11   3   6  195.88   20.00
 -11   3   6  170.98   19.60
 -10   3   6  116.59   15.50
 -10   3   6  146.09   11.20
 -10   3   6  181.38   18.60
  -9   3   6   81.39   12.40
  -9   3   6   64.29   13.00
  -9   3   6   68.79    7.90
   8  -3  -6  126.79   11.30
  -8   3   6  122.39   14.40
  -8   3   6  146.19   15.90
  -8   3   6  146.69   11.30
   7  -3  -6  115.49   10.40
  -7   3   6  102.69   12.30
  -7   3   6  142.09   14.70
  -7   3   6   91.39    9.20
   6  -3  -6   15.40    4.80
  -6   3   6   22.80    7.00
  -6   3   6   13.60    4.70
  -6   3   6   21.10    6.60
   5  -3  -6  113.99    9.70
  -5   3   6   95.09    9.10
  -5   3   6   70.19    9.20
  -5   3   6   77.69   10.30
   4  -3  -6   20.40    5.30
  -4   3   6   16.30    4.90
  -4   3   6   12.00    5.20
  -4   3   6   21.00    6.00
   3  -3  -6    7.50    3.20
  -3   3   6    7.20    3.80
  -3   3   6   10.80    4.80
  -3   3   6    4.00    1.40
  -3   3   6    2.50    2.40
   2  -3  -6  376.56   17.80
   2  -3  -6  380.46   19.40
  -2   3   6  352.06   20.40
  -2   3   6  403.26   18.70
  -2   3   6  388.06   20.00
  -2   3   6  393.26   15.40
  -2   3   6  380.16   15.60
   1  -3  -6    1.20    2.50
  -1   3   6    3.40    3.00
  -1   3   6    4.50    3.10
  -1   3   6    3.80    2.40
  -1   3   6    3.00    1.90
   0  -3  -6   89.69   10.10
   0  -3  -6   75.79    8.10
   0  -3  -6   72.99    6.90
   0   3   6   70.49    6.00
   0   3   6   58.29    7.70
   0   3   6   65.19    6.70
   0   3   6   67.89    8.00
  -1  -3  -6  638.54   27.70
  -1  -3  -6  637.44   26.10
  -1  -3  -6  615.44   25.90
   1   3   6  633.64   28.90
   1   3   6  647.84   22.00
   1   3   6  595.94   26.80
  -2  -3  -6  325.27   17.00
  -2  -3  -6  322.07   18.00
   2   3   6  340.47   17.90
   2   3   6  335.97   12.80
   2   3   6  346.37   20.00
   2   3   6  361.06   18.80
  -3  -3  -6  113.29    9.20
  -3  -3  -6  106.29   10.30
   3   3   6  133.49   12.10
   3   3   6  110.69    5.50
   3   3   6   90.39    8.70
  -4  -3  -6  141.69   12.60
   4   3   6  157.88   13.90
   4   3   6  146.59   11.00
  -5  -3  -6   25.50    6.80
   5   3   6   25.90    5.70
   5   3   6   21.40    2.70
   5   3   6   32.60    8.50
  -6  -3  -6    6.40    4.60
   6   3   6   10.50    4.40
   6   3   6    7.30    4.30
   6   3   6    4.70    1.90
  -7  -3  -6  546.15   30.20
   7   3   6  508.55   32.60
   7   3   6  573.04   25.80
   7   3   6  517.75   30.20
   7   3   6  504.15   19.60
   8   3   6  122.19   14.50
   8   3   6  121.89    8.30
   8   3   6  117.79   11.00
   8   3   6  129.59   16.60
   9   3   6   56.79    6.20
   9   3   6   60.39   14.20
   9   3   6   49.00    7.70
   9   3   6   54.79   12.30
  10   3   6  127.79   18.20
  10   3   6   94.79   10.80
  10   3   6  102.19   14.40
  11   3   6    8.70    6.40
  11   3   6    6.50    4.40
  11   3   6   30.80   13.20
  12   3   6  105.49   12.20
  12   3   6   84.69   21.00
  12   3   6  100.29   15.80
  13   3   6   27.00   12.70
  13   3   6   15.70    9.30
  13   3   6   26.20    8.00
  14   3   6   15.70    9.50
  14   3   6    1.00    3.60
  14   3   6   21.50   13.20
  15   3   6   -1.50    7.90
  15   3   6    6.20    5.80
  15   3   6    7.00    7.50
 -13   4   6   31.40   11.70
 -13   4   6   23.00   10.60
 -12   4   6   41.20   12.30
 -12   4   6   36.70   11.10
 -11   4   6    2.00    5.50
 -11   4   6   17.70    7.70
 -10   4   6    4.70    5.20
 -10   4   6    8.30    2.90
   9  -4  -6  146.09   10.90
  -9   4   6  186.78   18.40
  -9   4   6  172.18   17.80
  -9   4   6  161.88   10.20
   8  -4  -6  167.78   11.70
  -8   4   6  183.88   11.30
  -8   4   6  173.18   16.90
  -8   4   6  200.18   18.20
   7  -4  -6    1.70    2.20
  -7   4   6    0.20    3.00
  -7   4   6    5.60    3.20
  -7   4   6    2.10    4.10
   6  -4  -6   21.10    5.20
  -6   4   6    9.80    3.60
  -6   4   6   10.40    5.20
  -6   4   6   21.10    7.30
   5  -4  -6  310.17   16.40
  -5   4   6  303.87   16.40
  -5   4   6  348.17   22.60
   4  -4  -6   74.09    7.40
  -4   4   6   78.49    8.00
  -4   4   6   74.79    9.10
  -4   4   6   86.09   10.50
   3  -4  -6  204.18   13.10
   3  -4  -6  207.88    9.30
  -3   4   6  214.58    9.90
  -3   4   6  228.08   16.40
  -3   4   6  195.88   13.20
  -3   4   6  218.78   14.40
   2  -4  -6   -1.90    1.00
   2  -4  -6   -0.90    1.40
  -2   4   6   -1.50    1.30
  -2   4   6   -1.00    2.00
  -2   4   6   -0.60    1.40
  -2   4   6   -0.70    1.60
   1  -4  -6   79.19    6.70
   1  -4  -6   65.39    7.20
  -1   4   6   74.09    8.20
  -1   4   6   69.49    7.10
  -1   4   6   73.89    8.60
  -1   4   6   58.79    6.20
   0  -4  -6  575.24   23.40
   0  -4  -6  513.45   24.40
   0   4   6  545.45   26.10
   0   4   6  590.34   22.50
   0   4   6  546.05   23.70
   0   4   6  521.35   25.30
  -1  -4  -6  612.64   27.60
  -1  -4  -6  637.04   26.80
   1   4   6  611.14   27.00
   1   4   6  676.03   23.70
   1   4   6  634.94   28.90
   1   4   6  662.93   28.60
  -2  -4  -6    6.00    3.60
   2   4   6    7.00    3.50
   2   4   6    5.00    3.30
   2   4   6   12.90    4.40
   2   4   6    7.90    2.40
  -3  -4  -6   25.20    6.80
   3   4   6   24.90    5.70
   3   4   6   30.90    7.90
  -4  -4  -6   21.00    6.80
   4   4   6   36.00    9.20
   4   4   6   21.30    5.50
  -5  -4  -6   10.50    5.20
   5   4   6    8.80    4.20
   5   4   6    1.90    3.10
   6   4   6  105.39   10.60
   6   4   6  123.59    8.20
  -7  -4  -6  421.66   26.40
   7   4   6  375.76   21.60
   7   4   6  412.26   26.30
   7   4   6  413.96   17.90
  -8  -4  -6   84.49   12.20
   8   4   6   73.09    7.10
   8   4   6   85.69   12.40
  -9  -4  -6   28.70    9.60
   9   4   6   47.00   12.40
   9   4   6   30.90    7.90
   9   4   6   28.10    5.70
  10   4   6  123.59   12.90
  10   4   6  115.19   18.00
  10   4   6  126.49   16.30
  11   4   6   56.29   14.20
  11   4   6  110.39   12.50
  11   4   6  145.49   20.50
  12   4   6   49.30   15.30
  12   4   6   28.50    8.80
  12   4   6   15.70   10.00
  13   4   6    2.00    5.20
  13   4   6   -1.00    3.10
  13   4   6   10.60    9.50
  14   4   6    1.20    6.00
  14   4   6    0.20    7.30
  14   4   6    1.10    4.30
  15   4   6   31.50   13.20
  15   4   6   24.30   14.20
  15   4   6   10.70    6.30
 -13   5   6   16.90    8.50
 -12   5   6   14.20    8.10
 -12   5   6   21.30   10.60
 -11   5   6    3.60    5.70
 -11   5   6    0.50    4.70
 -10   5   6   99.39   14.40
 -10   5   6  107.99   15.60
  -9   5   6  166.68   17.80
  -9   5   6  133.49   16.10
   8  -5  -6    3.10    1.90
  -8   5   6    0.50    4.20
  -8   5   6   -1.10    3.50
  -8   5   6    1.50    1.50
   7  -5  -6    9.80    3.10
  -7   5   6    9.10    6.10
  -7   5   6    6.30    4.70
  -7   5   6   13.70    3.50
   6  -5  -6  340.67   15.30
  -6   5   6  296.97   21.50
  -6   5   6  337.07   22.80
  -6   5   6  336.17   21.60
   5  -5  -6   60.69    6.10
  -5   5   6   65.29   10.00
  -5   5   6   48.40    5.90
  -5   5   6   62.69    8.90
   4  -5  -6   73.79    6.80
   4  -5  -6   64.29    4.70
  -4   5   6   59.39    8.40
  -4   5   6   70.69    5.40
  -4   5   6   67.99    9.90
  -4   5   6   74.39    7.40
   3  -5  -6  137.89    8.30
   3  -5  -6  147.19   10.20
  -3   5   6  141.19    9.00
  -3   5   6  136.19   13.00
  -3   5   6  139.69   10.60
  -3   5   6  136.39   11.70
   2  -5  -6    0.50    1.40
  -2   5   6   -0.30    1.40
  -2   5   6   -1.60    2.00
  -2   5   6    5.80    2.70
  -2   5   6    1.30    2.50
   1  -5  -6   38.60    5.30
   1  -5  -6   33.70    5.30
  -1   5   6   42.10    9.00
  -1   5   6   40.60    6.30
  -1   5   6   36.60    5.60
  -1   5   6   32.40    6.30
   0  -5  -6  753.32   30.70
   0  -5  -6  749.53   29.70
   0   5   6  773.62   32.10
   0   5   6  750.92   28.70
   0   5   6  723.23   30.10
   0   5   6  763.02   33.10
  -1  -5  -6  260.07   15.80
   1   5   6  265.57   17.00
   1   5   6  290.17   17.60
   1   5   6  262.07   13.60
   1   5   6  257.77   16.20
  -2  -5  -6  236.48   15.50
   2   5   6  205.98   14.60
   2   5   6  206.68   15.50
  -3  -5  -6  108.49   10.90
   3   5   6  110.99   11.50
   3   5   6   88.49    9.60
  -4  -5  -6   10.20    5.20
   4   5   6   13.10    5.90
   4   5   6   11.10    4.90
  -5  -5  -6   52.79    8.70
   5   5   6   69.39   10.00
   5   5   6   65.09    8.50
  -6  -5  -6   14.20    6.30
   6   5   6    8.10    4.60
   6   5   6    1.40    3.10
  -7  -5  -6  363.26   24.50
   7   5   6  339.47   21.20
   7   5   6  324.67   16.80
   7   5   6  355.46   24.60
  -8  -5  -6   13.60    6.50
   8   5   6    6.10    4.90
   8   5   6    5.80    4.00
   8   5   6    4.80    2.90
  -9  -5  -6  126.89   15.70
   9   5   6  106.79   12.20
   9   5   6  150.18   17.10
 -10  -5  -6  139.59   17.40
  10   5   6  160.78   18.30
  10   5   6  148.59   14.60
 -11  -5  -6   65.39   15.00
  11   5   6   76.89   19.10
  11   5   6   72.49   15.70
  11   5   6   59.69   12.10
  12   5   6    6.10    4.50
  12   5   6   15.00   10.00
  12   5   6   -3.30    2.80
  13   5   6    4.10    7.20
  13   5   6    2.80    5.40
  13   5   6   -2.10    3.50
  14   5   6    4.40    5.10
  14   5   6   14.00    9.20
  14   5   6    7.90    9.30
 -12   6   6   38.90   12.80
 -12   6   6   27.10   10.40
 -11   6   6    2.90    6.10
 -11   6   6    5.60    6.00
 -10   6   6  161.08   19.10
 -10   6   6  139.89   16.90
  -9   6   6   48.80   11.80
  -8   6   6   -2.10    3.50
  -8   6   6    0.90    4.70
  -7   6   6    0.80    3.90
  -7   6   6    3.60    4.40
   6  -6  -6   78.49    4.20
  -6   6   6   64.99   10.50
  -6   6   6   78.69    4.70
  -6   6   6   90.09   12.10
  -6   6   6   69.89    4.80
   5  -6  -6  182.78    9.20
  -5   6   6  161.08    9.20
  -5   6   6  174.08   15.60
  -5   6   6  185.08   16.50
  -5   6   6  186.88   10.20
   4  -6  -6  466.55   18.90
  -4   6   6  420.66   18.90
  -4   6   6  436.76   27.10
  -4   6   6  427.96   24.30
  -4   6   6  482.55   20.00
   3  -6  -6    4.30    2.50
   3  -6  -6    1.90    1.80
  -3   6   6    6.00    3.10
  -3   6   6   -2.30    2.60
  -3   6   6    2.90    2.70
  -3   6   6    2.00    3.10
   2  -6  -6    2.70    2.70
  -2   6   6    1.10    3.50
  -2   6   6    0.70    2.40
  -2   6   6    4.40    2.90
  -2   6   6    5.50    3.00
   1  -6  -6  474.95   21.60
  -1   6   6  447.56   21.80
  -1   6   6  422.56   19.90
  -1   6   6  461.95   25.00
  -1   6   6  429.26   21.70
  -1   6   6  432.96   21.80
   0  -6  -6  141.39   11.30
   0   6   6  122.39   11.00
   0   6   6  130.99   10.30
   0   6   6  134.29   12.50
   0   6   6  132.89   11.50
   0   6   6  133.19   10.30
  -1  -6  -6  205.18   14.50
   1   6   6  197.48   14.80
   1   6   6  200.88   15.00
  -2  -6  -6   42.40    8.20
   2   6   6   47.70    7.50
   2   6   6   51.89    7.90
  -3  -6  -6  190.28   14.80
   3   6   6  154.98   13.80
   3   6   6  141.69   12.60
  -4  -6  -6   61.49    9.20
   4   6   6   48.90   10.70
   4   6   6   46.10    8.90
  -5  -6  -6  741.93   40.70
   5   6   6  720.13   40.00
   5   6   6  782.62   38.40
  -6  -6  -6   60.09    9.90
   6   6   6   37.30    8.90
   6   6   6   56.19   12.40
  -7  -6  -6  135.69   15.30
   7   6   6  188.18   15.50
   7   6   6  140.19   15.90
  -8  -6  -6  100.49   13.60
   8   6   6   90.29   11.20
   8   6   6   86.29   13.20
  -9  -6  -6   67.59   13.80
   9   6   6   89.79   14.40
   9   6   6   79.99   11.10
 -10  -6  -6  105.29   15.40
  10   6   6  110.59   13.20
  10   6   6   95.99   15.10
 -11  -6  -6    5.20    6.30
  11   6   6    3.00    5.00
  11   6   6   -1.70    3.40
 -12  -6  -6    8.60    7.10
  12   6   6    6.30    5.50
  12   6   6   -2.10    3.00
  13   6   6   16.70    7.40
  13   6   6   25.30    9.80
  13   6   6   16.30   10.90
  14   6   6    5.90    5.30
  14   6   6    0.00    5.00
  14   6   6    0.90    7.10
 -12   7   6   28.70    9.90
 -11   7   6  181.38   21.60
 -11   7   6  144.09   18.00
 -10   7   6  104.49   14.90
 -10   7   6   85.29   17.80
  -9   7   6    4.80    5.50
  -9   7   6   10.60    6.70
  -8   7   6    2.60    4.40
  -8   7   6   -2.70    2.40
   7  -7  -6   21.10    2.80
   7  -7  -6   24.50    3.00
  -7   7   6   27.40    9.50
  -7   7   6   31.90   10.00
  -6   7   6   14.20    6.80
  -6   7   6   11.00    6.10
  -6   7   6    4.90    2.70
   5  -7  -6   87.59    7.50
  -5   7   6   62.99    7.00
  -5   7   6   89.69   12.00
  -5   7   6   79.99   11.20
  -5   7   6   76.79    4.60
  -5   7   6   83.69    5.30
   4  -7  -6   16.90    4.40
  -4   7   6   18.30    3.60
  -4   7   6   16.00    5.10
  -4   7   6   16.70    7.20
  -4   7   6    2.30    3.80
  -4   7   6   16.10    4.00
   3  -7  -6    4.60    3.20
  -3   7   6    4.00    2.70
  -3   7   6   -1.50    3.60
  -3   7   6    3.30    3.10
  -3   7   6    2.90    2.10
  -3   7   6    3.30    3.90
   2  -7  -6  340.67   18.30
  -2   7   6  311.57   19.80
  -2   7   6  310.47   18.70
  -2   7   6  332.47   17.70
   1  -7  -6  575.64   26.30
  -1   7   6  555.74   26.60
  -1   7   6  548.55   25.60
  -1   7   6  549.15   29.20
  -1   7   6  575.54   30.30
  -1   7   6  530.05   23.80
   0  -7  -6   70.39    8.90
   0   7   6   90.39    9.60
   0   7   6   94.29   10.90
   0   7   6  100.49    9.60
  -1  -7  -6  122.79   11.80
   1   7   6  120.69   11.60
   1   7   6  121.49   12.20
  -2  -7  -6  199.08   15.60
   2   7   6  160.28   14.20
   2   7   6  193.28   15.20
  -3  -7  -6    2.20    3.90
   3   7   6    8.50    4.20
   4   7   6  362.36   24.70
   4   7   6  436.96   24.10
  -5  -7  -6   24.70    8.10
   5   7   6   31.70    9.40
   5   7   6   33.40    8.60
  -6  -7  -6  132.79   14.80
   6   7   6  162.08   14.80
   6   7   6  135.89   15.40
  -7  -7  -6   12.60    6.70
   7   7   6    5.20    3.60
   7   7   6   16.40    8.00
  -8  -7  -6   45.80   11.20
   8   7   6   48.70   13.60
   8   7   6   39.40    9.80
  -9  -7  -6    3.70    5.60
   9   7   6    3.10    4.80
   9   7   6    1.40    3.50
 -10  -7  -6   40.60   12.10
  10   7   6   61.79   16.40
  10   7   6   57.79   12.40
 -11  -7  -6    6.00    6.40
  11   7   6    0.70    4.10
  11   7   6    9.80    8.10
 -12  -7  -6   12.60    8.20
  12   7   6    6.90    7.70
  12   7   6    2.20    5.40
 -13  -7  -6    1.50    6.50
  13   7   6    4.30    5.80
  13   7   6    2.30    5.10
  14   7   6   42.00   14.20
  14   7   6   67.29   16.20
  14   7   6   44.90   16.80
 -11   8   6   23.70    9.10
 -11   8   6   12.00    8.60
 -10   8   6  102.19   16.40
  -9   8   6   15.20    8.10
  -9   8   6    5.10    6.20
   8  -8  -6   21.10    3.10
  -8   8   6   24.90    8.70
  -8   8   6   33.20   10.70
   7  -8  -6   25.70    5.20
  -7   8   6   26.50    9.00
  -7   8   6   35.50   10.20
  -7   8   6   30.90    5.80
   6  -8  -6  132.39   10.20
  -6   8   6  151.08   16.30
  -6   8   6  148.19   16.00
   5  -8  -6  109.89    9.80
  -5   8   6  101.39   10.00
  -5   8   6   92.29   12.30
  -5   8   6  105.59   13.40
   4  -8  -6    4.80    3.70
  -4   8   6    8.40    6.00
  -4   8   6    7.20    5.20
  -4   8   6    0.90    2.80
  -4   8   6    7.20    2.50
  -4   8   6    4.00    2.00
   3  -8  -6   41.10    6.80
  -3   8   6   50.99   11.10
  -3   8   6   42.60    5.70
  -3   8   6   38.70    9.00
  -3   8   6   34.60    4.80
   2  -8  -6  974.10   39.70
  -2   8   6  965.00   36.70
  -2   8   6 1024.40   44.20
  -2   8   6 1034.70   42.10
  -2   8   6 1012.60   37.40
   1  -8  -6  160.48   13.50
  -1   8   6  142.19   11.10
  -1   8   6  144.59   12.90
  -1   8   6  144.39   14.50
  -1   8   6  151.68   12.10
   0  -8  -6  284.87   19.10
   0   8   6  317.97   19.00
   0   8   6  325.37   21.40
   0   8   6  286.57   18.20
  -1  -8  -6   77.99   10.30
   1   8   6   77.59    9.60
   1   8   6   78.69   10.50
  -2  -8  -6   11.40    5.60
   2   8   6    7.80    4.70
   2   8   6    9.30    5.10
  -3  -8  -6  169.58   15.90
   3   8   6  207.88   16.80
   3   8   6  182.28   15.70
  -4  -8  -6   31.90    8.90
   4   8   6   14.40    5.90
   4   8   6    7.30    4.10
  -5  -8  -6    5.20    5.90
   5   8   6   23.00    7.30
   5   8   6   26.70    9.10
  -6  -8  -6    7.90    5.60
   6   8   6    5.50    4.70
   6   8   6    8.70    5.40
  -7  -8  -6   -0.50    4.00
   7   8   6    3.70    5.40
   7   8   6    2.10    4.70
  -8  -8  -6  181.18   19.30
   8   8   6  201.48   18.20
   8   8   6  192.68   20.20
  -9  -8  -6   10.10    6.90
   9   8   6    4.30    5.30
   9   8   6    1.20    5.00
 -10  -8  -6    4.30    5.90
  10   8   6    8.50    8.20
  10   8   6    3.80    5.20
 -11  -8  -6    1.70    5.90
  11   8   6   -2.50    3.70
  11   8   6    5.40    5.70
 -12  -8  -6    3.50    6.40
  12   8   6   -4.80    3.30
  12   8   6    6.30    5.90
 -13  -8  -6    3.30    6.60
  13   8   6    8.80    8.70
  13   8   6    4.60    5.20
 -14  -8  -6    8.00    8.20
  14   8   6   16.90   13.80
  14   8   6   19.60    9.40
 -11   9   6   -0.50    5.30
 -11   9   6   13.90   10.30
 -10   9   6   11.40    7.60
 -10   9   6    2.40    6.30
  -9   9   6   39.10   11.10
  -9   9   6   64.99   15.60
  -8   9   6   69.09   14.20
  -8   9   6  103.19   15.40
   7  -9  -6   16.70    5.00
  -7   9   6   24.90    9.10
  -7   9   6   18.70    7.80
   6  -9  -6  244.78   15.80
  -6   9   6  229.68   20.90
  -6   9   6  255.87   21.90
   5  -9  -6    2.10    3.00
  -5   9   6    2.20    3.80
  -5   9   6   -0.10    3.80
   4  -9  -6   -2.10    2.20
  -4   9   6    1.10    3.90
  -4   9   6    9.30    5.80
   3  -9  -6   81.59   10.30
  -3   9   6  108.69   12.70
  -3   9   6  124.89   14.30
  -3   9   6   89.49    7.70
  -3   9   6   84.79    7.00
   2  -9  -6    0.30    3.40
  -2   9   6   14.40    4.70
  -2   9   6   11.20    3.90
  -2   9   6    1.80    3.80
  -2   9   6   14.70    6.80
   1  -9  -6  300.37   20.30
  -1   9   6  305.67   20.20
  -1   9   6  315.57   18.30
  -1   9   6  304.47   22.10
   0  -9  -6    3.30    3.40
   0   9   6    0.10    1.90
   0   9   6   -2.10    2.90
   0   9   6   -2.00    2.40
   1   9   6   32.10    7.80
   1   9   6   38.50    9.20
  -2  -9  -6    7.60    4.70
   2   9   6    6.90    3.80
   2   9   6    0.60    3.10
  -3  -9  -6  144.59   15.10
   3   9   6  157.88   15.20
   3   9   6  112.29   13.10
  -4  -9  -6   38.60   10.30
   4   9   6   34.10    9.50
   4   9   6   48.20   11.30
  -5  -9  -6  120.09   14.80
   5   9   6  145.79   16.00
   5   9   6  135.69   14.60
  -6  -9  -6   16.40    7.10
   6   9   6   20.40    8.20
   6   9   6   15.10    6.90
  -7  -9  -6   24.60    8.40
   7   9   6   14.90    7.80
   7   9   6   17.10    6.90
  -8  -9  -6  222.58   21.90
   8   9   6  253.27   23.40
   8   9   6  226.18   20.30
  -9  -9  -6  195.18   21.20
   9   9   6  219.78   22.80
   9   9   6  227.18   20.80
 -10  -9  -6   -2.50    3.60
  10   9   6   11.20    7.30
  10   9   6   -2.10    5.60
 -11  -9  -6    6.70    6.50
  11   9   6    0.30    4.10
  11   9   6   11.60    9.20
 -12  -9  -6   24.50   11.00
  12   9   6    2.30    4.50
  12   9   6    0.60    6.10
 -13  -9  -6   15.40    9.30
  13   9   6    9.70    7.80
  13   9   6   27.10   10.30
 -10  10   6   31.80   10.60
 -10  10   6   42.10   14.00
  -9  10   6    2.70    5.20
  -9  10   6    3.20    6.00
  -8  10   6  178.18   19.20
  -8  10   6  148.99   19.00
   7 -10  -6   63.19    8.90
  -7  10   6   61.69   13.40
  -7  10   6  100.89   15.00
   6 -10  -6   22.80    6.40
  -6  10   6   32.90   11.10
  -6  10   6   26.50    9.40
   5 -10  -6   22.20    7.40
  -5  10   6   15.60    7.20
  -5  10   6    8.10    6.40
   4 -10  -6   63.39    9.70
  -4  10   6   73.59   14.50
  -4  10   6   76.19   12.00
   3 -10  -6  224.78   17.90
  -3  10   6  172.18    9.90
  -3  10   6  195.18   17.80
  -3  10   6  171.28   17.30
  -3  10   6  165.48   12.70
   2 -10  -6    7.60    5.60
  -2  10   6    1.60    2.50
  -2  10   6    4.40    4.90
  -2  10   6    2.20    4.30
  -2  10   6    3.10    2.80
   1 -10  -6    7.20    4.60
  -1  10   6   -0.50    4.10
  -1  10   6    8.50    6.00
  -1  10   6    7.70    4.10
   0 -10  -6    4.50    4.70
   0  10   6    9.10    5.00
   0  10   6    2.20    4.40
   0  10   6    7.20    4.70
  -1 -10  -6    6.50    5.40
   1  10   6   10.60    5.50
   1  10   6    5.30    3.40
  -2 -10  -6  603.04   34.00
   2  10   6  628.64   33.60
   2  10   6  582.04   34.40
  -3 -10  -6   41.80   10.40
   3  10   6   72.69   11.30
   3  10   6   78.59   11.50
  -4 -10  -6   94.59   13.40
   4  10   6   90.69   12.40
   4  10   6   84.39   12.60
  -5 -10  -6   23.90    9.20
   5  10   6   -0.70    3.80
   5  10   6   16.50    7.40
  -6 -10  -6    4.70    5.10
   6  10   6    7.20    5.80
   6  10   6   -2.20    3.00
  -7 -10  -6    2.60    4.10
   7  10   6    7.40    5.70
   7  10   6    2.90    3.80
  -8 -10  -6  141.29   17.90
   8  10   6  123.69   17.10
   8  10   6  128.29   16.10
  -9 -10  -6    7.10    6.90
   9  10   6   13.20    6.80
   9  10   6    5.10    5.50
 -10 -10  -6   54.09   14.40
  10  10   6   75.59   18.50
  10  10   6   73.89   15.50
 -11 -10  -6  107.09   17.60
  11  10   6   86.69   17.60
  11  10   6  100.79   20.30
 -12 -10  -6   -0.70    5.20
  12  10   6   13.50    8.70
  12  10   6   -5.10    4.50
 -13 -10  -6   26.30   11.90
  13  10   6   15.40    9.20
  -9  11   6   -4.70    4.00
  -9  11   6   -1.30    4.90
  -8  11   6   11.80    7.60
  -8  11   6    1.60    5.20
  -7  11   6   41.50   12.80
  -7  11   6   43.00   12.20
   6 -11  -6    0.50    3.60
  -6  11   6    0.30    4.70
  -6  11   6   -1.80    3.30
   5 -11  -6    3.50    4.60
  -5  11   6   13.60    7.30
  -5  11   6    7.40    5.90
   4 -11  -6  273.97   20.60
  -4  11   6  209.78   27.30
  -4  11   6  232.28   21.10
   3 -11  -6   99.89   13.00
  -3  11   6   81.99    6.10
  -3  11   6   89.89    6.20
  -3  11   6   81.39   12.60
  -3  11   6   86.99   13.20
   2 -11  -6  145.49   15.40
  -2  11   6  121.59   10.30
  -2  11   6  140.69   10.80
  -2  11   6  125.49   15.30
  -2  11   6  124.79   14.70
   1 -11  -6    2.50    4.20
  -1  11   6    2.40    2.90
  -1  11   6    0.20    3.50
  -1  11   6    2.30    4.10
   0 -11  -6    2.60    4.60
   0  11   6   -3.40    1.70
   0  11   6    5.10    4.90
   0  11   6   -0.60    4.00
  -1 -11  -6   83.59   12.70
   1  11   6   96.29   13.30
   1  11   6  117.39   14.40
  -2 -11  -6  147.09   16.50
   2  11   6  116.19   14.60
   2  11   6  145.89   14.70
  -3 -11  -6   80.89   12.90
   3  11   6   61.29   12.40
   3  11   6   84.89   12.00
  -4 -11  -6   11.30    6.80
   4  11   6    2.50    4.50
   4  11   6   19.40    8.20
  -5 -11  -6   28.20    9.70
   5  11   6   19.80    8.20
   5  11   6   14.00    7.60
  -6 -11  -6   23.20    9.50
   6  11   6   24.50    9.40
   6  11   6    9.60    6.30
  -7 -11  -6   11.20    7.80
   7  11   6   27.30   11.80
   7  11   6   27.10   10.00
  -8 -11  -6   27.10   10.80
   8  11   6   28.90   10.10
   8  11   6   26.70   10.00
  -9 -11  -6   27.90   10.40
   9  11   6   21.90    8.80
   9  11   6   44.70   12.30
 -10 -11  -6   21.10   10.70
  10  11   6   24.40   10.00
 -11 -11  -6   70.79   16.60
  11  11   6   61.59   17.40
  11  11   6   57.69   14.90
 -12 -11  -6   25.50   11.50
  12  11   6    9.60    8.00
  12  11   6   30.70   13.30
  -8  12   6   11.00    7.60
  -8  12   6   22.80   10.20
  -7  12   6   -0.70    4.70
  -7  12   6   -1.40    4.30
   6 -12  -6   13.90    6.80
  -6  12   6   12.30    7.90
  -6  12   6   20.60    9.60
   5 -12  -6  139.59   15.70
  -5  12   6  170.88   19.00
  -5  12   6  135.09   17.50
   4 -12  -6    7.70    6.30
  -4  12   6    7.90    6.30
  -4  12   6   -0.70    4.30
   3 -12  -6  217.98   20.00
  -3  12   6  198.08   20.00
  -3  12   6  222.58   21.10
   2 -12  -6   46.50   12.00
  -2  12   6   27.10    6.10
  -2  12   6   37.00   11.20
   1 -12  -6   11.40    7.00
  -1  12   6    6.90    4.20
  -1  12   6   15.30    8.10
  -1  12   6   14.30    6.60
   0 -12  -6    9.80    6.20
   0  12   6    2.70    3.60
   0  12   6   22.40    8.70
   0  12   6   13.70    7.10
  -1 -12  -6  136.69   16.50
   1  12   6  124.29   13.50
   1  12   6  151.58   16.80
  -2 -12  -6   17.70    8.30
   2  12   6   31.70    9.20
   2  12   6   26.90    9.00
  -3 -12  -6   82.19   13.70
   3  12   6   63.09   13.60
   3  12   6   71.69   11.50
  -4 -12  -6   38.60   11.90
   4  12   6   37.80   11.10
   4  12   6   16.50    8.40
  -5 -12  -6   22.80    9.20
   5  12   6   20.20    8.10
   5  12   6   17.00    7.60
  -6 -12  -6   46.00   13.30
   6  12   6   32.10   10.00
   6  12   6   25.30    8.80
  -7 -12  -6   13.90    8.00
   7  12   6   15.70    8.20
   7  12   6   20.20    9.80
  -8 -12  -6   16.10    8.70
   8  12   6   50.79   14.80
   8  12   6   51.99   14.20
  -9 -12  -6    4.60    6.50
   9  12   6    7.40    6.70
   9  12   6    9.00    6.50
 -10 -12  -6    0.50    6.10
  10  12   6   23.10   10.00
  10  12   6   13.50   10.00
 -11 -12  -6   10.00    7.70
  11  12   6   42.30   14.20
  11  12   6   24.40   11.90
 -12 -12  -6   10.90    8.80
  12  12   6   33.40   12.40
  12  12   6   29.30   12.50
  -7  13   6   -2.40    3.70
  -7  13   6    5.00    6.00
   6 -13  -6    5.00    5.60
  -6  13   6    4.70    6.80
  -6  13   6   -2.10    5.00
   5 -13  -6   25.80    9.60
  -5  13   6   34.60   11.00
  -5  13   6   24.40    9.30
   4 -13  -6   33.60   10.50
  -4  13   6   29.50   10.50
   3 -13  -6   82.29   15.60
  -3  13   6   65.89   14.70
  -3  13   6  122.09   16.40
   2 -13  -6   17.20    7.90
  -2  13   6    6.20    3.70
  -2  13   6   11.90    7.10
  -2  13   6    4.50    4.90
   1 -13  -6    8.00    7.00
  -1  13   6    8.40    4.40
  -1  13   6    4.60    4.90
  -1  13   6    7.90    6.30
   0 -13  -6  223.78   22.00
   0  13   6  217.88   21.20
   0  13   6  205.28   19.70
  -1 -13  -6   -2.30    3.90
   1  13   6    6.80    4.90
   1  13   6    5.10    5.90
  -2 -13  -6   36.70   11.40
   2  13   6   23.40   10.70
   2  13   6   36.40    9.40
  -3 -13  -6    9.80   10.60
   3  13   6    2.40    4.40
   3  13   6   -3.20    3.60
  -4 -13  -6    4.30    6.30
   4  13   6   -3.00    2.80
   4  13   6    0.80    4.70
  -5 -13  -6   -0.80    4.70
   5  13   6    0.50    3.70
   5  13   6   16.60    8.20
  -6 -13  -6   87.89   18.40
   6  13   6   90.69   14.80
   6  13   6   62.79   14.60
  -7 -13  -6   20.70   10.10
   7  13   6    7.50    6.90
   7  13   6   26.40   11.00
  -8 -13  -6   23.70   11.20
   8  13   6   30.00   11.90
   8  13   6   35.40   12.40
  -9 -13  -6   13.60    9.20
   9  13   6   26.10   10.60
   9  13   6   32.20   12.70
 -10 -13  -6   23.00   11.30
  10  13   6   25.80   12.70
  10  13   6    7.00    6.90
 -11 -13  -6   13.70    9.30
  11  13   6   38.30   13.70
  11  13   6   26.50   13.80
   5 -14  -6   14.50    8.30
  -5  14   6    3.00    5.60
  -5  14   6   10.80    7.50
   4 -14  -6   82.59   16.60
  -4  14   6   66.19   16.10
  -4  14   6   72.89   15.60
   3 -14  -6    4.20    7.30
  -3  14   6   14.00    8.30
  -3  14   6   11.50    7.90
   2 -14  -6   -2.80    3.60
  -2  14   6    4.30    5.80
  -2  14   6   -2.20    4.20
   1 -14  -6   97.09   15.60
  -1  14   6  100.59   11.10
  -1  14   6  116.69   16.70
  -1  14   6  100.79   15.10
   0 -14  -6  101.59   19.50
   0  14   6   72.79   10.50
   0  14   6  100.99   19.40
   0  14   6   56.79   12.90
  -1 -14  -6   46.90   13.80
   1  14   6   40.50   10.30
   1  14   6   62.09   14.90
  -2 -14  -6    7.20    6.80
   2  14   6    2.50    4.30
   2  14   6    0.30    4.20
  -3 -14  -6   39.40   13.00
   3  14   6   23.10    8.30
   3  14   6   24.00    9.30
  -4 -14  -6    0.90    4.60
   4  14   6    4.10    5.50
   4  14   6   -1.00    3.40
  -5 -14  -6   50.29   14.70
   5  14   6   46.30   13.20
   5  14   6   57.59   15.20
  -6 -14  -6    0.20    4.60
   6  14   6    4.30    6.40
   6  14   6    1.20    5.40
  -7 -14  -6   11.10    8.00
   7  14   6    7.20    6.80
   7  14   6    5.60    6.50
  -8 -14  -6    0.90    6.20
   8  14   6   -1.70    4.40
   8  14   6   -3.20    3.70
   9  14   6    9.50   11.90
   9  14   6   32.90   13.80
   3 -15  -6    0.50    5.90
  -3  15   6    4.70    6.40
  -3  15   6    2.30    6.00
   2 -15  -6   39.30   12.20
  -2  15   6   10.60    7.60
  -2  15   6   34.50   11.80
   1 -15  -6   56.89   15.30
  -1  15   6   52.59   14.10
  -1  15   6   35.40   11.80
   0 -15  -6   21.00    9.10
   0  15   6   24.40   10.70
   0  15   6   10.30    6.80
  -1 -15  -6   22.70   10.80
   1  15   6   39.70   11.50
   1  15   6   36.90   10.60
   1  15   6   14.10    8.00
  -2 -15  -6    6.30    6.00
   2  15   6   10.10    6.30
   2  15   6    8.00    6.50
  -3 -15  -6    6.00    7.00
   3  15   6   12.10    7.40
   3  15   6    7.50    5.60
  -4 -15  -6   24.30   11.40
   4  15   6   22.60    9.60
   4  15   6   10.50    7.20
  -5 -15  -6   29.60   12.20
   5  15   6   35.20   10.70
   5  15   6   30.00   11.80
  -6 -15  -6    1.90    5.20
   6  15   6   -0.20    4.30
   6  15   6   -3.20    4.00
  -7 -15  -6    0.50    7.40
   7  15   6    3.60    6.40
   7  15   6   -3.00    4.30
  -8 -15  -6    0.70    5.20
   8  15   6    0.00    6.30
   8  15   6   -3.90    4.10
   0 -16  -6   20.40   10.90
   0  16   6   -1.90    4.50
   0  16   6   13.50    8.60
  -1 -16  -6    9.40    8.40
   1  16   6   -0.60    7.60
   1  16   6   -3.70    4.10
  -2 -16  -6    6.40    7.60
   2  16   6    3.90    6.00
   2  16   6   -1.80    4.50
  -3 -16  -6   12.70   10.20
   3  16   6    5.60    6.80
   3  16   6    3.30    6.00
  -4 -16  -6    2.80    6.60
   4  16   6    6.30    7.60
   4  16   6   10.70    7.40
  -5 -16  -6    1.00    7.20
   5  16   6    4.70    6.00
   5  16   6    3.90   10.90
   6  13  -7   -1.30    4.30
  -6 -13   7   -1.20    4.90
  -6 -13   7    3.20    7.10
   5  13  -7   52.89   13.70
  -5 -13   7   46.20   17.10
  -5 -13   7   20.90   10.90
  -4 -13   7    0.90    6.50
  -4 -13   7   10.80    8.90
   3  13  -7    9.50    5.90
  -3 -13   7   19.60   11.60
  -3 -13   7   10.00    7.30
  -2 -13   7    6.80    8.80
  -2 -13   7    4.60    6.30
  -1 -13   7    7.90    7.10
  -1 -13   7    6.30    8.00
   0 -13   7   21.20   19.00
   0 -13   7   11.50    7.10
   1 -13   7   16.10   11.80
   1 -13   7   25.30   10.20
   2 -13   7   -2.00    4.40
   2 -13   7   11.90    9.20
   8  12  -7    1.80    5.50
  -8 -12   7   -4.10    4.30
  -8 -12   7   -1.80    4.80
   7  12  -7    4.20    5.30
  -7 -12   7    5.60    7.90
  -7 -12   7    6.50    8.00
   6  12  -7   66.39   14.70
  -6 -12   7   41.00   14.10
  -6 -12   7   68.09   17.90
   5  12  -7    4.70    5.50
  -5 -12   7    2.70    7.40
  -5 -12   7   -0.40    4.70
   4  12  -7   31.90    9.50
  -4 -12   7   38.80   13.20
  -4 -12   7   51.19   15.60
   3  12  -7    9.70    5.30
  -3 -12   7   16.60   10.20
  -3 -12   7   17.30    9.20
   2  12  -7    4.10    4.60
  -2 -12   7    3.10    5.20
  -2 -12   7    4.70    6.60
   1  12  -7   17.50    9.20
  -1 -12   7    7.80    8.30
  -1 -12   7   20.50    9.00
   0 -12   7    4.70    5.90
   0 -12   7    7.70    9.20
   1 -12   7    3.00    6.70
   1 -12   7    0.00    3.80
   2 -12   7    9.00    9.60
   3 -12   7    1.20    8.10
   3 -12   7    9.80    6.30
  -4  12  -7   -1.90    3.70
   4 -12   7   -1.50    4.60
   4 -12   7   -4.40    6.20
  -9 -11   7    3.20    6.80
  -8 -11   7   -0.70    5.30
  -8 -11   7    5.20    6.60
  -7 -11   7   60.39   16.30
  -7 -11   7   13.90    8.30
  -6 -11   7   13.10    8.70
  -6 -11   7    7.20    6.80
  -5 -11   7   16.20   10.00
  -5 -11   7    5.70    5.70
   4  11  -7    2.90    4.30
  -4 -11   7   -6.40    4.20
  -4 -11   7    4.70    4.70
   3  11  -7   -0.50    3.80
  -3 -11   7   -2.10    4.30
  -3 -11   7   -2.40    3.50
   2  11  -7   29.40    7.90
  -2 -11   7   27.30   10.40
  -2 -11   7   47.90   15.50
   1  11  -7   53.29    8.10
  -1 -11   7   75.49   21.00
  -1 -11   7   70.79   17.80
   0  11  -7    7.40    3.60
   0 -11   7   15.00   10.20
   0 -11   7    5.50    6.20
   1 -11   7    7.30    6.80
   1 -11   7   17.90   10.40
   2 -11   7   41.90   15.70
   2 -11   7   34.20   10.80
   3 -11   7   18.20   11.30
   3 -11   7    4.40    4.80
   4 -11   7   45.00   11.40
   4 -11   7   53.19   17.90
  -5  11  -7    0.30    4.30
   5 -11   7   -4.50    5.80
   5 -11   7    3.60    4.80
  -6  11  -7   43.20   11.50
   6 -11   7   20.50   20.50
 -10 -10   7    4.80    5.80
 -10 -10   7   11.80    9.40
  -9 -10   7    1.20    4.80
  -9 -10   7   -0.60    4.90
  -8 -10   7    0.30    4.80
  -8 -10   7    0.00    4.90
  -7 -10   7   89.29   21.60
  -7 -10   7   77.19   17.70
  -6 -10   7    9.80    7.90
  -5 -10   7   40.20   12.90
  -5 -10   7   37.80   12.10
  -4 -10   7    2.70    5.70
  -4 -10   7   -2.20    3.10
  -3 -10   7   21.20    9.80
   2  10  -7   21.90    7.00
  -2 -10   7   12.50    7.40
  -2 -10   7   22.00   11.70
   1  10  -7   12.70    5.40
  -1 -10   7    6.90   10.50
  -1 -10   7   -2.60    2.60
   0  10  -7   32.70    6.20
   0 -10   7   46.60   13.20
   0 -10   7   22.10   11.00
  -1  10  -7    3.90    2.70
   1 -10   7   -2.10    5.20
   1 -10   7    4.10    5.20
   2 -10   7    6.60    8.30
   2 -10   7    1.70    4.00
   3 -10   7   21.90   11.60
   3 -10   7   16.10    7.60
  -4  10  -7   79.09   11.30
   4 -10   7   40.00   10.80
   4 -10   7   75.79   20.20
  -5  10  -7   -1.80    3.20
   5 -10   7    2.20    4.50
   5 -10   7    4.30    7.60
  -6  10  -7   23.90    8.40
   6 -10   7   25.70    8.80
   6 -10   7   17.50   11.40
  -7  10  -7   93.59   16.90
   7 -10   7  115.19   25.20
 -11  -9   7   27.30   10.40
 -11  -9   7   52.59   15.00
 -11  -9   7   40.60   13.80
 -10  -9   7    1.40    4.60
 -10  -9   7   -0.90    3.70
 -10  -9   7   -2.80    3.90
  -9  -9   7   13.70    7.80
  -9  -9   7   -0.20    4.90
  -9  -9   7   -1.30    3.60
  -8  -9   7   94.39   14.50
  -8  -9   7   96.19   19.40
  -8  -9   7   99.49   15.00
  -7  -9   7   -2.10    3.40
  -7  -9   7   -0.20    5.00
  -7  -9   7    8.70    6.60
  -6  -9   7  111.29   14.50
  -6  -9   7  120.59   17.50
  -6  -9   7   89.89   17.80
  -5  -9   7    3.00    5.20
  -5  -9   7   -2.70    2.80
  -5  -9   7    2.60    5.50
  -4  -9   7    1.70    5.50
  -4  -9   7   -3.00    2.70
  -4  -9   7    1.60    4.80
  -3  -9   7   16.40    8.20
  -3  -9   7   25.30   10.50
  -2  -9   7  128.79   17.80
  -2  -9   7  115.29   16.20
   1   9  -7   39.00    6.40
  -1  -9   7   19.40    7.80
  -1  -9   7   25.60   10.50
   0   9  -7    8.90    5.90
   0   9  -7   20.10    5.10
   0  -9   7    6.30    5.70
   0  -9   7   15.70    8.90
  -1   9  -7    9.90    3.30
  -1   9  -7    8.70    4.60
   1  -9   7   20.90   10.60
   1  -9   7    6.50    5.90
   2  -9   7   87.99   13.10
   2  -9   7  114.99   19.10
   3  -9   7   50.79   11.90
   3  -9   7   34.50   13.50
  -4   9  -7   10.30    5.90
   4  -9   7   10.10    9.00
   4  -9   7   10.40    6.90
  -5   9  -7    8.10    5.10
   5  -9   7   29.80    9.40
   5  -9   7   10.00    8.80
  -6   9  -7    9.80    5.50
   6  -9   7   12.00    9.80
   6  -9   7   10.50    6.20
  -7   9  -7    4.20    4.60
   7  -9   7    7.20    9.30
   7  -9   7   10.70    6.20
  -8   9  -7  119.69   14.00
   8  -9   7  116.19   25.00
  -9   9  -7   26.50   13.30
   9  -9   7    9.40    9.70
 -12  -8   7   18.40   10.70
 -12  -8   7   15.80    7.60
 -12  -8   7   14.10   10.60
 -11  -8   7    3.70    6.70
 -11  -8   7    0.70    4.90
 -11  -8   7    3.80    5.30
 -10  -8   7   19.60    7.90
 -10  -8   7   26.10   11.20
 -10  -8   7   29.60   10.50
  -9  -8   7   47.90   12.80
  -9  -8   7   66.59   16.70
  -9  -8   7   49.00   11.80
  -8  -8   7   10.10    7.40
  -8  -8   7   15.80    8.00
  -8  -8   7   11.20    7.30
  -7  -8   7  109.59   15.10
  -7  -8   7  108.19   14.70
  -7  -8   7  129.49   29.40
  -6  -8   7   32.50   11.00
  -6  -8   7   51.39   13.10
  -6  -8   7   54.29   12.40
  -5  -8   7   25.70   10.40
  -5  -8   7   48.80   13.10
  -5  -8   7   54.69   12.00
  -4  -8   7   66.29   10.10
  -4  -8   7   69.39   16.40
  -4  -8   7   38.40   11.20
  -3  -8   7  147.89   17.80
  -3  -8   7  112.69   12.40
  -3  -8   7  151.78   17.60
  -2  -8   7    2.40    4.80
  -2  -8   7    0.80    4.20
  -2  -8   7   -1.50    2.40
  -1  -8   7   81.29   17.20
  -1  -8   7   71.39   14.30
   0   8  -7   21.70    5.10
   0   8  -7   19.60    5.40
   0  -8   7   35.90   10.20
   0  -8   7   22.00    9.60
  -1   8  -7   61.19    5.60
  -1   8  -7   48.80    5.50
   1  -8   7   69.59   17.30
   1  -8   7   60.39   13.60
   2  -8   7   53.79   12.50
   2  -8   7   67.19   16.90
   3  -8   7   81.49   18.30
   3  -8   7   81.89   15.50
  -4   8  -7   12.10    5.60
   4  -8   7   17.30    7.40
   4  -8   7   11.40    8.50
  -5   8  -7    7.50    4.80
   5  -8   7   15.80    7.10
   5  -8   7   22.40   11.30
  -6   8  -7    8.30    4.90
   6  -8   7    4.50    5.10
   6  -8   7    6.50    8.40
  -7   8  -7   54.99   10.30
   7  -8   7   29.80   13.40
   7  -8   7   55.29   12.20
  -8   8  -7   26.30    7.80
   8  -8   7   37.00    9.30
   8  -8   7   14.10   10.50
  -9   8  -7   19.20    7.40
   9  -8   7   13.30   11.10
  10  -8   7    4.80   11.00
 -12  -7   7   12.70    6.70
 -12  -7   7    0.50    4.80
 -12  -7   7    1.40    5.50
 -11  -7   7    6.00    7.00
 -11  -7   7    3.10    5.20
 -11  -7   7    4.50    5.50
 -10  -7   7   11.10    6.30
 -10  -7   7    5.40    6.30
 -10  -7   7   -5.30    3.30
  -9  -7   7   25.80    8.50
  -9  -7   7   13.10    7.20
  -9  -7   7   36.70   12.00
  -8  -7   7  122.19   33.40
  -8  -7   7   53.29   12.10
  -8  -7   7   73.39   11.40
  -7  -7   7   75.39   15.60
  -7  -7   7   82.89   12.30
  -7  -7   7   99.29   13.80
  -6  -7   7   20.30    8.10
  -6  -7   7   25.30    9.20
  -6  -7   7   28.20    9.70
  -5  -7   7   -2.60    3.10
  -5  -7   7    2.90    4.20
  -5  -7   7    0.60    4.30
  -4  -7   7  142.19   17.00
  -4  -7   7  182.78   18.10
  -4  -7   7  124.09   13.40
  -3  -7   7  115.59   14.10
  -3  -7   7  116.99   15.40
  -3  -7   7  148.59   16.80
  -2  -7   7   41.50   10.70
  -2  -7   7   25.40    9.00
  -2  -7   7   44.60    8.70
  -1  -7   7    0.50    2.70
  -1  -7   7   -1.10    3.30
  -1  -7   7    9.40    5.50
   0   7  -7   27.60    6.00
   0  -7   7   33.80   12.00
   0  -7   7   45.60   11.50
  -1   7  -7  252.37   12.10
  -1   7  -7  250.67   13.00
   1  -7   7  230.48   23.20
   1  -7   7  283.87   22.40
   2  -7   7  455.75   33.60
   2  -7   7  438.96   28.70
   3  -7   7    3.50    4.90
   3  -7   7    3.60    5.70
  -4   7  -7    6.30    3.60
   4  -7   7   -1.00    3.60
   4  -7   7    8.50    8.00
  -5   7  -7   89.69    9.80
   5  -7   7   76.99   17.80
   5  -7   7   71.89   11.50
   6  -7   7   29.90    8.90
  -7   7  -7  174.78   14.20
   7  -7   7  176.78   24.00
   7  -7   7  186.88   17.40
  -8   7  -7    9.10    4.90
   8  -7   7    1.90    4.10
   8  -7   7   21.60   11.40
  -9   7  -7    9.60    5.40
   9  -7   7   10.10    9.60
   9  -7   7    5.90    4.80
 -10   7  -7   26.90    9.00
  10  -7   7   26.60   14.00
 -13  -6   7   14.00    9.10
 -13  -6   7   25.80   12.20
 -12  -6   7   19.10    9.70
 -12  -6   7   12.50    8.60
 -12  -6   7    7.90    7.70
 -11  -6   7   71.69   16.00
 -11  -6   7   63.49    9.40
 -11  -6   7   56.79   15.20
 -10  -6   7  100.59   20.10
 -10  -6   7   96.09   15.10
 -10  -6   7   77.29   10.70
  -9  -6   7   -0.50    3.40
  -9  -6   7    3.20    6.10
  -8  -6   7   62.59   11.70
  -8  -6   7   31.30   10.00
  -8  -6   7   60.69   14.60
  -7  -6   7   11.50    7.40
  -7  -6   7    6.60    5.20
  -7  -6   7   26.60    8.30
  -6  -6   7   16.80    7.90
  -6  -6   7   26.70    9.10
  -6  -6   7   40.70    9.90
  -5  -6   7  185.88   17.60
  -5  -6   7  176.38   18.60
  -5  -6   7  197.88   17.10
  -4  -6   7   82.29   10.70
  -4  -6   7   75.59   12.40
  -4  -6   7   99.59   12.90
  -3  -6   7   25.60    7.50
  -3  -6   7    7.70    6.10
  -3  -6   7   18.00    8.10
  -2  -6   7    5.70    5.70
  -2  -6   7    6.20    5.70
  -2  -6   7   24.20    6.40
  -1  -6   7   35.70   10.00
  -1  -6   7   19.90    8.50
  -1  -6   7   30.50    6.40
   0   6  -7   12.60    4.30
   0  -6   7    1.60    2.40
   0  -6   7   10.00    6.10
   0  -6   7    9.40    6.50
  -1   6  -7  232.68   12.50
   1  -6   7  243.38   22.60
   1  -6   7  289.67   22.00
   1  -6   7  251.97   12.70
  -2   6  -7  104.59    5.60
  -2   6  -7   99.59    5.20
   2  -6   7   90.99   14.60
   2  -6   7   82.79   12.00
   3  -6   7   44.40   12.60
   3  -6   7   41.80   10.70
  -4   6  -7   39.40    6.10
   4  -6   7   32.20    9.40
   4  -6   7   33.70   11.50
  -5   6  -7    3.50    2.80
   5  -6   7   -0.60    2.80
   5  -6   7    0.30    5.70
  -6   6  -7   12.70    4.60
   6  -6   7   16.10    7.40
   6  -6   7   30.90   12.50
  -7   6  -7   49.70    7.30
   7  -6   7   38.90   10.80
   7  -6   7   31.40   13.10
  -8   6  -7   19.60    6.20
   8  -6   7   52.29   17.00
   8  -6   7   23.30    8.50
  -9   6  -7   13.80    5.40
   9  -6   7    9.40    6.00
   9  -6   7    5.70    8.80
 -10   6  -7   40.70    8.60
  10  -6   7   23.60    8.40
  10  -6   7   24.30   12.50
  11  -6   7   40.00   15.10
 -13  -5   7    1.30    5.20
 -13  -5   7   -4.10    3.70
 -12  -5   7   25.70   11.00
 -12  -5   7   12.50    7.30
 -11  -5   7   19.30    8.80
 -11  -5   7   28.70   11.20
 -11  -5   7   28.30    7.20
 -10  -5   7   40.10    8.00
 -10  -5   7   41.00   18.40
 -10  -5   7   39.90   15.70
  -9  -5   7   81.59   10.10
  -9  -5   7   83.49   16.60
  -9  -5   7   87.79   13.90
  -8  -5   7   17.60    8.00
  -8  -5   7   15.30    8.20
  -8  -5   7   32.70    8.00
  -7  -5   7   11.10    6.20
  -7  -5   7    0.30    3.20
  -7  -5   7    0.80    3.90
  -6  -5   7   33.80   10.30
  -6  -5   7   28.70    7.80
  -6  -5   7   26.60    8.70
  -5  -5   7  443.56   26.30
  -5  -5   7  386.26   27.50
  -5  -5   7  413.86   24.80
  -4  -5   7   71.99   14.20
  -4  -5   7   61.49    9.30
  -4  -5   7   51.59   10.40
  -3  -5   7   84.09   12.50
  -3  -5   7   78.59    9.80
  -3  -5   7   70.09   10.80
  -2  -5   7   53.69    7.70
  -2  -5   7   76.39   11.70
  -2  -5   7   64.49   10.50
  -1  -5   7  189.68   18.10
  -1  -5   7  205.28   13.80
  -1  -5   7  200.08   18.30
   0   5  -7  251.47   14.80
   0  -5   7  274.77   22.10
   0  -5   7  285.67   21.70
   0  -5   7  263.77   14.90
  -1   5  -7   47.60    5.40
   1  -5   7   43.00   11.70
   1  -5   7   43.90   10.00
   1  -5   7   49.40    5.50
  -2   5  -7   36.40    3.70
   2  -5   7   31.20   10.60
   2  -5   7   35.60    3.70
   2  -5   7   39.60   11.70
   3  -5   7   14.50    8.10
   3  -5   7   22.50    9.20
  -4   5  -7  302.67   15.10
   4  -5   7  228.68   22.90
   4  -5   7  256.57   20.40
  -5   5  -7   51.09    6.40
   5  -5   7   50.39   11.30
   5  -5   7   31.80   11.80
  -6   5  -7   45.00    6.20
   6  -5   7   53.89   13.80
   6  -5   7   51.39   12.00
  -7   5  -7  149.88   11.00
   7  -5   7   96.79   19.60
   7  -5   7  127.69   14.90
  -8   5  -7   31.30    6.60
   8  -5   7    3.80    7.90
   8  -5   7   47.60   11.40
  -9   5  -7   48.30    7.20
   9  -5   7   63.99   17.60
   9  -5   7   23.30    8.50
 -10   5  -7   23.30    7.20
  10  -5   7   30.50   13.20
  10  -5   7   30.60    9.50
  11  -5   7    8.10    6.30
  11  -5   7   -6.40    5.80
  12  -5   7   14.30   10.60
 -13  -4   7   -1.40    4.50
 -13  -4   7    9.90    8.40
 -12  -4   7    3.30    6.50
 -12  -4   7   -0.80    4.80
 -11  -4   7    2.30    2.60
 -11  -4   7   -4.90    2.80
 -10  -4   7   94.69   18.10
 -10  -4   7   58.29   13.80
 -10  -4   7   48.70    6.80
  -9  -4   7  152.38   12.10
  -9  -4   7  187.48   19.40
  -9  -4   7  205.68   20.40
  -8  -4   7   10.10    7.30
  -8  -4   7    5.10    4.20
  -8  -4   7    2.80    4.60
  -7  -4   7    1.80    4.10
  -7  -4   7   11.00    6.50
  -7  -4   7   17.70    5.50
  -6  -4   7    4.20    4.80
  -6  -4   7    4.80    3.80
  -6  -4   7   25.20    8.20
  -5  -4   7   16.70    7.70
  -5  -4   7   10.20    5.40
  -5  -4   7    3.30    3.50
  -4  -4   7    8.60    5.50
  -4  -4   7    6.40    4.20
  -4  -4   7    6.00    4.30
  -3  -4   7   11.70    5.50
  -3  -4   7    9.80    6.00
  -3  -4   7   23.30    6.60
  -2  -4   7   89.79   12.50
  -2  -4   7   71.39   10.30
  -2  -4   7   84.09    9.30
   1   4  -7   92.49   10.70
  -1  -4   7   79.09   11.40
  -1  -4   7   98.49    9.30
  -1  -4   7  111.99   13.50
   0   4  -7  607.74   26.10
   0  -4   7  694.03   35.30
   0  -4   7  641.24   34.10
   0  -4   7  657.53   26.60
  -1   4  -7  105.99    8.10
   1  -4   7   97.19   13.20
   1  -4   7   81.49   11.50
   1  -4   7  108.39    8.20
  -2   4  -7   23.80    3.30
   2  -4   7   17.20    7.50
   2  -4   7   24.10    7.30
   2  -4   7   20.10    3.30
   3  -4   7  155.68    6.40
   3  -4   7  153.18   17.00
   3  -4   7  153.08   15.20
  -4   4  -7    9.60    3.30
   4  -4   7   10.10    5.70
   4  -4   7    3.20    5.60
  -5   4  -7  513.05   20.60
   5  -4   7  519.45   35.10
  -6   4  -7   11.10    3.60
   6  -4   7    5.40    4.80
   6  -4   7   18.60    9.30
  -7   4  -7  203.58   11.80
   7  -4   7  146.59   16.00
   7  -4   7  148.09   20.10
  -8   4  -7   10.90    3.70
   8  -4   7   13.30    6.70
   8  -4   7   11.60    8.60
  -9   4  -7   30.40    6.10
   9  -4   7   34.10   10.60
 -10   4  -7   69.19    8.30
  10  -4   7  102.79   14.00
  10  -4   7   61.19   16.70
 -11   4  -7   27.40    6.90
  11  -4   7   20.60   11.20
  11  -4   7   18.80    8.40
  12  -4   7    1.10    5.80
  12  -4   7   34.80   14.80
 -14  -3   7   -0.70    4.70
 -14  -3   7    0.10    5.10
 -13  -3   7   16.00    9.10
 -13  -3   7   17.80    8.40
 -12  -3   7   57.39   14.40
 -12  -3   7   74.49   15.50
 -11  -3   7   27.90   10.20
 -11  -3   7   27.10    9.60
 -10  -3   7  217.98   20.70
 -10  -3   7  149.99   20.40
 -10  -3   7  156.88   10.90
   9   3  -7    5.60    3.60
  -9  -3   7   -0.60    3.10
  -9  -3   7    6.30    2.80
  -9  -3   7   -6.20    2.50
  -8  -3   7   26.30    5.60
  -8  -3   7   38.10   10.50
  -8  -3   7   23.40    8.50
   7   3  -7    7.60    4.00
  -7  -3   7   13.50    6.70
  -7  -3   7   18.60    5.20
  -7  -3   7   15.60    7.40
   6   3  -7  252.87   16.40
  -6  -3   7  264.37   15.80
  -6  -3   7  286.67   21.00
  -6  -3   7  252.87   20.80
   5   3  -7   21.90    6.60
  -5  -3   7   20.20    7.90
  -5  -3   7   18.80    6.80
  -5  -3   7    6.90    3.80
   4   3  -7   49.40    7.70
  -4  -3   7   44.00    7.10
  -4  -3   7   57.49   12.40
  -4  -3   7   34.20    8.30
   3   3  -7   33.90    8.70
  -3  -3   7   22.10    6.40
  -3  -3   7   18.70    6.90
  -3  -3   7   21.30    6.10
  -2  -3   7  106.59   12.70
  -2  -3   7  120.19   12.10
  -2  -3   7  112.99   10.70
   1   3  -7  560.34   25.40
   1   3  -7  548.25   23.40
  -1  -3   7  529.85   28.40
  -1  -3   7  531.05   24.70
  -1  -3   7  526.25   29.80
   0   3  -7  234.68   18.80
   0   3  -7  229.98   13.60
   0  -3   7  225.58   17.90
   0  -3   7  225.08   13.70
   0  -3   7  249.78   18.90
  -1   3  -7   89.19    7.50
   1  -3   7   68.49   10.50
   1  -3   7  101.79   12.10
   1  -3   7   68.49    6.80
  -2   3  -7   76.59    6.20
   2  -3   7   96.69   12.10
   2  -3   7  100.49   13.10
   2  -3   7   96.49    7.20
  -3   3  -7   18.00    2.60
   3  -3   7   21.10    3.00
   3  -3   7   15.90    6.80
   3  -3   7   37.90   11.80
  -4   3  -7  108.89    6.70
   4  -3   7  105.59    4.40
   4  -3   7  106.09   12.80
   4  -3   7  100.69   14.40
  -5   3  -7   34.40    3.90
   5  -3   7   36.80    9.50
   5  -3   7   42.90   11.30
  -6   3  -7   42.90    5.50
   6  -3   7   30.90    9.50
   6  -3   7   31.80   11.00
  -7   3  -7   60.49    5.80
   7  -3   7   60.99   13.00
   7  -3   7   60.89   15.50
  -8   3  -7  212.98   11.90
   8  -3   7  189.28   18.40
   8  -3   7  191.78   22.80
  -9   3  -7  136.39   10.00
   9  -3   7  139.19   16.00
   9  -3   7  135.99   20.40
 -10   3  -7  101.59    9.10
  10  -3   7  107.39   14.70
  10  -3   7  129.49   20.60
  11  -3   7   12.50    9.00
  11  -3   7   10.20    7.10
  12  -3   7   -1.30    6.20
  12  -3   7   -1.40    4.20
  13  -3   7   -1.60    7.00
  13  -3   7    7.50    7.80
 -14  -2   7    4.80    6.10
 -13  -2   7   14.00    8.80
 -13  -2   7   19.40    8.60
 -12  -2   7    0.40    4.20
 -12  -2   7   -0.20    5.50
 -11  -2   7   22.60    8.60
 -11  -2   7   16.60    8.40
 -10  -2   7   41.00   11.70
 -10  -2   7   26.00    9.40
   9   2  -7    1.50    1.80
  -9  -2   7   -2.80    3.40
  -9  -2   7    3.00    4.60
   8   2  -7    6.40    2.90
  -8  -2   7    3.80    2.00
  -8  -2   7    6.60    5.20
  -8  -2   7    2.80    4.10
   7   2  -7  256.57   13.80
  -7  -2   7  212.08   19.10
  -7  -2   7  290.17   21.90
   6   2  -7   67.19    7.10
  -6  -2   7   54.09   11.70
  -6  -2   7   41.70    9.60
  -6  -2   7   56.09    6.10
   5   2  -7  265.87   15.50
  -5  -2   7  282.97   20.00
  -5  -2   7  259.67   14.80
   4   2  -7   15.90    4.80
  -4  -2   7   17.10    6.20
  -4  -2   7   19.90    5.00
  -4  -2   7   33.00    9.40
   3   2  -7   -1.30    1.70
  -3  -2   7   -1.20    2.20
  -3  -2   7   -1.20    2.40
  -3  -2   7    4.40    3.30
   2   2  -7   51.59    6.40
   2   2  -7   46.00    7.20
  -2  -2   7   43.50    7.20
  -2  -2   7   57.19    7.80
  -2  -2   7   54.99   11.40
   1   2  -7  359.86   19.10
   1   2  -7  342.37   21.00
  -1  -2   7  354.26   19.20
  -1  -2   7  338.07   20.50
  -1  -2   7  362.76   22.90
   0   2  -7   96.39    7.40
   0   2  -7  109.39    9.10
   0  -2   7  109.59    9.50
   0  -2   7  122.59   12.80
   0  -2   7   91.89   10.90
  -1   2  -7   29.60    4.60
  -1   2  -7   30.80    3.80
   1  -2   7   30.70    5.90
   1  -2   7   28.00    8.30
   1  -2   7   46.70   10.30
  -2   2  -7  333.67   12.70
  -2   2  -7  318.97   14.60
   2  -2   7  309.47   21.40
   2  -2   7  300.77   14.80
   2  -2   7  313.47   22.30
  -3   2  -7  691.93   22.20
  -3   2  -7  758.42   25.20
   3  -2   7  780.32   36.40
   3  -2   7  726.93   37.70
  -4   2  -7  166.58    6.80
  -4   2  -7  174.38    8.20
   4  -2   7  169.08    8.80
   4  -2   7  163.08   15.60
   4  -2   7  166.48   17.60
  -5   2  -7    2.30    1.20
   5  -2   7    2.90    1.60
   5  -2   7    2.40    1.40
   5  -2   7    7.50    5.20
   5  -2   7    2.30    4.20
  -6   2  -7    1.90    1.40
   6  -2   7    0.60    5.10
   6  -2   7    4.30    1.30
  -7   2  -7    5.30    2.10
   7  -2   7    3.30    4.70
   7  -2   7    4.30    5.60
  -8   2  -7   45.20    5.30
   8  -2   7   67.49   13.10
   8  -2   7   54.09   14.80
   9  -2   7  229.78   25.50
   9  -2   7  214.48   19.90
  10  -2   7   75.59   15.20
  10  -2   7  107.19   24.60
  11  -2   7    6.30    5.70
  11  -2   7    7.40    7.50
  12  -2   7   -5.20    4.70
  12  -2   7   -1.70    4.10
  13  -2   7   22.70    9.40
  13  -2   7   30.10   14.60
 -14  -1   7   -0.40    5.70
 -14  -1   7   26.20   10.10
 -13  -1   7   44.90   12.80
 -13  -1   7   84.19   13.10
 -12  -1   7   32.70    9.70
 -12  -1   7   42.60   13.10
 -11  -1   7   12.70    6.70
 -11  -1   7   22.00    8.30
 -10  -1   7   -2.10    4.00
 -10  -1   7   -1.30    3.70
  -9  -1   7   92.69   12.70
  -9  -1   7   76.79   12.50
  -8  -1   7   46.00   11.50
  -8  -1   7   28.50    8.80
  -7  -1   7   37.50   10.00
  -7  -1   7   49.30   11.10
   6   1  -7  301.87   12.90
  -6  -1   7  278.77   21.10
  -6  -1   7  308.37   22.00
  -6  -1   7  306.57   12.10
   5   1  -7   50.29    5.40
  -5  -1   7   56.79    5.40
  -5  -1   7   58.39   12.20
  -5  -1   7   51.59   10.70
   4   1  -7   99.39    8.30
  -4  -1   7   89.79   11.40
  -4  -1   7   88.09    8.80
  -4  -1   7  115.89   12.00
   3   1  -7  249.88   14.60
  -3  -1   7  251.87   14.60
  -3  -1   7  263.87   17.70
  -3  -1   7  272.77   19.40
   2   1  -7  694.33   27.50
   2   1  -7  658.73   28.70
  -2  -1   7  682.13   29.10
  -2  -1   7  733.13   34.30
  -2  -1   7  727.93   31.60
   1   1  -7   -0.50    1.40
   1   1  -7    5.90    3.20
   1   1  -7    3.10    2.10
  -1  -1   7    4.70    3.10
  -1  -1   7    2.90    3.10
  -1  -1   7    8.60    4.10
   0   1  -7   69.19    8.70
   0   1  -7   74.99    5.90
   0   1  -7   84.19    8.10
   0  -1   7   74.49   10.00
   0  -1   7   82.39    8.10
   0  -1   7   76.99    9.60
  -1   1  -7  352.46   13.90
  -1   1  -7  394.36   20.10
   1  -1   7  430.66   24.00
   1  -1   7  377.66   18.50
  -2   1  -7  462.95   19.50
   2  -1   7  480.95   27.20
   2  -1   7  449.95   26.20
   2  -1   7  481.45   20.60
  -3   1  -7  628.34   23.50
   3  -1   7  666.63   34.50
   3  -1   7  677.63   33.30
   3  -1   7  628.14   24.50
  -4   1  -7  154.98    9.00
   4  -1   7  161.28   16.50
   4  -1   7  173.38   10.10
   4  -1   7  188.78   16.40
   5  -1   7    8.80    5.70
   5  -1   7    4.60    3.30
   5  -1   7    5.80    2.50
   6  -1   7   65.89    7.30
   6  -1   7   86.79   13.60
   6  -1   7   68.09    5.80
   7  -1   7    3.80    2.10
   7  -1   7    4.50    6.50
   7  -1   7    7.50    3.10
   7  -1   7    3.70    4.50
   8  -1   7  200.08   22.10
   8  -1   7  165.08    9.50
   8  -1   7  188.98   18.10
   8  -1   7  166.58    9.80
   9  -1   7   24.20   10.20
   9  -1   7   23.40    8.70
   9  -1   7   16.60    4.00
   9  -1   7   14.30    3.50
  10  -1   7   35.10   13.80
  10  -1   7   11.60    6.60
  10  -1   7   15.00    3.50
  11  -1   7   28.40   11.60
  11  -1   7    7.00    2.90
  11  -1   7   12.80    6.80
  12  -1   7   90.59   17.40
  12  -1   7   77.69   20.00
  13  -1   7   -1.70    6.00
  14  -1   7   25.50   11.20
  14  -1   7   34.80   16.80
 -14   0   7   43.70   14.00
 -14   0   7   43.40   11.50
 -13   0   7   19.50    9.20
 -13   0   7   26.10    9.10
 -12   0   7   43.80   12.80
 -12   0   7   72.39   11.60
 -11   0   7    6.30    5.10
 -11   0   7   -2.90    3.60
 -11   0   7   12.20    6.90
 -10   0   7   44.40   11.00
 -10   0   7   49.30   13.40
 -10   0   7   75.09   11.10
  -9   0   7   84.19   11.70
  -9   0   7   87.69   12.80
  -9   0   7   69.49   14.40
  -8   0   7   43.00   11.20
  -8   0   7   55.29   11.40
  -8   0   7   69.19   10.60
  -7   0   7    3.50    4.20
  -7   0   7    2.80    4.10
  -7   0   7    1.50    4.00
  -6   0   7  261.17   20.10
  -6   0   7  240.78   17.90
  -6   0   7  253.77   18.90
  -5   0   7   84.59   11.70
  -5   0   7   66.59    3.50
  -5   0   7   69.09   10.00
  -5   0   7   83.99    9.80
  -5   0   7   67.69    3.40
  -4   0   7   76.79    8.80
  -4   0   7   75.89    5.30
  -4   0   7   66.89    9.60
  -4   0   7   72.89    5.80
  -4   0   7  104.09   11.60
  -3   0   7  951.90   41.10
  -3   0   7  923.21   33.30
  -3   0   7  974.10   32.00
  -3   0   7  971.40   40.00
  -3   0   7 1027.80   37.20
   2   0  -7   34.00    4.90
  -2   0   7   27.80    4.20
  -2   0   7   40.80    8.60
  -2   0   7   30.20    5.00
  -2   0   7   48.40    9.10
  -2   0   7   43.50    5.80
   1   0  -7  126.59    8.40
  -1   0   7  117.89    9.10
  -1   0   7  105.49   10.30
  -1   0   7  121.89   10.40
  -1   0   7  130.19   12.60
   0   0  -7   15.60    3.10
   0   0  -7   10.80    3.90
   0   0   7   16.80    5.40
   0   0   7   35.60    7.60
   0   0   7   15.70    4.50
   0   0   7   12.30    4.60
  -1   0  -7    1.90    1.20
  -1   0  -7   -0.30    1.20
   1   0   7    0.60    2.00
   1   0   7   -0.50    2.20
   1   0   7   -2.90    1.90
   1   0   7    0.50    2.20
  -2   0  -7   68.99    7.60
   2   0   7   63.49    6.90
   2   0   7   67.49    9.40
   2   0   7   60.29    9.10
  -3   0  -7  512.95   21.00
   3   0   7  493.45   28.40
   3   0   7  564.74   29.10
   3   0   7  518.05   22.10
  -4   0  -7   41.10    4.90
   4   0   7   41.80   10.50
   4   0   7   39.40    5.20
   4   0   7   47.30   10.20
   5   0   7   -3.00    1.00
   5   0   7   -0.40    2.70
   6   0   7  153.78   10.00
   6   0   7  129.29   16.00
   6   0   7  141.79    9.80
   7   0   7    6.20    2.90
   7   0   7    5.20    4.80
   7   0   7   -1.40    4.10
   8   0   7  181.78   11.90
   8   0   7  176.78   17.70
   8   0   7  171.98   11.10
   8   0   7  175.48   20.20
   9   0   7   74.89   12.30
   9   0   7   42.90    7.40
   9   0   7   47.00   13.30
   9   0   7   43.00    5.90
  10   0   7    2.50    2.60
  10   0   7   21.60    9.60
  10   0   7    7.00    6.60
  11   0   7   52.39    6.80
  11   0   7   67.79   15.00
  11   0   7   61.89   16.40
  12   0   7   97.79   15.50
  12   0   7   96.89    9.30
  12   0   7  120.09   24.80
  13   0   7   58.09   14.10
  13   0   7   61.39   19.20
  14   0   7    9.10   10.90
  14   0   7    2.30    6.60
 -14   1   7    3.70    6.00
 -13   1   7    5.60    7.40
 -13   1   7   34.90   12.80
 -13   1   7   14.10    6.90
 -12   1   7   39.90   12.60
 -12   1   7   53.89   11.50
 -12   1   7   61.49   14.40
 -11   1   7   -4.70    3.30
 -11   1   7   17.10    8.60
 -11   1   7   11.40    5.90
 -10   1   7   19.00    8.50
 -10   1   7    9.10    5.60
 -10   1   7   12.90    7.40
  -9   1   7  252.77   22.30
  -9   1   7  270.57   22.00
  -8   1   7  218.28   19.00
  -8   1   7  239.28   20.60
  -8   1   7  251.97   18.70
  -7   1   7   98.49   11.50
  -7   1   7   78.79   11.90
  -7   1   7  108.09   12.60
  -6   1   7    8.10    5.40
  -6   1   7    6.20    4.70
  -6   1   7    3.00    3.80
  -5   1   7  142.09   14.80
  -5   1   7  215.48   15.60
  -5   1   7  196.48   15.60
  -4   1   7  302.87    9.50
  -4   1   7  304.67   18.20
  -4   1   7  291.87    9.40
  -4   1   7  326.77   20.40
  -4   1   7  347.57   21.30
  -3   1   7  169.58   12.30
  -3   1   7  160.38   13.70
  -3   1   7  192.68   15.10
  -3   1   7  176.08    9.40
  -3   1   7  165.68    8.50
   2  -1  -7  169.58   11.00
  -2   1   7  172.98    9.70
  -2   1   7  161.78   11.10
  -2   1   7  149.39   12.00
  -2   1   7  170.78   14.20
  -2   1   7  153.38   13.10
   1  -1  -7   51.99    5.30
  -1   1   7   51.69    6.60
  -1   1   7   46.50    5.40
  -1   1   7   52.49    7.40
  -1   1   7   53.29    5.90
  -1   1   7   43.80    8.80
   0  -1  -7   96.79   10.40
   0  -1  -7  103.19    6.50
   0   1   7   92.29    7.30
   0   1   7  102.49   11.10
   0   1   7  114.79   10.30
   0   1   7   91.59    9.40
   0   1   7   75.69    8.60
  -1  -1  -7   66.19    7.00
   1   1   7   60.09    8.70
   1   1   7   68.89    8.70
   1   1   7   54.99    7.00
   1   1   7   54.99    7.00
  -2  -1  -7  313.27   16.30
   2   1   7  351.16   21.60
   2   1   7  340.07   17.50
  -3  -1  -7   30.50    5.60
   3   1   7   36.20    6.80
   3   1   7   29.30    8.50
   3   1   7   12.50    5.80
  -4  -1  -7   32.40    4.80
   4   1   7   37.80    9.50
   4   1   7   30.70    6.20
   4   1   7   21.60    7.30
  -5  -1  -7  320.57   15.70
   5   1   7  337.67   22.80
   5   1   7  303.87   23.30
   5   1   7  321.17   16.50
   6   1   7   64.99   14.30
   6   1   7   58.49    6.80
   6   1   7   62.29   14.50
   7   1   7    3.60    2.90
   7   1   7    0.10    2.10
   7   1   7   -4.00    3.10
   7   1   7    0.40    3.80
   8   1   7  119.19   17.10
   8   1   7   86.59    8.50
   8   1   7   81.19   12.40
   9   1   7    3.30    3.20
   9   1   7    8.00    7.60
   9   1   7    0.00    3.50
  10   1   7    1.60    6.50
  10   1   7   -0.20    2.50
  10   1   7    5.90    5.40
  11   1   7  105.59   15.30
  11   1   7   65.59    8.30
  12   1   7    0.90    3.20
  12   1   7    0.80    6.20
  12   1   7    5.70    5.80
  13   1   7  138.19   22.60
  13   1   7  104.99   11.10
  13   1   7  103.59   16.50
  14   1   7    4.90    8.30
  14   1   7   -6.10    4.40
 -13   2   7   37.30   12.40
 -13   2   7   54.59   14.50
 -12   2   7    4.70    5.50
 -12   2   7    9.30    6.80
 -12   2   7   -0.40    2.90
 -11   2   7   -0.90    4.30
 -11   2   7    3.10    5.50
 -11   2   7    1.30    3.50
 -10   2   7   -2.60    4.30
 -10   2   7    2.70    4.50
 -10   2   7    8.60    4.90
  -9   2   7   80.19   15.00
  -9   2   7   70.99    9.40
  -9   2   7   55.29   13.30
  -8   2   7  184.38   15.20
  -8   2   7  230.78   20.40
  -8   2   7  190.88   18.00
  -7   2   7    4.20    3.80
  -7   2   7    2.20    4.50
  -7   2   7    7.20    5.20
  -6   2   7   82.39   10.60
  -6   2   7   81.89   11.70
  -6   2   7   90.09   10.40
  -5   2   7   68.69   10.00
  -5   2   7   58.99    8.50
  -5   2   7   60.99    8.60
  -4   2   7  583.04   29.90
  -4   2   7  614.34   29.20
  -4   2   7  575.14   27.30
  -3   2   7  240.38   17.70
  -3   2   7  244.38   10.60
  -3   2   7  246.18   15.40
  -3   2   7  277.97   17.70
  -3   2   7  261.27   10.50
   2  -2  -7  129.49    9.50
  -2   2   7  143.39   12.70
  -2   2   7  129.29   10.00
  -2   2   7  132.29    8.90
  -2   2   7  137.89    8.30
  -2   2   7  107.69   11.20
   1  -2  -7    1.60    1.60
  -1   2   7    7.30    3.30
  -1   2   7    6.00    3.70
  -1   2   7    7.30    4.10
  -1   2   7    7.50    3.00
  -1   2   7    6.30    2.50
   0   2   7   25.80    6.10
   0   2   7   33.40    7.30
   0   2   7   38.60    4.40
   0   2   7   45.60    5.80
   0   2   7   40.70    6.20
   1   2   7 1332.67   46.70
   1   2   7 1323.17   51.09
   1   2   7 1360.96   47.70
   1   2   7 1372.36   49.50
   1   2   7 1306.47   40.00
  -2  -2  -7  384.56   19.40
   2   2   7  406.96   22.80
   2   2   7  393.46   12.90
   2   2   7  390.16   20.30
   2   2   7  391.46   23.20
  -3  -2  -7    7.60    3.20
   3   2   7    2.80    3.50
   3   2   7    1.90    3.20
   3   2   7   10.40    4.10
  -4  -2  -7   33.00    5.20
   4   2   7   36.10    6.80
   4   2   7   36.70    8.60
   4   2   7   43.50   10.40
   5   2   7    3.80    4.20
   5   2   7    2.80    2.50
   5   2   7    6.60    5.10
   6   2   7  169.48   17.60
   6   2   7  162.98   12.10
   6   2   7  137.59   14.90
   7   2   7  106.29   15.00
   7   2   7   68.59   11.10
   7   2   7   66.09    7.90
   8   2   7   57.29   14.90
   8   2   7   40.40    6.50
   8   2   7   42.30   10.50
   9   2   7   21.70    8.90
   9   2   7   12.90    7.80
   9   2   7   13.90    5.20
  10   2   7   88.59   11.60
  10   2   7   73.39   18.50
  10   2   7   76.39   15.30
  11   2   7  160.28   13.90
  11   2   7  182.28   26.90
  11   2   7  157.88   18.90
  12   2   7   36.40   12.20
  12   2   7   37.70    8.50
  12   2   7   31.50   13.20
  13   2   7   11.20    5.30
  13   2   7    5.90    8.50
  13   2   7   11.50    8.60
  14   2   7    5.30    7.60
  14   2   7   -5.60    5.50
  14   2   7   -0.10    4.10
 -13   3   7   21.60   10.10
 -13   3   7    4.70    6.10
 -12   3   7   -5.70    3.30
 -12   3   7    4.70    6.40
 -11   3   7   -4.70    2.80
 -11   3   7   -5.90    2.90
 -11   3   7    0.60    2.90
 -10   3   7   74.79    9.10
 -10   3   7   90.69   14.10
 -10   3   7   92.99   18.40
  -9   3   7   61.79   12.90
  -9   3   7   47.00   11.20
  -9   3   7   44.70    8.60
  -8   3   7  115.59   11.20
  -8   3   7  144.59   15.60
  -8   3   7  117.89   14.90
  -7   3   7   50.69   11.80
  -7   3   7   38.40    8.10
  -7   3   7   77.19   13.80
  -6   3   7   26.10    8.30
  -6   3   7   12.90    5.80
  -6   3   7   24.80    6.30
  -5   3   7  727.13   36.50
  -5   3   7  830.42   34.30
  -4   3   7   39.20    9.20
  -4   3   7   25.40    6.60
  -4   3   7   14.50    5.40
   3  -3  -7  308.17   20.80
  -3   3   7  248.68   18.20
  -3   3   7  254.07   16.00
  -3   3   7  268.57   10.70
  -3   3   7  279.27   17.60
  -3   3   7  259.07   10.80
   2  -3  -7    2.30    2.40
  -2   3   7   -0.10    1.40
  -2   3   7    0.00    1.90
  -2   3   7    2.10    3.00
  -2   3   7    3.10    1.90
  -2   3   7    3.80    2.60
  -1   3   7   31.10    7.70
  -1   3   7   22.20    4.60
  -1   3   7   34.30    8.00
  -1   3   7   27.00    5.50
  -1   3   7   20.40    4.60
   0   3   7  364.76   20.00
   0   3   7  364.76   15.90
   0   3   7  344.37   20.60
   0   3   7  315.27   19.10
   0   3   7  333.27   18.20
  -1  -3  -7  270.97   15.90
   1   3   7  298.87   16.70
   1   3   7  262.47   17.20
   1   3   7  295.37   17.70
   1   3   7  268.37   18.40
  -2  -3  -7  120.09   10.90
   2   3   7  115.89   10.80
   2   3   7  122.49   12.40
   2   3   7  123.99    6.60
  -3  -3  -7   46.70    7.40
   3   3   7   43.50    3.10
   3   3   7   37.20    6.10
  -4  -3  -7   79.49   10.00
   4   3   7   71.39   10.70
   4   3   7   78.19    3.40
   4   3   7   86.79    8.90
   4   3   7   74.39    3.50
   4   3   7   86.19   10.90
  -5  -3  -7   33.40    8.20
   5   3   7   48.80    2.30
   5   3   7   46.80    2.30
   5   3   7   66.49   13.20
   5   3   7   66.59   11.00
   5   3   7   59.99    7.70
   6   3   7   36.90    7.30
   6   3   7   16.60    7.20
   6   3   7   17.80    6.20
   7   3   7   -3.40    2.40
   7   3   7    0.00    1.00
   7   3   7    3.20    3.10
   7   3   7   -1.50    3.20
   8   3   7  190.48   18.80
   8   3   7  165.18   19.60
   8   3   7  144.09    8.00
   8   3   7  173.78   13.70
   9   3   7   12.80    5.10
   9   3   7   24.20   10.70
   9   3   7    8.80    2.80
   9   3   7   18.30    8.40
  10   3   7   58.59    7.40
  10   3   7   62.99    9.10
  10   3   7   73.19   14.60
  10   3   7  100.29   20.70
  11   3   7   96.69   11.60
  11   3   7   99.99   15.90
  11   3   7  107.69   22.50
  12   3   7    5.50    8.70
  12   3   7   13.20    9.70
  12   3   7    7.10    4.50
  13   3   7    5.80    6.70
  13   3   7   18.90    7.00
  13   3   7    8.10    9.00
  14   3   7   18.50   10.90
  14   3   7    9.60    6.20
  14   3   7    7.00    8.40
 -13   4   7    0.10    5.30
 -12   4   7   10.50    7.10
 -12   4   7   23.30   11.00
 -11   4   7  112.39   17.00
 -11   4   7  121.09   17.00
 -11   4   7  133.59   13.50
 -10   4   7    1.10    4.60
 -10   4   7    0.10    3.90
 -10   4   7    6.00    3.30
  -9   4   7  299.07   24.20
  -9   4   7  294.57   16.00
  -9   4   7  265.87   23.40
   8  -4  -7   -1.00    2.40
  -8   4   7    1.00    4.30
  -8   4   7    1.00    2.90
  -8   4   7    1.00    4.10
   7  -4  -7   33.00    6.90
  -7   4   7   48.20   11.40
  -7   4   7   24.70    6.00
  -7   4   7   38.30    9.60
   6  -4  -7   45.70    6.80
  -6   4   7   47.50   10.70
  -6   4   7   29.80    9.20
  -6   4   7   61.79    7.80
   5  -4  -7  401.56   20.90
  -5   4   7  464.05   22.40
  -5   4   7  399.56   25.50
  -5   4   7  361.46   22.80
   4  -4  -7  117.59   10.40
  -4   4   7  116.69   10.90
  -4   4   7  112.89   12.70
  -4   4   7  109.09   11.20
   3  -4  -7  263.67   16.20
  -3   4   7  238.68   10.80
  -3   4   7  212.98   17.20
  -3   4   7  241.78   16.10
  -3   4   7  245.48   10.90
  -3   4   7  234.88   15.80
   2  -4  -7   14.90    5.20
  -2   4   7   19.60    5.90
  -2   4   7   19.80    5.50
  -2   4   7   20.30    6.50
  -2   4   7   16.20    4.00
   1  -4  -7  426.56   19.00
  -1   4   7  437.86   23.30
  -1   4   7  401.76   23.40
  -1   4   7  427.96   19.50
  -1   4   7  444.66   20.20
   0  -4  -7  553.84   23.90
   0   4   7  574.84   22.70
   0   4   7  522.45   24.10
   0   4   7  555.54   27.60
   0   4   7  551.84   27.20
  -1  -4  -7  418.26   21.00
   1   4   7  407.96   17.40
   1   4   7  449.46   24.40
   1   4   7  405.46   22.40
   1   4   7  440.06   21.80
  -2  -4  -7  138.49   12.00
   2   4   7  157.58    8.80
   2   4   7  130.29   12.90
   2   4   7  183.18   13.70
  -3  -4  -7   59.69    8.40
   3   4   7   70.89    8.50
   3   4   7   55.49    8.70
   3   4   7   57.89    4.70
  -4  -4  -7   39.20    8.80
   4   4   7   20.90    5.90
   4   4   7   30.20    8.70
  -5  -4  -7   84.59   16.10
   5   4   7   76.09    9.00
   5   4   7   73.49   16.80
   5   4   7   67.69    5.00
  -6  -4  -7   73.59   10.80
   6   4   7   80.59    9.20
   6   4   7   63.49    5.20
   6   4   7   66.69   10.70
  -7  -4  -7    2.70    4.80
   7   4   7   17.60    3.60
   7   4   7   17.80    7.70
   7   4   7    5.20    4.20
  -8  -4  -7   16.80    7.10
   8   4   7   22.90    9.20
   8   4   7   25.80    7.30
   8   4   7   14.10    3.50
   8   4   7   26.70    9.70
   9   4   7  249.08   22.60
   9   4   7  247.58   18.00
   9   4   7  230.58   24.00
  10   4   7   12.60    9.30
  10   4   7    9.90    5.60
  10   4   7   12.30    6.60
  10   4   7    8.30    3.50
  11   4   7   98.69   12.00
  11   4   7   58.99   16.10
  12   4   7   37.20   15.10
  12   4   7   23.00   10.70
  12   4   7   61.59   12.40
  13   4   7    3.30    4.80
  13   4   7   -3.30    6.70
  13   4   7    3.90    6.70
  14   4   7   95.39   23.70
  14   4   7   35.50   12.90
  14   4   7   58.89   13.30
 -12   5   7   44.10   13.50
 -12   5   7   58.69   15.60
 -11   5   7   10.90    7.70
 -11   5   7   -2.00    4.90
 -10   5   7   76.29   16.60
 -10   5   7   92.49   14.90
  -9   5   7   13.50    7.20
  -9   5   7   30.80   15.50
   8  -5  -7   16.70    4.30
  -8   5   7   24.10    5.10
  -8   5   7   25.90    9.30
  -8   5   7   37.70   10.50
   7  -5  -7  111.69    9.50
  -7   5   7  137.59   15.50
  -7   5   7  135.89   15.00
  -7   5   7  134.49    9.90
  -6   5   7  191.08   16.80
  -6   5   7  164.18   11.70
  -6   5   7  174.68   17.00
   5  -5  -7    5.00    3.10
  -5   5   7    6.00    4.80
  -5   5   7    8.00    5.60
  -5   5   7   15.70    4.90
   4  -5  -7  349.07   18.60
  -4   5   7  390.76   20.10
  -4   5   7  377.46   24.30
  -4   5   7  383.16   22.30
  -4   5   7  380.26   13.00
   3  -5  -7    4.60    2.10
   3  -5  -7    3.50    2.70
  -3   5   7    2.70    3.30
  -3   5   7    2.50    3.30
  -3   5   7    2.40    4.40
  -3   5   7    8.50    3.00
   2  -5  -7   54.59    5.80
   2  -5  -7   43.60    6.60
  -2   5   7   63.79    7.80
  -2   5   7   56.39    7.80
  -2   5   7   56.99   11.00
  -2   5   7   45.30    5.90
   1  -5  -7  196.58   12.10
  -1   5   7  183.98   12.70
  -1   5   7  189.98   15.30
  -1   5   7  145.69   13.00
  -1   5   7  179.38   12.40
   0  -5  -7  992.10   36.20
   0   5   7  912.51   36.40
   0   5   7  948.01   39.20
   0   5   7  936.71   34.60
   0   5   7  901.61   39.40
  -1  -5  -7  107.49   10.20
   1   5   7  107.39    8.30
   1   5   7  113.99   11.50
   1   5   7   78.69   10.00
  -2  -5  -7    4.30    3.40
   2   5   7    4.20    3.30
   2   5   7    1.10    3.10
   2   5   7    7.60    2.80
  -3  -5  -7   86.99   10.20
   3   5   7   64.29    8.70
   3   5   7   82.49   10.70
  -4  -5  -7  116.89   12.50
   4   5   7  127.69   13.70
   4   5   7  136.59   12.50
  -5  -5  -7  261.27   19.50
   5   5   7  235.08   16.70
  -6  -5  -7    3.40    4.30
   6   5   7    4.40    2.60
   6   5   7    1.30    3.10
   6   5   7    0.80    3.50
  -7  -5  -7   13.00    6.10
   7   5   7    9.40    5.70
   7   5   7    3.90    2.50
   7   5   7   11.50    5.20
  -8  -5  -7   37.10   10.40
   8   5   7   17.20    4.50
   8   5   7   28.30    8.30
   8   5   7   36.60   11.30
  -9  -5  -7   35.20   11.00
   9   5   7   24.20    9.90
   9   5   7   13.90    6.30
   9   5   7   13.70    4.30
 -10  -5  -7  157.58   18.70
  10   5   7  126.69   17.50
  10   5   7  193.98   23.30
  10   5   7  167.48   15.90
  11   5   7    3.60    4.10
  11   5   7    1.80    6.60
  11   5   7   -1.70    4.70
  12   5   7   15.20    6.50
  12   5   7    0.80    6.40
  12   5   7    5.70    7.00
  13   5   7    9.60    7.40
  13   5   7   -2.80    3.80
  13   5   7    0.00    6.40
  14   5   7   -6.20    5.30
  14   5   7   24.20   11.50
  14   5   7   24.10    9.40
 -12   6   7   73.79   16.10
 -12   6   7   82.79   20.60
 -11   6   7   37.90   13.30
 -11   6   7   29.20   10.30
 -10   6   7   20.20    9.10
 -10   6   7   33.00   13.00
  -9   6   7   -0.80    4.50
  -9   6   7    8.30    6.50
  -8   6   7    1.20    4.40
  -8   6   7    2.60    4.60
   7  -6  -7  206.88   10.50
  -7   6   7  209.28   19.30
  -7   6   7  223.18   20.10
  -7   6   7  232.68   10.70
   6  -6  -7   18.00    4.20
  -6   6   7   39.50   10.00
  -6   6   7   33.10    5.70
  -6   6   7   48.40   11.20
   5  -6  -7  304.97   15.30
   5  -6  -7  292.37    9.50
  -5   6   7  279.37   20.40
  -5   6   7  309.87   22.70
  -5   6   7  271.97   15.30
   4  -6  -7    9.20    2.70
   4  -6  -7    8.40    4.00
  -4   6   7    0.40    2.40
  -4   6   7    9.50    3.00
  -4   6   7   10.70    5.20
  -4   6   7    8.20    4.90
   3  -6  -7    0.90    1.70
   3  -6  -7    1.40    2.10
  -3   6   7    3.60    4.10
  -3   6   7    2.30    4.30
  -3   6   7    1.50    2.30
  -3   6   7    3.20    3.30
   2  -6  -7  303.67   17.40
   2  -6  -7  326.87   16.40
  -2   6   7  295.77   18.20
  -2   6   7  325.77   17.30
  -2   6   7  326.07   21.90
  -2   6   7  302.37   18.70
   1  -6  -7  423.26   20.60
  -1   6   7  406.66   22.50
  -1   6   7  434.86   21.70
  -1   6   7  421.06   21.70
   0  -6  -7   58.09    7.50
   0   6   7   43.20    6.30
   0   6   7   44.20    9.20
   0   6   7   54.19    8.80
   0   6   7   53.09    8.20
  -1  -6  -7   82.89    9.50
   1   6   7   79.89    8.00
   1   6   7   94.99   11.00
   1   6   7   99.69   11.00
  -2  -6  -7  255.07   17.60
   2   6   7  226.58   17.00
   2   6   7  223.78   17.50
   2   6   7  262.57   14.00
  -3  -6  -7  150.58   13.80
   3   6   7  190.98   15.80
   3   6   7  130.19   13.80
  -4  -6  -7  234.58   21.00
   4   6   7  191.88   18.30
   4   6   7  217.68   17.30
  -5  -6  -7  135.99   14.40
   5   6   7  148.89   15.50
   5   6   7  125.39   12.50
  -6  -6  -7    1.00    3.80
   6   6   7    8.50    4.70
   6   6   7   -1.50    2.10
  -7  -6  -7   44.20   11.40
   7   6   7   39.30    9.70
   7   6   7   34.60    8.80
   7   6   7   34.70    6.40
  -8  -6  -7    2.00    4.10
   8   6   7   -4.50    2.10
   8   6   7    5.60    4.70
  -9  -6  -7   69.99   14.40
   9   6   7   76.79   11.10
   9   6   7   98.29   19.10
 -10  -6  -7   22.00   10.10
  10   6   7    4.80    6.10
  10   6   7   13.30    6.70
 -11  -6  -7   -1.90    3.50
  11   6   7    8.00    6.00
  11   6   7    3.30    4.30
  12   6   7   12.00    8.10
  12   6   7    6.30    8.50
  12   6   7   -3.70    4.30
  13   6   7   49.60   17.00
  13   6   7   31.10   12.50
  13   6   7   34.00   10.80
  14   6   7    4.70    6.60
  14   6   7   -3.70    3.50
  14   6   7    1.80    8.40
 -12   7   7   95.59   19.20
 -12   7   7   50.29   14.20
 -11   7   7  116.99   18.10
 -11   7   7   69.79   14.70
 -10   7   7    3.80    5.80
 -10   7   7    7.70    7.40
  -9   7   7   -2.50    4.30
  -9   7   7    2.40    5.10
  -8   7   7   53.39   14.10
  -8   7   7   53.29   12.50
  -7   7   7   55.99   12.70
  -7   7   7   68.39   13.40
  -6   7   7   14.50    7.20
  -6   7   7   27.40    3.10
  -6   7   7   39.70   11.50
  -6   7   7   28.40    3.00
   5  -7  -7  120.99    7.70
  -5   7   7  162.98   16.70
  -5   7   7  122.09    8.30
  -5   7   7  149.09   14.20
  -5   7   7  142.39   14.70
  -5   7   7  127.29    8.10
   4  -7  -7   72.79    6.80
  -4   7   7   60.69    6.90
  -4   7   7   82.99   12.10
  -4   7   7   73.39   10.20
  -4   7   7   70.49    6.60
  -4   7   7   67.09    7.30
   3  -7  -7   15.40    4.50
  -3   7   7   13.80    5.60
  -3   7   7   10.30    3.70
  -3   7   7   11.30    4.70
  -3   7   7   18.60    7.30
   2  -7  -7 1123.39   40.40
  -2   7   7 1102.29   41.80
  -2   7   7 1102.99   41.60
  -2   7   7 1121.79   47.50
  -2   7   7 1003.80   42.70
  -2   7   7 1070.49   39.10
   1  -7  -7  145.99   11.80
  -1   7   7  133.29   12.10
  -1   7   7  115.99   11.30
  -1   7   7  129.89   13.80
   0  -7  -7   16.60    5.80
   0   7   7   25.20    6.30
   0   7   7   15.20    6.30
   0   7   7   21.10    6.90
  -1  -7  -7   73.29    9.30
   1   7   7   74.69   10.20
   1   7   7   55.49    8.70
   1   7   7   74.59    8.20
  -2  -7  -7   54.49    8.70
   2   7   7   72.19   10.20
   2   7   7   87.39   10.80
  -3  -7  -7  130.49   13.50
   3   7   7  127.99   13.20
   3   7   7  119.39   14.00
  -4  -7  -7   90.39   11.90
   4   7   7   82.09   10.80
   4   7   7  100.29   12.60
  -5  -7  -7   -0.90    2.90
   5   7   7    3.20    4.10
   5   7   7    3.50    3.60
  -6  -7  -7    0.00    4.00
   6   7   7   -3.60    1.80
   6   7   7   -1.70    3.20
  -7  -7  -7   26.00    9.00
   7   7   7    8.90    5.20
   7   7   7   14.90    6.20
  -8  -7  -7   20.30    8.60
   8   7   7   14.40    6.30
   8   7   7   18.90    8.50
  -9  -7  -7   44.90   12.50
   9   7   7   61.39   16.00
   9   7   7   45.70   11.00
 -10  -7  -7    3.40    6.30
  10   7   7   22.50    8.60
  10   7   7   16.60    9.90
 -11  -7  -7   10.70    7.30
  11   7   7   32.10   11.40
  11   7   7   22.50    9.20
 -12  -7  -7   43.40   13.20
  12   7   7   54.09   14.00
  12   7   7   39.30   10.70
  13   7   7   10.00    7.60
  13   7   7   24.90   13.30
  13   7   7    0.70    7.60
  14   7   7   62.19   18.80
  14   7   7   38.60   24.50
  14   7   7   61.09   14.30
 -11   8   7   27.40   18.80
 -11   8   7   23.50    9.40
 -10   8   7   27.50   11.30
 -10   8   7   12.40    7.90
  -9   8   7    1.60    8.40
  -9   8   7   10.10    8.40
  -8   8   7  121.59   16.60
  -8   8   7  163.88   18.50
  -7   8   7   84.39   16.10
  -6   8   7   38.70    5.00
  -6   8   7   43.70   11.00
  -6   8   7   43.90   11.40
   5  -8  -7    1.60    2.00
  -5   8   7    1.40    1.30
  -5   8   7    6.10    5.40
  -5   8   7   -0.40    2.90
  -5   8   7    1.50    1.50
  -5   8   7    1.10    2.70
   4  -8  -7   11.20    4.20
  -4   8   7    6.70    3.00
  -4   8   7    7.10    3.30
  -4   8   7    3.80    5.60
  -4   8   7   12.30    5.60
  -4   8   7    3.00    3.50
   3  -8  -7  552.84   24.80
  -3   8   7  520.75   23.50
  -3   8   7  484.95   21.60
  -3   8   7  516.55   28.40
  -3   8   7  470.35   25.20
  -3   8   7  505.85   30.40
   2  -8  -7  358.76   19.90
  -2   8   7  334.47   17.80
  -2   8   7  317.37   18.80
  -2   8   7  319.77   23.10
  -2   8   7  358.36   22.30
   1  -8  -7   59.29    8.40
  -1   8   7   45.60    9.10
  -1   8   7   69.39   10.70
  -1   8   7   57.09    8.50
   0  -8  -7    0.80    3.30
   0   8   7    2.60    3.10
   0   8   7    2.40    3.50
  -1  -8  -7    6.00    4.20
   1   8   7    2.20    3.70
   1   8   7    1.90    3.50
   1   8   7   -0.80    2.40
  -2  -8  -7    4.10    6.20
   2   8   7    5.70    4.40
   2   8   7    8.20    5.40
  -3  -8  -7  250.77   19.30
   3   8   7  224.78   18.30
   3   8   7  208.98   18.10
  -4  -8  -7    7.80    5.10
   4   8   7    7.00    5.40
   4   8   7    5.40    4.30
  -5  -8  -7  102.49   13.30
   5   8   7  121.89   13.50
   5   8   7   88.49   12.60
  -6  -8  -7  121.39   15.10
   6   8   7   98.79   13.80
   6   8   7  135.79   14.50
  -7  -8  -7  162.48   18.00
   7   8   7  200.38   18.00
   7   8   7  155.58   17.90
  -8  -8  -7   39.40   11.30
   8   8   7   54.49   11.60
   8   8   7   44.00   12.60
  -9  -8  -7   -4.00    3.10
   9   8   7   11.00    6.20
   9   8   7    2.20    5.00
 -10  -8  -7   -0.50    4.00
  10   8   7    3.00    5.20
  10   8   7   10.90    8.30
 -11  -8  -7   -2.80    4.40
  11   8   7    7.80    7.40
  11   8   7    1.40    5.10
 -12  -8  -7   90.39   19.30
  12   8   7  101.99   15.30
  12   8   7   71.49   17.40
 -13  -8  -7   11.10    8.30
  13   8   7   44.90   12.50
  13   8   7   11.00    8.50
 -10   9   7    2.00    6.40
 -10   9   7    3.00    5.20
  -9   9   7  344.87   28.00
  -9   9   7  308.37   27.60
  -8   9   7   22.60    9.80
  -8   9   7   40.40   12.20
  -7   9   7   83.49   16.00
  -7   9   7   62.19   13.10
   6  -9  -7    0.10    2.00
  -6   9   7    3.10    7.50
  -6   9   7    5.80    5.20
   5  -9  -7   13.40    4.60
  -5   9   7    8.60    6.90
  -5   9   7    4.60    4.10
  -5   9   7    7.00    4.20
   4  -9  -7   12.00    4.70
  -4   9   7    3.80    2.30
  -4   9   7    1.40    2.10
  -4   9   7   20.20    8.20
  -4   9   7    6.30    5.20
   3  -9  -7    3.00    3.70
  -3   9   7    1.70    4.10
  -3   9   7   -1.00    3.20
  -3   9   7   -1.30    1.80
   2  -9  -7  151.28   13.70
  -2   9   7  149.49   16.00
  -2   9   7  157.28   15.00
  -2   9   7  138.09   11.40
  -2   9   7  172.08   13.00
   1  -9  -7   75.99    9.90
  -1   9   7   58.59   12.50
  -1   9   7   61.69    8.50
  -1   9   7   59.89    9.20
   0  -9  -7   11.60    6.00
   0   9   7   17.30    7.50
   0   9   7   20.40    6.50
   0   9   7   23.30    7.20
  -1  -9  -7  146.49   14.60
   1   9   7  124.49   13.20
   1   9   7  141.89   12.80
   1   9   7  125.89   14.40
  -2  -9  -7   60.09   10.00
   2   9   7   45.40   10.40
   2   9   7   62.69   12.30
  -3  -9  -7   40.00   10.40
   3   9   7   46.00   11.00
   3   9   7   26.90    8.30
  -4  -9  -7   28.30    9.00
   4   9   7   34.90    9.50
   4   9   7   26.00    7.80
  -5  -9  -7   26.90    9.00
   5   9   7    6.20    4.90
   5   9   7   11.90    6.20
  -6  -9  -7   44.30   11.40
   6   9   7   50.39   11.60
   6   9   7   73.89   13.80
  -7  -9  -7   55.29   14.10
   7   9   7   60.69   12.90
   7   9   7   77.19   17.00
  -8  -9  -7  117.49   16.20
   8   9   7  117.79   17.10
   8   9   7   87.69   13.40
  -9  -9  -7   22.10   10.40
   9   9   7   15.40    8.00
   9   9   7   11.10    7.90
 -10  -9  -7    9.40    6.90
  10   9   7   12.40    7.30
  10   9   7    2.90    6.40
 -11  -9  -7   18.40    9.30
  11   9   7   34.70   13.50
  11   9   7   46.80   12.40
 -12  -9  -7   24.20   11.30
  12   9   7   24.40   11.70
  12   9   7   13.80    8.10
 -13  -9  -7   27.40   11.80
  13   9   7   26.00   10.60
  13   9   7   31.90   13.30
  -9  10   7    3.60    5.60
  -9  10   7    7.60    6.50
  -8  10   7  253.97   25.10
  -8  10   7  236.48   22.90
  -7  10   7   44.00   12.40
  -7  10   7   39.20   12.20
   6 -10  -7   37.00    7.30
  -6  10   7   36.70   10.80
  -6  10   7   32.90   10.90
   5 -10  -7    8.50    4.50
  -5  10   7    8.70    7.30
  -5  10   7   -2.60    6.40
   4 -10  -7  161.48   13.90
  -4  10   7  170.38   18.00
  -4  10   7  153.48   16.70
   3 -10  -7    7.40    4.70
  -3  10   7    2.10    2.50
  -3  10   7    1.60    2.40
  -3  10   7    3.80    5.20
  -3  10   7   -1.70    2.90
  -2  10   7  192.38   17.40
  -2  10   7  200.08   19.00
  -2  10   7  209.48   14.60
   1 -10  -7   -0.50    3.60
  -1  10   7   -2.20    2.60
  -1  10   7    1.90    4.50
  -1  10   7    0.60    2.70
   0 -10  -7  123.29   14.00
   0  10   7  132.39   15.50
   0  10   7  125.89   13.20
   0  10   7   99.49   11.60
  -1 -10  -7   91.09   12.40
   1  10   7  113.29   14.10
   1  10   7  114.99   12.20
   1  10   7   85.29   13.40
  -2 -10  -7  326.87   24.00
   2  10   7  313.87   23.80
   2  10   7  405.16   25.30
  -3 -10  -7   -1.10    2.90
   3  10   7    4.10    4.40
   3  10   7    3.90    4.90
  -4 -10  -7   -0.30    4.20
   4  10   7   -3.70    1.90
   4  10   7    5.60    5.10
  -5 -10  -7  108.49   14.80
   5  10   7   96.99   13.50
   5  10   7   95.79   14.00
  -6 -10  -7   15.90    8.10
   6  10   7   17.00    7.10
   6  10   7   19.40    8.50
  -7 -10  -7   58.09   14.40
   7  10   7   20.60    8.80
   7  10   7   19.10    7.60
  -8 -10  -7   -6.00    6.00
  -9 -10  -7    1.80    5.50
   9  10   7   -1.20    5.10
   9  10   7   -2.90    2.80
 -10 -10  -7   72.69   16.50
  10  10   7  107.79   15.70
  10  10   7   52.39   16.00
 -11 -10  -7    2.60    7.10
  11  10   7   -0.80    4.00
  11  10   7    3.50    5.40
 -12 -10  -7   47.80   15.10
  12  10   7   33.20   14.10
  12  10   7   33.40   11.60
 -13 -10  -7   -1.30    4.80
  13  10   7    4.80   10.70
  13  10   7   -6.40    4.30
  -8  11   7   53.69   14.50
  -8  11   7   40.50   11.60
  -7  11   7    7.30    6.00
  -7  11   7   -3.40    3.70
  -6  11   7   59.09   14.50
  -5  11   7   10.50    7.00
  -5  11   7    2.20    5.50
   4 -11  -7  124.09   13.50
  -4  11   7  183.08   19.30
  -4  11   7  165.48   18.10
   3 -11  -7   46.30   10.40
  -3  11   7   39.30    5.80
  -3  11   7   45.40   11.70
  -3  11   7   77.29   16.20
   2 -11  -7   86.89   12.20
  -2  11   7   87.59    9.40
  -2  11   7  100.59   13.40
  -2  11   7   84.89   13.30
   1 -11  -7    4.70    4.70
  -1  11   7    9.20    6.40
  -1  11   7    5.00    4.30
  -1  11   7    4.70    3.70
   0 -11  -7    6.10    5.70
   0  11   7    4.50    4.20
   0  11   7    9.70    6.50
   0  11   7    1.10    3.90
  -1 -11  -7  440.96   28.80
   1  11   7  453.35   26.60
   1  11   7  418.16   26.20
   1  11   7  404.26   28.40
  -2 -11  -7   26.80    9.60
   2  11   7   12.20    6.10
   2  11   7   15.50    7.10
  -3 -11  -7   -1.70    3.60
   3  11   7    8.10    6.00
   3  11   7    5.00    5.00
  -4 -11  -7   97.79   14.20
   4  11   7   96.49   13.70
   4  11   7   95.39   13.70
  -5 -11  -7    5.20    5.90
   5  11   7    1.90    4.40
   5  11   7    0.20    4.70
  -6 -11  -7  111.69   15.80
   6  11   7   75.19   15.40
   6  11   7   73.49   15.00
  -7 -11  -7   -2.80    2.80
   7  11   7   -3.50    2.90
   7  11   7   10.00    6.10
  -8 -11  -7   -3.50    3.60
   8  11   7    0.20    3.90
   8  11   7    5.60    5.50
  -9 -11  -7   -1.10    5.70
   9  11   7    3.90    5.10
   9  11   7   -2.50    4.20
 -10 -11  -7   40.80   13.40
  10  11   7   37.70   12.30
  10  11   7   28.30   12.40
 -11 -11  -7   81.49   18.40
  11  11   7   67.09   16.30
  11  11   7   80.09   19.00
  12  11   7   -0.40    5.50
  12  11   7   -2.70    4.80
  -7  12   7   14.30    8.70
  -7  12   7   -0.20    4.70
   6 -12  -7   43.70   14.70
  -6  12   7   46.00   13.60
  -6  12   7   36.50   12.00
   5 -12  -7  151.48   15.30
  -5  12   7  157.08   19.10
  -5  12   7  153.68   18.70
   4 -12  -7    1.00    4.00
  -4  12   7    0.10    4.60
   3 -12  -7  134.09   15.10
  -3  12   7  118.19   15.80
  -3  12   7   94.09   15.00
   2 -12  -7    1.60    4.80
  -2  12   7    4.50    3.10
  -2  12   7   -0.20    3.90
  -2  12   7   -2.20    3.00
   1 -12  -7   69.49   14.70
  -1  12   7   53.19   12.50
  -1  12   7   44.20   11.20
  -1  12   7   33.80    8.00
   0 -12  -7   52.39   12.90
   0  12   7   52.39   12.10
   0  12   7   34.50   10.30
  -1 -12  -7   40.50   12.10
   1  12   7   13.00    6.50
   1  12   7   20.60    8.60
   1  12   7   17.70    6.90
  -2 -12  -7   11.90    7.30
   2  12   7    5.50    6.30
   2  12   7    0.50    3.90
  -3 -12  -7    2.80    5.30
   3  12   7    4.60    4.30
   3  12   7   -1.90    3.60
  -4 -12  -7   94.19   14.80
   4  12   7   78.49   15.80
   4  12   7  126.99   30.00
   5  12   7   86.29   16.70
   5  12   7   74.99   16.30
  -6 -12  -7    9.20    8.10
   6  12   7    6.10    5.90
   6  12   7    6.30    5.90
  -7 -12  -7    6.70    6.40
   7  12   7    5.80    6.60
   7  12   7    4.20    6.00
  -8 -12  -7   -2.30    3.60
   8  12   7    2.40    5.60
   8  12   7    7.30    7.30
  -9 -12  -7   17.70    9.80
   9  12   7   25.30   11.30
   9  12   7   15.60    8.20
 -10 -12  -7   18.90   11.30
  10  12   7    9.10    7.80
  10  12   7    3.60    5.80
 -11 -12  -7   43.70   21.50
  11  12   7   49.99   14.60
  11  12   7   66.89   24.30
  -6  13   7   47.20   14.30
  -6  13   7    8.00   12.60
   5 -13  -7    5.40    5.40
  -5  13   7   -0.60    4.20
  -5  13   7   -0.50    4.90
   4 -13  -7  113.69   14.80
  -4  13   7  140.39   18.40
  -4  13   7  103.59   16.20
   3 -13  -7    5.40    5.50
  -3  13   7    0.10    4.50
  -3  13   7    4.00    5.70
   2 -13  -7   12.20    7.80
  -2  13   7    5.00    4.20
  -2  13   7    5.80    5.90
  -2  13   7   21.50    9.30
   1 -13  -7  213.38   20.70
  -1  13   7  183.18   20.40
  -1  13   7  163.48   14.20
  -1  13   7  176.78   19.50
   0 -13  -7  126.89   16.50
   0  13   7  139.99   17.90
   0  13   7  113.89   13.10
   0  13   7  141.29   16.50
  -1 -13  -7    4.40    5.70
   1  13   7    5.30    4.90
   1  13   7   -1.40    3.80
   1  13   7    9.10    7.10
  -2 -13  -7   -3.00    4.10
   2  13   7   -1.60    4.50
   2  13   7    6.10    5.40
  -3 -13  -7    9.50    9.60
   3  13   7   23.70    9.00
   3  13   7   43.80   13.00
  -4 -13  -7    2.80    5.80
   4  13   7    7.40    6.30
   4  13   7    0.60    5.00
  -5 -13  -7   43.20   13.90
   5  13   7   46.30   13.10
   5  13   7   41.50   12.90
  -6 -13  -7   16.80    9.90
   6  13   7   16.60    8.80
   6  13   7    9.10    8.00
  -7 -13  -7   -4.20    5.40
   7  13   7   -1.00    3.30
   7  13   7   -2.00    4.10
  -8 -13  -7   13.80    8.60
   8  13   7    6.30    6.70
   8  13   7    9.70    7.00
  -9 -13  -7   26.60   11.60
   9  13   7    8.90    8.00
   9  13   7    2.40    5.70
  10  13   7   10.90    8.00
  -5  14   7    4.30    6.20
  -5  14   7    5.10    6.60
   4 -14  -7   46.10   16.60
  -4  14   7   32.90   13.20
  -4  14   7   14.00    9.10
  -3  14   7    8.10    7.20
  -3  14   7   -0.70    5.90
   2 -14  -7    6.20    6.10
  -2  14   7    3.10    5.60
  -2  14   7    5.30    6.30
   1 -14  -7  183.68   20.70
  -1  14   7  225.18   22.80
  -1  14   7  196.38   21.30
   0 -14  -7   28.50   11.50
   0  14   7   14.70    6.40
   0  14   7    2.30    4.70
   0  14   7   23.30    9.20
  -1 -14  -7   29.10   11.00
   1  14   7    6.10    5.70
   1  14   7   22.30    7.60
   1  14   7   40.70   12.90
  -2 -14  -7   47.30   13.70
   2  14   7   39.00   10.90
   2  14   7   34.90   11.10
  -3 -14  -7    9.20    7.80
   3  14   7   19.60    9.70
   3  14   7    9.10    6.20
  -4 -14  -7   15.50    8.70
   4  14   7   14.80    8.20
  -5 -14  -7   24.60   11.00
   5  14   7   27.30   10.90
   5  14   7    7.70    6.30
  -6 -14  -7   -1.20    6.00
   6  14   7    8.60    7.30
   6  14   7    2.30    5.40
  -7 -14  -7    9.60    7.00
   7  14   7    6.00    6.20
   7  14   7   10.90    9.10
  -8 -14  -7   24.40   10.90
   8  14   7    5.90    6.60
   8  14   7   17.10   10.40
  -9 -14  -7   15.90    9.90
   9  14   7   12.50   10.80
   9  14   7   -3.10    4.30
   2 -15  -7   22.90   10.90
  -2  15   7    7.00    6.80
   1 -15  -7   48.00   14.20
  -1  15   7   36.30   11.90
  -1  15   7   19.30   10.30
   0 -15  -7    9.10    7.00
   0  15   7   11.90    8.10
   0  15   7    5.70    6.40
  -1 -15  -7    3.60    5.30
   1  15   7   -2.90    3.20
   1  15   7   -1.30    4.50
   1  15   7    0.60    4.40
  -2 -15  -7   60.49   16.20
   2  15   7   28.60   10.30
   2  15   7   69.89   15.10
   2  15   7   51.39   14.90
  -3 -15  -7   -2.10    4.00
   3  15   7    4.60    6.50
  -4 -15  -7   28.80   11.30
   4  15   7   14.10    7.60
   4  15   7   32.10   12.40
  -5 -15  -7   -0.90    4.50
   5  15   7   -2.90    5.00
   5  15   7    3.00    5.50
  -6 -15  -7   -3.30    4.90
   6  15   7   16.80    9.30
   6  15   7    9.50    8.10
  -7 -15  -7   17.00   11.50
   7  15   7   19.60   10.90
   7  15   7   16.30    9.60
  -2 -16  -7   10.10    8.80
   2  16   7    1.60    7.10
   2  16   7    7.80    7.30
  -3 -16  -7   42.80   14.60
   3  16   7   54.29   13.50
   3  16   7   43.90   17.40
   6  12  -8   10.80    6.70
  -6 -12   8    9.70    7.70
   5  12  -8   14.50    8.40
  -5 -12   8   31.60   14.50
  -5 -12   8    3.00    5.50
   4  12  -8   -1.80    3.40
  -4 -12   8    2.40    4.90
  -4 -12   8    0.00    6.20
   3  12  -8   90.29   12.50
  -3 -12   8   57.19   15.70
  -3 -12   8   91.19   21.30
   2  12  -8   10.40    6.10
  -2 -12   8   15.00    9.40
  -2 -12   8   11.90    8.50
  -1 -12   8   13.00   10.00
  -1 -12   8   14.10    8.70
   0 -12   8    2.30    5.40
   0 -12   8    2.30    7.70
   1 -12   8    4.80    7.30
   1 -12   8   10.00    7.40
   2 -12   8   69.79   16.40
   2 -12   8   49.90   28.20
  -3  12  -8    8.40    7.60
   3 -12   8    9.70   10.30
   3 -12   8    2.60    5.60
  -8 -11   8    4.70    7.60
  -8 -11   8    4.00    7.50
  -7 -11   8   21.10   11.00
  -7 -11   8   15.60   10.00
  -6 -11   8    0.00    5.40
  -6 -11   8    1.50    5.90
  -5 -11   8   17.60    9.30
  -5 -11   8    1.40    5.40
   4  11  -8   16.70    7.30
  -4 -11   8   21.40   11.40
  -4 -11   8   15.70    9.70
   3  11  -8    2.20    4.50
  -3 -11   8    5.80    8.20
  -3 -11   8   -1.50    4.10
   2  11  -8  206.78   16.50
  -2 -11   8  217.38   23.50
  -2 -11   8  243.38   27.40
   1  11  -8    9.40    4.60
  -1 -11   8   10.90    8.50
  -1 -11   8    3.30    5.60
   0 -11   8   37.20   13.60
   0 -11   8   10.40    9.70
   1 -11   8   -0.70    3.80
   1 -11   8    6.10    8.00
   2 -11   8   31.20   13.30
   2 -11   8   11.10    7.30
   3 -11   8   58.59   17.90
   3 -11   8   85.29   19.90
  -4  11  -8   19.30    7.90
   4 -11   8   25.70   13.20
  -5  11  -8    2.30    4.80
   5 -11   8   -0.90    7.40
   5 -11   8   -1.70    4.40
  -9 -10   8   -4.00    4.70
  -9 -10   8    2.00    6.40
  -9 -10   8    0.40    6.30
  -8 -10   8   41.40   13.50
  -8 -10   8   23.60    9.90
  -8 -10   8   51.89   16.30
  -7 -10   8    9.40    7.50
  -7 -10   8    2.50    6.10
  -6 -10   8   21.50   11.00
  -6 -10   8   32.90   13.10
  -5 -10   8    3.50    5.20
  -5 -10   8   -3.20    4.10
  -4 -10   8   -6.20    3.80
  -4 -10   8    1.70    5.80
  -3 -10   8   55.99   16.60
  -3 -10   8   87.99   18.30
   2  10  -8   54.29    8.80
  -2 -10   8   48.70   14.10
  -2 -10   8   48.70   14.60
   1  10  -8   20.50    6.20
  -1 -10   8   10.20    8.50
   0  10  -8   -0.10    2.40
   0 -10   8    6.20    7.70
   0 -10   8   -4.50    3.10
   1 -10   8   43.30   12.30
   1 -10   8   38.60   14.70
   2 -10   8    0.20    3.70
   2 -10   8   -0.30    5.60
   3 -10   8   99.49   15.00
   3 -10   8   87.09   20.90
  -4  10  -8   -3.40    3.40
   4 -10   8    5.30    6.20
   4 -10   8   -2.50    7.80
  -5  10  -8   -1.90    3.10
   5 -10   8    7.60    5.70
   5 -10   8   -5.80    4.80
  -6  10  -8   16.20    7.30
   6 -10   8   -3.50    6.60
   6 -10   8    9.00    6.90
 -10  -9   8   10.00    7.40
 -10  -9   8    7.90    8.80
 -10  -9   8   12.80    8.30
  -9  -9   8   33.00   11.70
  -9  -9   8    8.20    7.50
  -9  -9   8   18.30    9.50
  -8  -9   8   19.90    9.60
  -8  -9   8   43.20   12.60
  -8  -9   8   16.30    8.50
  -7  -9   8    0.50    4.90
  -7  -9   8   -1.00    4.10
  -7  -9   8   -0.40    4.30
  -6  -9   8    8.80    6.30
  -6  -9   8   15.80    9.10
  -6  -9   8    1.90    6.00
  -5  -9   8   42.10   12.80
  -5  -9   8   39.00   10.30
  -5  -9   8   30.60   11.10
  -4  -9   8    8.70    6.10
  -4  -9   8   14.80    8.70
  -4  -9   8   11.50    5.70
  -3  -9   8  142.79   19.50
  -3  -9   8  161.08   20.20
  -2  -9   8   -0.10    6.40
  -2  -9   8    7.00    6.40
  -1  -9   8    7.90    7.80
  -1  -9   8    3.80    6.50
   0   9  -8   37.00    5.60
   0  -9   8   31.20   10.80
   0  -9   8   43.40   21.80
  -1   9  -8   58.49    7.30
   1  -9   8   61.59   16.60
   1  -9   8   76.19   16.00
   2  -9   8  149.49   21.70
   2  -9   8  162.38   18.60
   3  -9   8   20.30    8.50
   3  -9   8   28.20   12.80
  -4   9  -8    2.80    3.70
   4  -9   8    2.50    5.10
   4  -9   8   -4.30    5.20
  -5   9  -8   14.30    6.10
   5  -9   8   18.30    7.60
   5  -9   8   18.30   11.40
  -6   9  -8   46.70   10.60
   6  -9   8   27.30   13.10
   6  -9   8   33.60   10.20
  -7   9  -8   11.30    6.10
   7  -9   8    6.90    6.10
   7  -9   8   -4.80    5.30
   8  -9   8   42.30   17.30
 -11  -8   8   -0.10    4.50
 -11  -8   8   -0.70    4.50
 -11  -8   8    7.30    7.10
 -10  -8   8    0.00    4.30
 -10  -8   8   -1.20    5.30
 -10  -8   8    2.10    6.90
  -9  -8   8   30.50   12.10
  -9  -8   8   15.30    7.80
  -9  -8   8   23.60    9.20
  -8  -8   8    8.00    6.10
  -8  -8   8   -1.60    3.90
  -8  -8   8   12.40    7.80
  -7  -8   8    7.70    8.00
  -7  -8   8    3.50    6.30
  -7  -8   8    8.40    6.20
  -6  -8   8    1.60    5.50
  -6  -8   8   -2.10    3.40
  -6  -8   8    3.50    4.50
  -5  -8   8   66.89   15.00
  -5  -8   8   57.49   12.70
  -5  -8   8   64.89   17.20
  -4  -8   8  143.89   18.10
  -4  -8   8  153.28   19.20
  -4  -8   8  174.58   16.20
  -3  -8   8   17.80    8.10
  -3  -8   8   15.60    6.00
  -3  -8   8   19.40    9.20
  -2  -8   8    2.10    4.90
  -2  -8   8   14.50    8.10
  -2  -8   8   26.00    7.00
  -1  -8   8   11.50    6.60
  -1  -8   8    3.40    7.40
   0  -8   8   42.10   12.80
   0  -8   8   76.89   16.60
  -1   8  -8   64.39    6.30
  -1   8  -8   58.39    5.50
   1  -8   8   63.69   15.00
   1  -8   8   71.89   17.00
   2  -8   8  104.79   15.10
   2  -8   8  135.99   19.70
   3  -8   8    2.50    4.90
  -4   8  -8   -2.40    2.30
   4  -8   8   -4.70    4.30
   4  -8   8    5.20    5.00
  -5   8  -8   81.89    9.90
   5  -8   8   87.09   13.30
   5  -8   8  112.79   23.40
  -6   8  -8    6.80    4.70
   6  -8   8   24.00    9.30
   6  -8   8    7.90    8.30
  -7   8  -8    7.10    4.80
   7  -8   8    4.50    7.70
   7  -8   8   -0.70    4.90
  -8   8  -8   11.30    5.80
   8  -8   8   -3.10    6.50
   8  -8   8    4.60    5.80
   9  -8   8    0.00   13.10
 -12  -7   8    4.00    8.60
 -12  -7   8   -5.50    4.00
 -11  -7   8    7.10    5.30
 -11  -7   8    4.20    6.40
 -11  -7   8   19.20    9.70
 -10  -7   8   17.70    8.70
 -10  -7   8    1.60    4.30
 -10  -7   8    5.20    5.80
  -9  -7   8    2.40    6.00
  -9  -7   8   -2.50    3.70
  -9  -7   8    2.30    4.60
  -8  -7   8   77.29   11.60
  -8  -7   8   65.29   14.70
  -8  -7   8   45.90   14.10
  -7  -7   8   19.70   10.10
  -7  -7   8   19.30    8.00
  -7  -7   8   27.30    9.90
  -6  -7   8   20.40    8.60
  -6  -7   8   32.30    9.70
  -6  -7   8   29.20   10.70
  -5  -7   8   62.19   15.80
  -5  -7   8   65.49   13.50
  -5  -7   8   32.70   10.20
  -4  -7   8  137.59   17.40
  -4  -7   8  101.79   14.60
  -4  -7   8  130.49   13.90
  -3  -7   8   16.00    7.70
  -3  -7   8   29.30    7.80
  -3  -7   8   32.30   11.10
  -2  -7   8   21.30    8.90
  -2  -7   8   44.70   12.90
  -2  -7   8   28.90    7.70
  -1  -7   8  164.68   19.30
  -1  -7   8  154.18   18.20
  -1  -7   8  180.48   13.50
   0  -7   8   38.80    6.00
   0  -7   8   41.50   12.30
   0  -7   8   43.70   11.40
  -1   7  -8  236.18   12.90
   1  -7   8  205.88   20.30
   1  -7   8  263.77   25.10
   2  -7   8   44.30   13.80
   2  -7   8   46.00   12.50
   3  -7   8   -5.40    3.70
   3  -7   8    9.70    6.50
  -4   7  -8   44.10    6.90
   4  -7   8   67.39   17.90
   4  -7   8   49.10   12.80
  -5   7  -8   45.70    7.10
   5  -7   8   26.40   12.60
   5  -7   8   47.40   11.70
  -6   7  -8   16.00    5.40
   6  -7   8   30.10   13.50
   6  -7   8   16.50    7.40
   7  -7   8   14.70   11.10
   7  -7   8    7.40    5.70
  -8   7  -8   12.40    5.60
   8  -7   8   10.80    6.50
   8  -7   8   20.10   13.00
   9  -7   8    1.70    4.40
   9  -7   8    7.90   10.20
  10  -7   8   16.80   17.40
 -12  -6   8   37.00   12.80
 -12  -6   8   13.40    8.10
 -11  -6   8    0.50    3.80
 -11  -6   8    1.50    4.70
 -11  -6   8   15.70    9.30
 -10  -6   8   27.00   12.00
 -10  -6   8   17.10    7.00
 -10  -6   8   -0.90    5.60
  -9  -6   8   29.20   12.30
  -9  -6   8   37.60   11.50
  -9  -6   8   18.60    7.00
  -8  -6   8   13.00    7.10
  -8  -6   8   12.60    6.30
  -7  -6   8   84.59   11.50
  -7  -6   8   70.49   15.30
  -7  -6   8   51.09   12.60
  -6  -6   8   65.69   12.90
  -6  -6   8   44.00   10.90
  -6  -6   8   34.70   12.10
  -5  -6   8  175.78   16.80
  -5  -6   8  140.09   17.60
  -5  -6   8  210.88   18.50
  -4  -6   8   -1.80    3.90
  -4  -6   8    3.70    5.70
  -4  -6   8   -0.30    2.90
  -3  -6   8   64.39   13.10
  -3  -6   8   89.49   17.00
  -3  -6   8   58.39    9.10
  -2  -6   8  352.56   27.40
  -2  -6   8  393.26   27.70
  -2  -6   8  387.96   22.10
  -1  -6   8   21.90    6.10
  -1  -6   8   20.00    8.70
  -1  -6   8   20.80    8.90
   0   6  -8  174.98   13.80
   0  -6   8  185.78   19.00
   0  -6   8  150.78   11.50
   0  -6   8  171.68   19.10
  -1   6  -8  112.99    8.90
   1  -6   8  134.99   17.40
   1  -6   8  119.59    8.80
   1  -6   8  127.49   16.00
  -2   6  -8    5.50    2.00
   2  -6   8   10.10    7.70
   2  -6   8   -6.60    4.00
   3  -6   8    6.00    7.30
   3  -6   8    4.20    5.60
  -4   6  -8   97.29    8.90
   4  -6   8   86.19   13.30
   4  -6   8   68.09   16.60
  -5   6  -8    9.60    4.00
   5  -6   8    7.80    5.20
   5  -6   8   31.90   13.00
  -6   6  -8   64.49    7.60
   6  -6   8   76.29   15.20
  -7   6  -8   17.20    4.90
   7  -6   8    1.50    7.00
   7  -6   8    7.10    5.80
  -8   6  -8    4.20    3.70
   8  -6   8   10.20    9.90
   8  -6   8    0.10    3.60
  -9   6  -8    6.50    4.60
   9  -6   8   -1.20    5.80
   9  -6   8    0.50    5.30
  10  -6   8   63.69   18.40
 -13  -5   8    2.20    6.20
 -13  -5   8   -4.10    4.50
 -12  -5   8   12.30    8.10
 -12  -5   8   13.00    8.50
 -11  -5   8  147.49   19.80
 -11  -5   8  129.09   18.60
 -10  -5   8    5.40    3.80
 -10  -5   8    1.80    4.70
 -10  -5   8    2.10    4.70
  -9  -5   8   53.19    9.70
  -9  -5   8   36.50   11.40
  -8  -5   8   -2.70    4.10
  -8  -5   8    4.50    3.90
  -8  -5   8    0.50    4.00
  -7  -5   8   11.20    5.60
  -7  -5   8    6.70    5.60
  -7  -5   8    2.40    3.80
  -6  -5   8  104.09   15.00
  -6  -5   8  109.49   13.80
  -6  -5   8  101.19   12.00
  -5  -5   8  102.79   12.60
  -5  -5   8  113.89   15.30
  -5  -5   8  116.09   13.60
  -4  -5   8   13.90    6.90
  -4  -5   8    8.50    5.00
  -4  -5   8    2.40    4.50
  -3  -5   8   -1.50    3.90
  -2  -5   8   12.70    6.20
  -2  -5   8    0.60    3.00
  -2  -5   8   15.30    8.10
  -1  -5   8  474.05   30.80
  -1  -5   8  515.45   31.50
  -1  -5   8  483.05   24.20
   0   5  -8   53.89    7.10
   0  -5   8   44.10   10.90
   0  -5   8   61.59    7.50
   0  -5   8   94.49   13.60
   1  -5   8   -3.50    3.60
   1  -5   8   10.30    6.70
  -2   5  -8   15.70    3.50
   2  -5   8   10.10    7.30
   2  -5   8   14.40    7.60
   3  -5   8  236.78   23.30
   3  -5   8  267.37   21.90
  -4   5  -8  141.19    9.80
   4  -5   8  133.69   15.80
   4  -5   8  155.78   19.60
  -5   5  -8  132.39    9.60
   5  -5   8  129.69   15.60
   5  -5   8  123.49   18.20
  -6   5  -8    1.80    2.40
   6  -5   8   -3.50    2.80
   6  -5   8   -7.70    3.60
  -7   5  -8    6.20    2.90
   7  -5   8   22.90    9.00
  -8   5  -8   13.30    4.00
   8  -5   8   19.50   10.90
   8  -5   8   22.70    8.60
  -9   5  -8  160.08   11.40
   9  -5   8  149.19   17.30
   9  -5   8  179.58   24.60
  10  -5   8    1.90    5.90
  10  -5   8   -0.10    5.80
  11  -5   8   27.10   13.00
  11  -5   8   16.90    8.90
 -13  -4   8   -0.50    4.60
 -13  -4   8    3.50    8.20
 -12  -4   8   61.09   15.60
 -12  -4   8   66.49   15.60
 -11  -4   8    7.30    6.10
 -11  -4   8   10.10    7.30
 -10  -4   8   30.40   11.70
 -10  -4   8   28.10    5.80
  -9  -4   8   -0.40    2.10
  -9  -4   8   -2.20    6.30
  -9  -4   8   -2.40    3.60
  -8  -4   8   13.80    8.20
  -8  -4   8   11.10    6.90
  -8  -4   8   10.80    4.40
  -7  -4   8   70.39   15.00
  -7  -4   8   77.59    9.40
  -7  -4   8   75.49   12.10
  -6  -4   8   -1.20    2.50
  -6  -4   8   12.30    6.60
  -6  -4   8   -0.60    2.80
  -5  -4   8   15.50    7.30
  -5  -4   8   37.60   10.20
  -5  -4   8    8.30    4.80
  -4  -4   8   25.60    7.90
  -4  -4   8   36.90    9.70
  -4  -4   8   29.20    9.50
  -3  -4   8   24.00    8.60
  -3  -4   8   60.49   11.60
  -3  -4   8   43.60    9.40
  -2  -4   8   87.39   11.90
  -2  -4   8   72.39   11.90
  -2  -4   8   70.59    9.10
  -1  -4   8  146.99   16.20
  -1  -4   8  124.49   11.30
  -1  -4   8  147.89   15.70
   0   4  -8  104.19    9.30
   0   4  -8  121.29   10.20
   0  -4   8  121.19   14.80
   0  -4   8  144.99   18.70
   0  -4   8  115.39   10.00
  -1   4  -8   52.29    6.20
  -1   4  -8   50.49    6.20
   1  -4   8   44.00   10.60
   1  -4   8   38.80    5.60
   1  -4   8   61.99   13.40
  -2   4  -8   -0.60    1.20
   2  -4   8    4.90    4.50
   2  -4   8   -1.10    3.10
   2  -4   8    0.10    1.70
  -3   4  -8  106.39    5.90
   3  -4   8  142.19   17.20
   3  -4   8  115.19   14.30
   3  -4   8  106.49    6.30
  -4   4  -8  156.08    9.20
   4  -4   8  202.58   18.70
   4  -4   8  134.89   18.10
  -5   4  -8  181.98   10.00
   5  -4   8  190.18   21.80
   5  -4   8  184.08   18.40
  -6   4  -8   -0.10    1.60
   6  -4   8   -3.80    4.80
   6  -4   8   -2.20    3.10
  -7   4  -8    7.40    2.80
   7  -4   8    2.50    5.00
   7  -4   8   17.40    9.90
  -8   4  -8   84.39    7.00
   8  -4   8   66.59   14.40
   8  -4   8   96.99   31.00
  -9   4  -8    0.60    2.20
   9  -4   8   12.20   10.30
   9  -4   8    5.50    5.90
  10  -4   8   42.90   12.20
  10  -4   8   63.69   19.30
  11  -4   8    5.20    6.30
  11  -4   8   -3.80    6.60
  12  -4   8    9.70   12.30
  12  -4   8    2.00    8.00
 -13  -3   8   -3.60    4.40
 -13  -3   8    1.40    5.20
 -12  -3   8   59.99   14.40
 -12  -3   8   75.39   16.00
 -11  -3   8   18.30   10.50
 -11  -3   8   13.70    7.60
 -10  -3   8    4.90    6.10
 -10  -3   8    6.80    6.00
  -9  -3   8   23.20    8.20
  -9  -3   8   32.90    7.40
  -9  -3   8   25.80    9.50
   8   3  -8   67.29    8.80
  -8  -3   8   69.59    7.10
  -8  -3   8   72.89   14.80
  -8  -3   8   81.19   15.80
   7   3  -8  210.88   14.70
  -7  -3   8  210.68   13.50
  -7  -3   8  218.28   19.90
  -7  -3   8  179.18   19.00
   6   3  -8    5.60    4.00
  -6  -3   8   -3.40    3.50
  -6  -3   8    0.40    3.00
  -6  -3   8    0.50    2.60
   5   3  -8   75.19    9.70
  -5  -3   8   85.99    9.60
  -5  -3   8   94.99   13.50
  -5  -3   8  114.79   13.10
  -4  -3   8    3.40    4.30
  -4  -3   8   -0.80    2.60
  -4  -3   8    1.50    3.30
  -3  -3   8   43.90    9.30
  -3  -3   8   49.60    9.70
  -3  -3   8   28.50    8.40
  -2  -3   8  688.33   34.00
  -2  -3   8  728.83   32.80
  -2  -3   8  730.53   37.80
   1   3  -8  205.38   12.90
  -1  -3   8  166.78   16.00
  -1  -3   8  195.58   18.20
  -1  -3   8  179.18   13.70
   0   3  -8   83.49    7.60
   0   3  -8   69.89    8.10
   0  -3   8   72.39   11.10
   0  -3   8   88.59   12.20
   0  -3   8   77.69    8.30
  -1   3  -8    9.60    3.70
  -1   3  -8    6.90    2.80
   1  -3   8    0.20    3.90
   1  -3   8    3.20    3.00
   1  -3   8   -0.20    3.10
  -2   3  -8  207.38   11.80
  -2   3  -8  213.08   11.10
   2  -3   8  206.18   19.60
   2  -3   8  236.98   20.00
   2  -3   8  245.78   13.00
  -3   3  -8    3.70    1.90
   3  -3   8    6.00    5.10
   3  -3   8    9.50    6.70
  -4   3  -8  168.48    7.80
   4  -3   8  188.08   18.00
   4  -3   8  171.88   19.20
   4  -3   8  154.28    7.60
   5  -3   8    3.80    7.20
   5  -3   8   11.80    6.00
  -6   3  -8   21.90    2.70
   6  -3   8   26.40    9.60
   6  -3   8   17.30    8.80
  -7   3  -8  269.27   10.80
   7  -3   8  252.17   21.80
   7  -3   8  315.17   28.40
  -8   3  -8    4.10    2.00
   8  -3   8    4.30    6.50
   8  -3   8   11.70    6.80
   9  -3   8   69.79   15.30
   9  -3   8   65.39   17.20
  10  -3   8    2.10    5.20
  10  -3   8    6.10    8.00
  11  -3   8   -1.30    4.20
  11  -3   8    6.10    8.00
  12  -3   8    5.30    7.40
  12  -3   8    6.10    9.80
 -13  -2   8    2.40    6.30
 -13  -2   8    7.60    7.40
 -12  -2   8    1.00    5.70
 -12  -2   8    3.10    4.90
 -11  -2   8   28.90   10.30
 -11  -2   8   42.60   12.00
 -10  -2   8   27.50   10.40
 -10  -2   8   16.60    8.70
  -9  -2   8    2.80    5.30
  -9  -2   8    7.00    6.00
   8   2  -8  175.28    8.90
  -8  -2   8  164.08    7.60
  -8  -2   8  190.18   19.20
  -8  -2   8  186.78   18.80
   7   2  -8  219.08   12.60
  -7  -2   8  232.78   20.70
  -7  -2   8  242.28   14.00
  -7  -2   8  256.97   21.30
   6   2  -8   58.59    6.90
  -6  -2   8   69.29   11.10
  -6  -2   8   72.39    7.00
  -6  -2   8   75.99   12.00
   5   2  -8   50.49    7.70
  -5  -2   8   72.39   13.70
  -5  -2   8   46.00   11.70
  -5  -2   8   53.09    7.00
   4   2  -8   36.80    7.40
  -4  -2   8   37.30    7.50
  -4  -2   8   39.60    9.00
  -4  -2   8   27.10    7.90
   3   2  -8    2.50    3.20
  -3  -2   8   -4.80    2.60
  -3  -2   8    3.30    3.40
  -3  -2   8    5.60    4.60
  -2  -2   8  672.33   31.20
  -2  -2   8  667.33   31.20
  -2  -2   8  615.74   39.00
   1   2  -8   94.89    8.30
  -1  -2   8   89.49    9.80
  -1  -2   8  105.89   11.80
   0   2  -8    6.20    2.60
   0  -2   8    7.00    3.80
   0  -2   8   11.50    5.90
   0  -2   8    5.70    3.80
  -1   2  -8  198.28   10.30
  -1   2  -8  210.38   12.90
   1  -2   8  155.98   18.10
   1  -2   8  196.38   13.10
   1  -2   8  210.68   18.20
  -2   2  -8  173.58    8.30
   2  -2   8  163.68   16.90
   2  -2   8  175.48   11.50
  -3   2  -8  212.38   11.30
  -3   2  -8  212.38    7.50
   3  -2   8  197.08   19.30
   3  -2   8  216.58   18.90
   3  -2   8  203.08   11.80
  -4   2  -8    5.60    2.30
   4  -2   8    9.80    3.30
   4  -2   8   20.00    7.30
   4  -2   8    1.90    5.00
   5  -2   8   -0.10    1.20
   5  -2   8   -2.00    2.30
   5  -2   8    0.90    4.10
   6  -2   8   65.59    4.20
   6  -2   8   65.49   16.20
   6  -2   8   60.09    4.20
   6  -2   8   78.79   12.20
   7  -2   8  182.28   18.30
   7  -2   8  140.09   19.30
   8  -2   8    6.90    7.10
   8  -2   8    8.40    6.00
   9  -2   8   42.80   11.80
   9  -2   8   43.10   15.00
  10  -2   8    4.80    6.20
  10  -2   8    5.40    7.30
  11  -2   8   -3.10    3.20
  11  -2   8    6.10    8.70
  12  -2   8   90.69   23.20
  12  -2   8   29.60   13.30
  13  -2   8   14.60   18.30
  13  -2   8   11.20    8.30
 -13  -1   8   32.60   13.10
 -13  -1   8   30.70   10.90
 -12  -1   8   57.29   14.50
 -12  -1   8   41.70   13.30
 -11  -1   8    5.10    4.80
 -11  -1   8    3.40    5.00
 -10  -1   8   35.40   11.10
 -10  -1   8   54.89   12.40
  -9  -1   8   11.10    6.60
  -9  -1   8   -2.80    2.90
  -8  -1   8  134.59   16.30
  -8  -1   8  181.48   17.90
  -7  -1   8  208.98   19.60
  -7  -1   8  260.07   21.00
  -6  -1   8   29.50    9.00
  -6  -1   8   61.79   13.50
  -6  -1   8   38.10    3.90
   5   1  -8  153.18   10.10
  -5  -1   8  168.28   16.70
  -5  -1   8  179.38   12.80
  -5  -1   8  154.78   15.60
   4   1  -8  131.19   10.10
  -4  -1   8  137.09   13.90
  -4  -1   8  134.09   10.10
  -4  -1   8  137.19   17.90
  -3  -1   8  283.57   19.30
  -3  -1   8  233.78   19.50
  -3  -1   8  260.07   15.80
   2   1  -8   78.99    7.90
   2   1  -8   85.19    9.20
  -2  -1   8   76.09   13.60
  -2  -1   8   69.69    8.70
  -2  -1   8   82.59   10.00
   1   1  -8   18.30    6.50
   1   1  -8   31.60    6.20
  -1  -1   8   26.20    8.20
  -1  -1   8   31.50    7.20
  -1  -1   8   25.90    7.00
   0   1  -8   34.20    4.30
   0  -1   8   40.80    8.20
   0  -1   8   59.29   13.00
   0  -1   8   55.89   10.90
  -1   1  -8   17.60    4.90
  -1   1  -8   20.60    3.00
   1  -1   8    7.70    4.60
   1  -1   8   30.00    6.20
   1  -1   8   26.80    7.90
  -2   1  -8  145.29   10.30
   2  -1   8  157.58   15.50
   2  -1   8  146.19   11.00
   2  -1   8  168.68   16.20
   3  -1   8  516.55   30.80
   3  -1   8  489.35   21.50
   3  -1   8  461.45   33.30
  -4   1  -8    3.00    2.00
   4  -1   8    8.10    6.30
   4  -1   8    3.80    5.40
   4  -1   8   12.10    3.80
   5  -1   8   -0.10    1.30
   5  -1   8    0.00    4.10
   5  -1   8    4.30    4.80
   6  -1   8   85.59   12.70
   6  -1   8   84.79   17.30
   6  -1   8   67.19    6.00
   6  -1   8   84.29    6.80
   7  -1   8   12.40    6.50
   7  -1   8    6.50    2.70
   7  -1   8    6.80    2.70
   7  -1   8    9.60    7.60
   8  -1   8   11.40    3.30
   8  -1   8   22.40    9.30
   8  -1   8   10.00    3.80
   8  -1   8    9.20    7.80
   9  -1   8    3.40    3.80
   9  -1   8    7.80    7.00
   9  -1   8   13.10    9.30
  10  -1   8   15.40    8.20
  10  -1   8    3.40    7.80
  10  -1   8    7.00    2.50
  11  -1   8   36.40   10.90
  11  -1   8   13.20    8.90
  12  -1   8   83.69   20.80
  13  -1   8    6.40    8.70
  13  -1   8    5.90    6.80
 -13   0   8    5.00    7.50
 -13   0   8   14.20    7.60
 -12   0   8   40.50   13.20
 -12   0   8   40.20   10.40
 -11   0   8   21.70    9.60
 -11   0   8   20.10    7.90
 -10   0   8    6.00    4.90
 -10   0   8   11.10    8.40
 -10   0   8    4.40    6.00
  -9   0   8  186.88   19.60
  -9   0   8  172.58   18.00
  -9   0   8  183.78   17.80
  -8   0   8   40.00   10.40
  -8   0   8   19.90    8.00
  -8   0   8   37.90    9.80
  -7   0   8  100.19   13.60
  -7   0   8   96.79   12.40
  -7   0   8  126.79   14.10
  -6   0   8  171.18   16.50
  -6   0   8  178.18   15.60
  -6   0   8  193.78   18.00
  -5   0   8   74.59    4.60
  -5   0   8   76.89   11.60
  -5   0   8   82.89    5.50
  -5   0   8  102.19   12.60
  -4   0   8  444.36   26.50
  -4   0   8  425.66   16.90
  -4   0   8  472.45   23.80
  -4   0   8  474.05   27.30
  -4   0   8  412.16   17.70
  -3   0   8  144.79   11.80
  -3   0   8  185.88   16.20
  -3   0   8  162.28   11.10
  -3   0   8  161.88   10.00
  -3   0   8  170.18   14.80
   2   0  -8  231.08   13.50
  -2   0   8  231.38   16.60
  -2   0   8  191.58   16.80
  -2   0   8  231.68   14.50
  -2   0   8  220.38   13.00
   1   0  -8   58.19    6.00
  -1   0   8   64.49    7.20
  -1   0   8   37.40    7.70
  -1   0   8   47.90    7.30
  -1   0   8   44.30    9.30
   0   0  -8   14.20    3.20
   0   0   8    7.20    4.50
   0   0   8    6.00    4.00
   0   0   8   15.40    5.00
  -1   0  -8  176.78    8.00
   1   0   8  159.58   14.70
   1   0   8  176.18   16.00
   1   0   8  148.49   12.10
  -2   0  -8  396.26   18.90
   2   0   8  410.76   20.30
   2   0   8  375.36   24.90
   2   0   8  381.76   24.70
  -3   0  -8    1.90    2.40
   3   0   8    3.80    2.50
   3   0   8   -0.70    2.60
   3   0   8   -0.30    2.60
  -4   0  -8   -0.40    1.90
   4   0   8   -1.60    2.60
   4   0   8    1.20    4.60
   4   0   8    4.00    2.80
  -5   0  -8   97.09    7.80
   5   0   8   94.19   13.80
   5   0   8  114.79    9.10
   5   0   8   82.69   12.10
   6   0   8   23.50    8.80
   6   0   8   34.00    5.20
   6   0   8   49.10   13.30
   7   0   8   10.50    4.00
   7   0   8    7.40    6.30
   7   0   8    6.60    6.30
   7   0   8   10.00    3.80
   8   0   8    6.40    5.10
   8   0   8    0.50    6.00
   8   0   8   11.80    3.90
   8   0   8    3.60    3.00
   9   0   8    4.70    5.90
   9   0   8    0.00    2.90
   9   0   8   -1.70    1.60
   9   0   8   -0.20    3.20
  10   0   8    5.50    5.60
  10   0   8    1.90    2.40
  11   0   8  125.99    9.90
  11   0   8  131.39   17.50
  11   0   8  127.59   21.30
  12   0   8  134.19   19.00
  12   0   8  111.19   23.50
  13   0   8    6.30    6.70
  13   0   8   20.70   13.40
 -13   1   8   12.40    6.70
 -13   1   8    3.10    5.70
 -12   1   8    0.10    5.60
 -12   1   8    1.50    5.60
 -12   1   8    0.20    3.90
 -11   1   8   38.50   12.10
 -11   1   8   40.50   12.30
 -11   1   8   27.30    8.60
 -10   1   8  221.28   18.80
 -10   1   8  216.48   25.10
 -10   1   8  217.38   21.30
  -9   1   8   83.89   16.20
  -9   1   8   80.49   14.90
  -9   1   8   77.49   11.50
  -8   1   8  100.49   14.40
  -8   1   8   95.69   12.90
  -8   1   8  104.29   12.90
  -7   1   8   -1.90    3.80
  -7   1   8    2.00    4.00
  -7   1   8    6.40    5.70
  -6   1   8    2.40    3.70
  -6   1   8   -2.60    2.50
  -6   1   8    3.90    4.60
  -5   1   8  362.66   23.40
  -5   1   8  333.57   23.80
  -5   1   8  353.36   29.10
  -4   1   8  322.87   12.20
  -4   1   8  382.86   23.70
  -4   1   8  334.87   19.90
  -4   1   8  373.96   23.40
  -4   1   8  339.57   12.70
  -3   1   8    0.10    3.00
  -3   1   8    4.80    3.50
  -3   1   8    1.20    2.10
  -3   1   8    0.80    1.50
  -3   1   8    3.90    3.60
   2  -1  -8  389.56   18.60
  -2   1   8  399.76   19.40
  -2   1   8  367.86   23.50
  -2   1   8  403.16   19.30
  -2   1   8  372.66   17.30
  -2   1   8  392.86   23.10
   1  -1  -8  197.58   12.70
  -1   1   8  180.68   11.20
  -1   1   8  176.08   11.80
  -1   1   8  148.19   13.30
  -1   1   8  183.68   13.20
  -1   1   8  170.48   15.60
   0  -1  -8   40.50    4.30
   0   1   8   59.09    9.30
   0   1   8   47.30    7.70
   0   1   8   35.00    6.80
   0   1   8   47.40    8.80
   1   1   8   67.59    8.20
   1   1   8   52.89    8.40
   1   1   8   39.30    8.70
   2   1   8  132.39   13.50
   2   1   8   98.89    9.80
   2   1   8  123.19   13.50
   3   1   8   22.10    5.50
   3   1   8   10.40    5.10
   3   1   8    6.20    4.90
  -4  -1  -8    0.50    1.90
   4   1   8    3.40    5.80
   4   1   8    4.60    5.50
   4   1   8    5.70    3.00
  -5  -1  -8  525.75   24.80
   5   1   8  563.84   25.00
   5   1   8  543.75   33.90
   5   1   8  602.74   33.10
   6   1   8   23.00    8.50
   6   1   8   39.10    6.20
   6   1   8   25.30   10.30
   7   1   8   35.90    7.30
   7   1   8   43.40   11.50
   7   1   8   32.20   11.10
   8   1   8   18.70    9.90
   8   1   8   19.30    8.50
   8   1   8    8.60    4.20
   9   1   8    3.80    6.40
   9   1   8    2.40    3.00
   9   1   8   -6.30    2.40
  10   1   8   46.90   14.70
  10   1   8   46.00   12.20
  10   1   8   57.09    7.60
  11   1   8   19.80   11.20
  11   1   8    3.10    2.90
  11   1   8   -0.30    4.00
  12   1   8   97.69   22.50
  12   1   8   85.29   18.60
  13   1   8   -4.60    5.10
  13   1   8    0.30    4.70
  14   1   8    6.20    7.10
  14   1   8   21.20   22.40
 -13   2   8   -3.20    4.30
 -12   2   8    4.40    4.40
 -12   2   8   -3.20    4.70
 -12   2   8    9.30    8.30
 -11   2   8   21.20    9.50
 -11   2   8   45.30   12.40
 -11   2   8   16.80    7.10
 -10   2   8  123.69   13.30
 -10   2   8  150.08   17.70
 -10   2   8   92.39   17.70
  -9   2   8   35.70    8.80
  -9   2   8   62.69   13.60
  -9   2   8   32.20    9.70
  -8   2   8  122.59   13.10
  -8   2   8   89.99   13.90
  -8   2   8   88.19   12.80
  -7   2   8   27.60    8.30
  -7   2   8   24.60    9.20
  -7   2   8   30.30    8.90
  -6   2   8  233.58   18.30
  -6   2   8  214.48   19.60
  -6   2   8  232.28   18.10
  -5   2   8    4.40    4.10
  -5   2   8    7.30    4.70
  -5   2   8    9.60    4.80
  -4   2   8  167.48   13.60
  -4   2   8  147.19   14.70
  -4   2   8  160.18   14.80
  -3   2   8   87.49    6.50
  -3   2   8   89.79    9.30
  -3   2   8   84.49   12.30
  -3   2   8   90.69   11.00
  -3   2   8   94.29    6.30
   2  -2  -8  121.89   10.90
  -2   2   8  121.89    8.60
  -2   2   8  125.79    9.40
  -2   2   8  121.89   10.10
  -2   2   8  132.49   12.90
  -2   2   8  131.39   13.20
   1  -2  -8   93.79    7.50
  -1   2   8   87.59    7.80
  -1   2   8   68.59    9.80
  -1   2   8   76.39    8.20
  -1   2   8   78.39    9.90
  -1   2   8   64.09    6.80
   0   2   8  563.14   27.90
   0   2   8  583.44   22.20
   0   2   8  563.04   25.10
   0   2   8  574.94   27.30
   0   2   8  617.24   31.30
   1   2   8  575.64   20.40
   1   2   8  591.64   29.10
   1   2   8  577.04   30.60
   1   2   8  563.04   27.30
   2   2   8    3.40    4.00
   2   2   8   17.20    6.80
   2   2   8   19.10    5.40
   3   2   8   43.30    9.80
   3   2   8   67.69   13.80
   3   2   8   58.49    7.80
   4   2   8  501.55   23.90
   4   2   8  458.05   28.70
   4   2   8  449.86   31.50
   5   2   8   63.59   13.40
   5   2   8   46.70    7.00
   5   2   8   52.69   11.40
   6   2   8  443.26   30.90
   6   2   8  457.45   29.40
   6   2   8  463.95   22.90
   7   2   8    1.90    4.80
   7   2   8    1.10    2.20
   7   2   8   -4.10    2.40
   8   2   8    1.90    3.10
   8   2   8   12.30    8.50
   8   2   8    3.40    4.80
   9   2   8   30.00   12.00
   9   2   8    4.70    5.20
   9   2   8   28.70    6.70
  10   2   8  117.69   14.00
  10   2   8  128.09   20.10
  10   2   8   72.19   16.20
  11   2   8   33.60   11.00
  11   2   8   39.70   13.70
  11   2   8   16.10    6.00
  12   2   8   32.70   12.30
  12   2   8   24.50   11.90
  12   2   8   16.30    6.40
  13   2   8   21.10   10.20
  13   2   8    8.80    5.20
  13   2   8   35.00   14.80
  14   2   8   80.69   35.50
  14   2   8   54.89   16.40
 -13   3   8   20.20   10.40
 -13   3   8   27.10   12.00
 -12   3   8   -7.90    3.50
 -12   3   8    2.60    5.80
 -11   3   8   89.99   17.50
 -11   3   8   76.79   16.20
 -11   3   8  101.49   11.50
 -10   3   8   43.10   13.60
 -10   3   8   32.50   10.80
 -10   3   8   46.90    9.60
  -9   3   8   95.49   14.80
  -9   3   8   75.99   14.90
  -9   3   8   64.99    9.40
  -8   3   8   10.50    6.60
  -8   3   8    2.60    3.40
  -8   3   8    0.30    4.30
  -7   3   8  200.28   19.30
  -7   3   8  208.28   16.10
  -7   3   8  168.98   16.60
  -6   3   8  397.36   23.50
  -6   3   8  383.36   26.40
  -6   3   8  390.56   24.60
  -5   3   8  255.47   20.20
  -5   3   8  236.58   17.80
  -5   3   8  240.88   17.80
  -4   3   8   -4.90    2.60
  -4   3   8    3.80    3.60
  -4   3   8    0.30    2.10
  -3   3   8   14.80    5.30
  -3   3   8   12.20    5.30
  -3   3   8   13.90    2.90
  -3   3   8   15.70    6.20
  -3   3   8   18.60    3.50
  -2   3   8   24.30    7.20
  -2   3   8   28.20    6.30
  -2   3   8   19.60    4.70
  -2   3   8   28.90    7.70
  -2   3   8   22.70    4.80
  -1   3   8  126.19   12.60
  -1   3   8  108.79   12.10
  -1   3   8  131.59    9.80
  -1   3   8  137.59   10.80
  -1   3   8  117.69    9.40
   0   3   8  443.66   25.60
   0   3   8  445.16   18.90
   0   3   8  490.55   25.40
   0   3   8  431.46   21.20
   0   3   8  427.56   22.70
   1   3   8  214.18   17.30
   1   3   8  200.68   15.50
   1   3   8  201.08   15.20
   1   3   8  224.18   10.90
   2   3   8   -1.40    2.20
   2   3   8    7.30    2.00
   2   3   8    7.20    5.10
   2   3   8    2.20    2.90
   3   3   8  183.78   16.80
   3   3   8  197.18   14.80
   3   3   8  198.58   17.10
   3   3   8  197.28    7.00
   4   3   8    1.90    3.70
   4   3   8    3.80    3.60
   4   3   8    6.60    4.90
   5   3   8  171.28   18.00
   5   3   8  204.98   14.70
   5   3   8  167.18   16.80
   6   3   8   24.10    6.20
   6   3   8   24.30    9.40
   6   3   8   23.60    8.80
   7   3   8   -3.30    1.60
   7   3   8   -0.70    3.90
   7   3   8    5.90    5.40
   8   3   8   70.59   16.60
   8   3   8   42.30   11.00
   8   3   8   51.19   11.50
   9   3   8   54.09   13.00
   9   3   8   92.19   19.50
   9   3   8   71.29    9.40
  10   3   8    5.40    6.90
  10   3   8   11.90    5.60
  10   3   8   11.40    7.60
  11   3   8   27.20    7.80
  11   3   8   27.70   14.80
  11   3   8   12.30    9.90
  12   3   8   16.10    8.50
  12   3   8    4.30    4.20
  12   3   8    6.20    9.70
  13   3   8    9.40    5.90
  13   3   8   15.80   13.10
  13   3   8   11.50    8.20
  14   3   8    0.00    8.80
  14   3   8    5.10    7.10
  14   3   8    4.60    6.10
 -12   4   8   20.50   10.10
 -12   4   8   43.40   13.30
 -11   4   8   84.99   17.90
 -11   4   8   31.30   11.10
 -10   4   8   38.40   11.40
 -10   4   8   43.30    7.00
 -10   4   8   48.00   13.90
  -9   4   8    4.30    4.90
  -9   4   8    6.20    4.00
  -8   4   8   16.10    7.30
  -8   4   8   13.80    5.20
  -8   4   8   21.80    8.70
  -7   4   8   15.20    7.20
  -7   4   8   32.60    9.50
  -7   4   8   38.10    8.40
  -6   4   8  409.86   25.90
  -6   4   8  454.95   28.90
  -6   4   8  436.06   23.80
  -5   4   8   24.10    8.40
  -5   4   8   43.90    9.20
  -5   4   8   25.20    7.30
  -4   4   8   69.09   10.90
  -4   4   8   77.39    9.80
  -4   4   8   79.59   11.60
  -3   4   8    4.30    4.70
  -3   4   8    0.60    1.70
  -3   4   8    0.70    3.10
  -3   4   8   -0.70    2.50
  -3   4   8    0.80    1.60
  -2   4   8   53.59    7.30
  -2   4   8   73.59    7.10
  -2   4   8   34.50    9.50
  -2   4   8   58.69    6.20
  -2   4   8   74.29    9.60
  -1   4   8 1292.17   48.60
  -1   4   8 1299.07   46.30
  -1   4   8 1373.56   52.89
  -1   4   8 1370.26   52.59
  -1   4   8 1345.87   46.20
   0  -4  -8  184.48   12.50
   0   4   8  152.48   14.30
   0   4   8  155.28   12.10
   0   4   8  158.78   14.10
   0   4   8  168.78   13.10
   0   4   8  150.18   10.40
  -1  -4  -8   33.30    7.20
   1   4   8   39.20    4.80
   1   4   8   44.80    8.90
   1   4   8   51.49   10.80
  -2  -4  -8   22.00    6.40
   2   4   8   23.50    7.10
   2   4   8   16.00    3.40
   2   4   8   15.50    6.40
  -3  -4  -8  410.26   23.40
   3   4   8  369.16   21.80
   3   4   8  375.66   14.40
   3   4   8  358.06   24.60
  -4  -4  -8  243.08   19.00
   4   4   8  263.47   17.60
   4   4   8  267.97   20.80
   4   4   8  259.67   10.00
  -5  -4  -8   63.29   12.00
   5   4   8   53.09    8.10
   5   4   8   38.00    9.20
   5   4   8   48.00    3.00
  -6  -4  -8    4.70    4.60
   6   4   8    3.70    3.80
   6   4   8    9.30    6.30
   6   4   8    1.90    5.20
   6   4   8    5.20    1.20
   7   4   8   -0.70    2.80
   7   4   8   -5.80    2.50
   7   4   8    3.50    4.30
   8   4   8  137.59   18.60
   8   4   8  151.68    6.90
   8   4   8  161.38   14.30
   8   4   8  139.99   17.40
   9   4   8  123.09   16.90
   9   4   8  137.79    7.40
   9   4   8  130.79   19.00
   9   4   8  147.49   13.80
  10   4   8   -5.10    4.60
  10   4   8   11.40    5.60
  10   4   8    1.00    5.80
  11   4   8   -1.90    4.20
  11   4   8   -0.50    3.60
  11   4   8    0.30    7.40
  12   4   8    0.30    3.60
  12   4   8    3.50    7.00
  12   4   8    7.40    7.30
  13   4   8   15.20   11.70
  13   4   8   31.60   12.30
  13   4   8   30.20    9.10
  14   4   8   17.60    7.70
  14   4   8   32.70   21.60
  14   4   8   26.10   12.00
 -12   5   8   27.90   12.20
 -12   5   8   52.09   14.10
 -11   5   8   10.60    7.80
 -11   5   8   10.60    7.70
 -10   5   8   68.69   14.90
 -10   5   8   54.09   12.90
  -9   5   8   22.90    5.30
  -9   5   8   16.40    7.90
  -9   5   8   31.80   11.00
  -8   5   8   40.80    6.40
  -8   5   8   46.70   12.30
  -8   5   8   67.69   14.20
   7  -5  -8  182.68   15.00
  -7   5   8  175.28   17.50
  -7   5   8  164.38   12.70
  -7   5   8  173.88   18.30
  -6   5   8   94.59   10.10
  -6   5   8   99.49   13.70
  -6   5   8  122.09   13.70
  -5   5   8   23.50    7.60
  -5   5   8   28.40    9.20
  -5   5   8   17.40    6.10
  -4   5   8    0.20    4.00
  -4   5   8   -2.10    2.20
  -4   5   8   -0.10    3.30
  -3   5   8   75.99    6.50
  -3   5   8   71.49    9.50
  -3   5   8   73.99    6.40
  -3   5   8   79.79    9.70
  -3   5   8   87.09   11.90
   2  -5  -8   34.80    4.90
  -2   5   8   38.00    9.30
  -2   5   8   33.30    5.30
  -2   5   8   29.20    8.30
  -2   5   8   32.70    7.10
   1  -5  -8  449.66   20.60
  -1   5   8  428.16   21.20
  -1   5   8  403.56   20.50
  -1   5   8  393.66   23.70
  -1   5   8  424.76   25.50
   0  -5  -8  172.38   12.70
   0   5   8  161.08   14.70
   0   5   8  178.68   13.40
   0   5   8  188.28   12.10
  -1  -5  -8    8.00    4.10
   1   5   8    4.50    4.20
   1   5   8    5.10    2.70
   1   5   8    4.70    4.30
  -2  -5  -8  260.27   17.80
   2   5   8  274.37   20.20
   2   5   8  263.27   18.80
   2   5   8  272.17   13.70
  -3  -5  -8  103.39   11.60
   3   5   8  106.39   16.90
   3   5   8  110.69   12.00
   3   5   8  113.19    7.60
  -4  -5  -8  283.57   20.60
   4   5   8  285.17   12.50
   4   5   8  264.87   21.10
  -5  -5  -8    7.90    5.00
   5   5   8    7.40    5.80
   5   5   8   -0.30    2.60
  -6  -5  -8    1.00    3.70
   6   5   8   -1.20    1.10
   6   5   8   -0.50    3.40
   6   5   8   -0.70    2.80
  -7  -5  -8  122.19   15.10
   7   5   8  123.29   15.90
   7   5   8  111.19   12.20
   7   5   8  104.69    7.10
  -8  -5  -8   60.79   13.00
   8   5   8   54.99    5.30
   8   5   8   42.00   11.50
   8   5   8   42.20    9.50
  -9  -5  -8   18.20    8.20
   9   5   8   30.70    8.40
   9   5   8   17.00    8.90
   9   5   8   18.20    4.00
   9   5   8   14.70    8.40
  10   5   8   27.00    9.50
  10   5   8   41.30    9.90
  10   5   8   42.90   17.30
  11   5   8    3.10    4.60
  11   5   8   -2.20    3.60
  11   5   8    3.00    7.90
  12   5   8   14.70   11.40
  12   5   8    6.60    8.00
  12   5   8   13.30    7.00
  13   5   8   55.69   18.10
  13   5   8   40.50   11.60
  13   5   8   40.50   13.70
  14   5   8   12.80    7.70
  14   5   8   12.20    8.70
 -12   6   8   36.00   12.10
 -12   6   8   22.00   10.80
 -11   6   8   33.90   11.70
 -11   6   8   37.60   12.40
 -10   6   8    0.30    5.10
 -10   6   8    0.20    5.10
  -9   6   8   -0.10    4.50
  -9   6   8    1.70    5.40
  -8   6   8   72.69   15.60
  -7   6   8  187.28   18.60
  -7   6   8  207.98   20.30
  -7   6   8  207.58   12.60
   6  -6  -8   99.49    9.30
  -6   6   8  135.79   14.80
  -6   6   8  139.49   16.20
  -6   6   8  109.89    9.90
   5  -6  -8   36.40    7.20
  -5   6   8   45.10   10.40
  -5   6   8   45.90   11.60
  -5   6   8   47.10    8.60
  -4   6   8   20.60    6.60
  -4   6   8   21.10    3.10
  -4   6   8   23.80    8.60
  -4   6   8   22.20    6.70
  -4   6   8   18.60    3.10
   3  -6  -8  177.08   10.40
  -3   6   8  165.28   14.40
  -3   6   8  177.88   14.30
  -3   6   8  177.68   17.00
  -3   6   8  168.98   11.10
   2  -6  -8  303.87   16.00
  -2   6   8  294.07   18.60
  -2   6   8  291.47   19.40
  -2   6   8  321.17   22.70
   1  -6  -8   75.39    8.30
  -1   6   8   67.89    9.50
  -1   6   8   60.89    8.10
  -1   6   8   96.89    9.70
  -1   6   8   79.19   11.00
   0  -6  -8   -2.30    1.60
   0   6   8    1.20    1.90
   0   6   8    4.50    4.20
   0   6   8    0.30    2.30
  -1  -6  -8  170.68   13.90
   1   6   8  162.58   15.30
   1   6   8  163.28   11.60
   1   6   8  169.58   15.40
  -2  -6  -8  339.37   20.80
   2   6   8  289.57   15.30
   2   6   8  264.47   19.80
   2   6   8  286.57   21.00
  -3  -6  -8   53.69    8.90
   3   6   8   53.89   11.80
   3   6   8   49.90   10.40
   3   6   8   42.00    5.40
  -4  -6  -8   43.20    9.60
   4   6   8   41.00    9.20
   4   6   8   33.80   10.50
  -5  -6  -8    3.70    4.00
   5   6   8   -0.20    3.20
   5   6   8    2.60    3.80
  -6  -6  -8    3.20    4.30
   6   6   8    1.70    3.30
   6   6   8   -1.00    2.90
  -7  -6  -8  103.09   14.10
   7   6   8   98.19   12.10
   7   6   8   91.09   14.00
  -8  -6  -8   22.50   10.20
   8   6   8   27.40    8.10
   8   6   8   23.40    4.90
   8   6   8    9.20    6.70
  -9  -6  -8  102.99   15.10
   9   6   8   92.09   12.30
   9   6   8   71.69   16.60
 -10  -6  -8   -4.40    2.90
  10   6   8   -2.50    2.70
  10   6   8    1.80    9.80
  11   6   8   -6.10    2.70
  11   6   8   -3.20    4.50
  11   6   8   -2.20    2.40
  12   6   8   37.30   10.40
  12   6   8   32.00   14.00
  12   6   8   14.70    7.90
  13   6   8    6.80    6.50
  13   6   8   22.30    8.50
  13   6   8   31.30   14.70
  14   6   8   34.30   20.90
  14   6   8    5.70    5.40
  14   6   8   21.30   14.60
 -11   7   8   36.00   14.00
 -11   7   8   40.40   12.80
 -10   7   8    9.20    7.90
 -10   7   8    0.40    5.20
  -9   7   8   34.40   11.70
  -9   7   8   27.80   10.20
  -8   7   8   99.69   14.80
  -8   7   8   94.39   14.90
  -7   7   8   76.09    5.30
  -7   7   8   74.79    5.00
  -7   7   8   83.99   16.40
  -7   7   8   92.19   13.50
  -6   7   8   67.59    6.80
  -6   7   8   74.49   11.90
  -6   7   8   81.29   16.30
  -6   7   8   63.49    6.10
  -5   7   8  109.49    8.80
  -5   7   8  128.39   15.60
  -5   7   8  124.49   10.40
  -5   7   8  156.98   15.60
   4  -7  -8  150.68    9.20
  -4   7   8  129.29   13.80
  -4   7   8  153.78   16.50
  -4   7   8  152.18   12.10
  -4   7   8  130.69    9.30
  -4   7   8  134.89   10.30
   3  -7  -8   56.79    6.60
  -3   7   8   81.69   10.50
  -3   7   8   71.09    9.10
  -3   7   8   76.19   11.80
  -3   7   8   72.89    9.50
   2  -7  -8   -2.50    1.60
  -2   7   8    8.10    6.10
  -2   7   8    3.50    4.00
  -2   7   8   -0.70    2.90
  -2   7   8    1.50    2.90
   1  -7  -8  105.99   10.40
  -1   7   8   99.29   10.70
  -1   7   8  121.19   12.30
  -1   7   8  102.19   12.70
   0  -7  -8   -3.60    1.70
   0   7   8    4.60    3.30
   0   7   8   -3.80    2.30
   0   7   8    2.60    3.50
  -1  -7  -8   53.49    8.30
   1   7   8   71.29   10.50
   1   7   8   49.80    6.90
   1   7   8   45.30   10.10
  -2  -7  -8  112.89   12.10
   2   7   8   87.09    8.50
   2   7   8   83.89   13.70
   2   7   8   77.79   11.00
  -3  -7  -8  241.28   18.90
   3   7   8  254.57   20.40
   3   7   8  223.78   13.80
   3   7   8  249.08   19.10
  -4  -7  -8    8.60    5.00
   4   7   8    2.00    3.70
   4   7   8    2.30    3.30
  -5  -7  -8   -1.80    3.20
   5   7   8    3.00    4.10
   5   7   8    2.30    3.60
  -6  -7  -8  228.58   20.30
   6   7   8  218.38   18.20
   6   7   8  179.98   19.00
  -7  -7  -8   29.10   10.10
   7   7   8   49.00   10.90
   7   7   8   29.00   10.50
  -8  -7  -8   37.30   11.40
   8   7   8   27.90    8.70
   8   7   8   43.50   13.40
  -9  -7  -8   23.80    9.70
   9   7   8    9.40    7.40
   9   7   8   23.70    8.70
 -10  -7  -8    9.20    8.10
  10   7   8   -1.90    3.50
  10   7   8   18.10    8.30
 -11  -7  -8   12.20    8.00
  11   7   8    4.90    6.80
  11   7   8   30.50   11.10
 -12  -7  -8   79.79   18.80
  12   7   8   46.30   15.40
  12   7   8   84.49   13.70
  12   7   8   85.29   22.00
  13   7   8   39.20   12.40
  13   7   8   44.10   16.40
  13   7   8   18.70   10.50
 -10   8   8   40.80   12.60
 -10   8   8   54.29   15.10
  -9   8   8   34.50   11.60
  -9   8   8   22.00    9.60
  -8   8   8   69.49   15.60
  -8   8   8   64.79   14.50
  -7   8   8   60.69   13.70
  -7   8   8   54.29   12.60
  -6   8   8    0.90    1.50
  -6   8   8    1.40    5.40
  -6   8   8    3.10    5.00
  -5   8   8   73.99    6.70
  -5   8   8   74.79    7.20
  -5   8   8   67.19   13.50
  -5   8   8   91.39   13.70
  -5   8   8   69.89    6.60
   4  -8  -8   44.80    5.90
  -4   8   8   54.99   11.80
  -4   8   8   38.30    5.70
  -4   8   8   32.60    6.90
  -4   8   8   25.60    9.20
   3  -8  -8  222.88   14.00
  -3   8   8  194.58   14.70
  -3   8   8  207.18   19.60
  -3   8   8  211.68   17.80
  -3   8   8  209.78   15.20
   2  -8  -8    6.10    3.80
  -2   8   8    3.00    3.60
  -2   8   8   24.10    8.50
  -2   8   8   15.40    5.70
   1  -8  -8  248.58   16.90
  -1   8   8  270.87   18.50
  -1   8   8  243.08   20.40
  -1   8   8  253.17   18.30
   0  -8  -8  125.29   12.20
   0   8   8  131.39   14.90
   0   8   8   80.39    9.80
   0   8   8  113.89   12.60
  -1  -8  -8   12.40    5.40
   1   8   8   19.60    8.20
   1   8   8   17.70    6.00
   1   8   8    6.90    5.10
  -2  -8  -8  226.28   18.30
   2   8   8  241.18   19.40
   2   8   8  230.78   19.20
   2   8   8  220.18   14.90
  -3  -8  -8   36.90    9.70
   3   8   8   27.20    8.30
   3   8   8   28.40    8.50
  -4  -8  -8    0.70    3.70
   4   8   8    6.40    4.50
   4   8   8    0.90    3.90
  -5  -8  -8  123.49   15.10
   5   8   8  142.99   15.20
   5   8   8   91.59   13.70
  -6  -8  -8  100.59   14.20
   6   8   8   99.89   14.40
   6   8   8   72.39   13.50
  -7  -8  -8  140.29   17.10
   7   8   8  122.49   16.60
   7   8   8  169.28   16.90
  -8  -8  -8   23.10    9.20
   8   8   8   23.30   10.80
   8   8   8   20.50    8.10
  -9  -8  -8   -5.00    3.50
   9   8   8   -2.40    2.90
   9   8   8    2.60    5.20
 -10  -8  -8   25.10   10.20
  10   8   8   20.00    9.90
  10   8   8   31.30   11.20
 -11  -8  -8   47.10   13.80
  11   8   8   82.39   20.00
  11   8   8   58.59   13.70
 -12  -8  -8   54.59   17.60
  12   8   8   35.50   13.20
  12   8   8   18.10    9.20
 -13  -8  -8   10.90    8.60
  13   8   8   31.70   10.50
  13   8   8   14.40   12.60
  13   8   8   28.60   12.70
 -10   9   8   27.50   11.10
 -10   9   8   38.00   12.80
  -9   9   8  293.17   27.40
  -9   9   8  337.57   28.90
  -8   9   8   15.30    8.40
  -8   9   8   30.60   11.40
  -7   9   8   31.00   13.00
  -7   9   8   32.50   10.70
  -6   9   8   27.80   10.90
  -6   9   8   39.80   11.70
   5  -9  -8   30.70    5.60
  -5   9   8   13.80    7.40
  -5   9   8   25.00    3.40
  -5   9   8   30.20   10.10
  -5   9   8   24.70    3.30
   4  -9  -8   55.29    7.30
  -4   9   8   63.29   14.30
  -4   9   8   54.39    6.80
  -4   9   8   41.10    9.00
  -4   9   8   45.90   11.30
   3  -9  -8    1.90    2.80
  -3   9   8    5.50    5.20
  -3   9   8    6.50    4.20
  -3   9   8    4.60    4.30
  -3   9   8    3.20    3.90
   2  -9  -8   11.40    5.10
  -2   9   8    5.80    5.70
  -2   9   8   13.70    6.50
  -2   9   8    9.90    4.80
   1  -9  -8   -3.70    2.00
  -1   9   8    5.10    4.70
  -1   9   8   -2.00    2.40
  -1   9   8   10.10    5.80
   0   9   8   -0.30    3.60
   0   9   8    3.20    4.00
   0   9   8   -0.60    3.20
  -1  -9  -8  361.46   23.20
   1   9   8  320.47   24.20
   1   9   8  308.97   19.80
   1   9   8  297.57   21.80
  -2  -9  -8   49.50   10.70
   2   9   8   60.49    8.30
   2   9   8   38.50   10.40
   2   9   8   54.19   11.80
  -3  -9  -8   -4.00    2.50
   3   9   8    3.70    3.90
   3   9   8   -0.70    3.50
  -4  -9  -8    4.90    5.00
   4   9   8   -5.10    2.30
   4   9   8   -2.30    2.30
  -5  -9  -8  211.28   20.30
   5   9   8  224.08   19.90
   5   9   8  229.18   21.30
  -6  -9  -8   40.00   11.60
   6   9   8   50.79   12.70
   6   9   8   51.29   13.30
  -7  -9  -8   49.90   12.40
   7   9   8   63.69   13.60
   7   9   8   67.09   14.00
  -8  -9  -8   12.80    8.90
   8   9   8   -0.10    4.90
   8   9   8    1.90    4.70
  -9  -9  -8   -0.40    4.90
   9   9   8    8.40    6.50
   9   9   8   -3.20    3.10
 -10  -9  -8   -1.90    5.50
  10   9   8    0.90    4.60
  10   9   8   -2.30    4.20
 -11  -9  -8   50.19   15.00
  11   9   8   35.80   12.50
  11   9   8   48.20   12.50
 -12  -9  -8    0.90    6.00
  12   9   8    1.40    5.40
  12   9   8    2.70    6.90
 -13  -9  -8   15.20   10.40
  13   9   8   17.70    9.60
  13   9   8    4.50    6.40
  -9  10   8    4.10   10.90
  -9  10   8   11.90    8.50
  -8  10   8   83.29   18.50
  -8  10   8   81.09   16.80
  -7  10   8    9.90    8.20
  -7  10   8   -3.00    3.50
  -6  10   8   35.90   13.30
  -6  10   8   15.90    8.00
   5 -10  -8   80.29    8.80
  -5  10   8   99.89   14.40
  -5  10   8  105.69   15.80
   4 -10  -8   41.90    8.40
  -4  10   8   26.90   10.40
  -4  10   8   25.00    8.80
   3 -10  -8    0.20    3.40
  -3  10   8    2.60    4.90
  -3  10   8    2.20    3.00
  -3  10   8    1.90    4.60
  -2  10   8   -1.80    3.40
  -2  10   8    1.60    5.00
  -2  10   8    6.60    4.10
   1 -10  -8    3.40    4.70
  -1  10   8   -1.70    1.90
  -1  10   8   -2.90    2.50
  -1  10   8    8.00    4.50
   0 -10  -8  460.05   27.40
   0  10   8  423.06   25.90
   0  10   8  454.35   30.50
   0  10   8  444.46   30.20
  -1 -10  -8  114.19   13.70
   1  10   8   85.69   12.00
   1  10   8  115.69   15.00
   1  10   8  117.69   12.40
  -2 -10  -8   71.19   11.50
   2  10   8   71.79    9.60
   2  10   8   61.99   12.60
   2  10   8   27.90    9.30
  -3 -10  -8   34.70   10.00
   3  10   8    1.90    4.00
   3  10   8   16.90    7.80
  -4 -10  -8  112.39   14.70
   4  10   8  118.09   15.00
   4  10   8  155.08   17.10
  -5 -10  -8   38.80   11.00
   5  10   8   27.80    9.00
   5  10   8   42.00   11.20
  -6 -10  -8   44.30   12.70
   6  10   8   49.99   12.60
   6  10   8   31.60    9.70
  -7 -10  -8   -2.70    3.80
   7  10   8    5.50    6.50
   7  10   8   -1.70    3.40
  -8 -10  -8    1.20    4.90
   8  10   8   -2.60    4.20
   8  10   8    5.40    5.60
  -9 -10  -8   18.50   10.30
   9  10   8    3.80    5.70
   9  10   8   13.20    7.40
 -10 -10  -8  110.09   18.10
  10  10   8  149.29   21.00
  10  10   8  194.38   20.90
 -11 -10  -8   -1.10    5.90
  11  10   8    6.70    6.90
  11  10   8   27.80   12.50
 -12 -10  -8   31.10   13.60
  12  10   8   21.30    9.10
  12  10   8   13.20   11.60
  -8  11   8    3.50    6.60
  -7  11   8  117.89   17.30
  -7  11   8   89.69   17.50
  -6  11   8   20.80    8.80
  -6  11   8   34.90   11.80
   5 -11  -8   64.09    8.80
  -5  11   8   54.89   13.60
  -5  11   8   64.99   14.30
  -4  11   8    9.80    7.00
   3 -11  -8   28.70    7.60
  -3  11   8    6.70    6.90
  -3  11   8   30.10    6.40
  -3  11   8   18.30   12.40
   2 -11  -8   22.00    7.60
  -2  11   8   25.90    8.60
  -2  11   8   16.90    5.60
  -2  11   8   36.10   11.10
   1 -11  -8   43.70   10.80
  -1  11   8   37.40   10.20
  -1  11   8   66.99   14.80
  -1  11   8   60.59   11.60
   0 -11  -8  164.48   16.60
   0  11   8  125.89   16.80
   0  11   8  162.78   16.30
   0  11   8  168.58   15.70
  -1 -11  -8  114.19   14.40
   1  11   8   85.89   12.10
   1  11   8  101.09   12.30
   1  11   8  117.89   15.90
  -2 -11  -8    4.90    5.40
   2  11   8    3.40    3.50
   2  11   8   -0.10    3.60
   2  11   8    1.80    5.10
  -3 -11  -8   62.49   13.40
   3  11   8   66.79   15.00
   3  11   8   72.89   15.10
  -4 -11  -8   39.30   11.90
   4  11   8   62.39   14.00
   4  11   8   33.50   10.80
  -5 -11  -8    9.60    7.30
   5  11   8    7.50    6.00
   5  11   8    1.10    6.80
   6  11   8   22.20    8.50
   6  11   8   35.90   11.40
  -7 -11  -8    0.90    5.50
   7  11   8   -3.60    3.40
   7  11   8    2.40    4.30
  -8 -11  -8    1.40    5.90
   8  11   8    3.10    6.00
   8  11   8    0.20    5.00
  -9 -11  -8   61.69   15.70
   9  11   8   32.50   11.80
   9  11   8   75.19   16.40
 -10 -11  -8   44.30   14.00
  10  11   8   50.99   14.30
  10  11   8   45.10   14.50
 -11 -11  -8   74.49   17.10
  11  11   8   40.20   14.60
  11  11   8   54.09   15.00
 -12 -11  -8   45.50   16.00
  12  11   8   19.90   10.90
  12  11   8   27.10   12.20
  -7  12   8    3.40    5.80
  -7  12   8    3.80    6.30
  -6  12   8  168.88   20.90
  -6  12   8  227.88   23.80
   5 -12  -8   49.40   10.10
  -5  12   8   16.90    8.70
  -5  12   8   14.60    9.70
   4 -12  -8   -0.90    3.80
  -4  12   8    3.80    5.90
  -4  12   8    0.70    4.10
   3 -12  -8    7.40    5.30
  -3  12   8   25.00   10.70
  -3  12   8    9.90    6.20
   2 -12  -8   24.40    8.10
  -2  12   8   31.60   11.20
  -2  12   8   22.50    6.60
  -2  12   8   27.80   10.00
   1 -12  -8   -0.20    4.20
  -1  12   8    4.10    4.30
  -1  12   8   -0.10    4.70
  -1  12   8   -3.60    3.20
   0 -12  -8   43.80   11.70
   0  12   8   41.40   10.10
   0  12   8   38.40   10.40
  -1 -12  -8    1.60    4.20
   1  12   8    1.40    4.20
   1  12   8    0.20    3.80
  -2 -12  -8    1.10    4.90
   2  12   8    6.00    6.30
   2  12   8    0.10    3.40
   2  12   8    2.40    4.30
  -3 -12  -8  205.48   20.80
   3  12   8  144.49   18.20
   3  12   8  157.88   18.00
  -4 -12  -8   40.40   12.50
   4  12   8   34.40   11.20
   4  12   8   36.30   10.40
  -5 -12  -8   54.39   14.20
   5  12   8   32.70   10.70
   5  12   8   49.00   13.10
  -6 -12  -8    0.10    4.40
   6  12   8    1.20    4.60
   6  12   8    0.50    4.30
  -7 -12  -8   -1.70    4.50
   7  12   8    0.60    3.80
   7  12   8    1.20    4.80
  -8 -12  -8   13.70    9.30
   8  12   8   42.10   12.50
   8  12   8    5.90    6.00
  -9 -12  -8   15.40    9.40
   9  12   8    7.30    6.70
   9  12   8    0.60    5.20
 -10 -12  -8   -0.10    6.90
  10  12   8    7.30    7.10
  10  12   8   -0.80    4.60
 -11 -12  -8    0.50    6.00
  11  12   8   -2.20    4.90
  11  12   8    5.60    7.00
  -6  13   8   13.50    9.20
  -6  13   8   23.10   10.90
  -5  13   8   19.50    9.80
  -5  13   8   23.10    9.80
   4 -13  -8   -0.80    3.90
  -4  13   8   -6.60    4.00
  -4  13   8   -0.90    4.80
   3 -13  -8   33.10   10.70
  -3  13   8    6.70    6.50
  -3  13   8   16.80    9.50
   2 -13  -8   31.30    9.80
  -2  13   8   23.50    9.30
  -2  13   8   28.30   10.60
   1 -13  -8   72.79   15.00
  -1  13   8   61.59   15.40
  -1  13   8   45.60    9.50
  -1  13   8   52.99   13.40
   0 -13  -8   12.70    7.70
   0  13   8   19.60    7.80
   0  13   8   22.40   10.50
   0  13   8   27.40    9.90
  -1 -13  -8   -0.50    3.80
   1  13   8    3.90    5.80
   1  13   8   -1.70    3.30
   1  13   8    1.60    3.60
   2  13   8   10.10    6.00
   2  13   8    8.30    6.60
   2  13   8   11.40    6.20
  -3 -13  -8   68.09   15.60
   3  13   8   79.19   16.00
   3  13   8   65.49   14.90
  -4 -13  -8   63.09   14.60
   4  13   8   46.80   12.80
   4  13   8   67.79   15.60
  -5 -13  -8    3.30    6.00
   5  13   8    9.30    5.90
   5  13   8    3.00    6.20
  -6 -13  -8   -2.50    4.10
   6  13   8    3.40    6.50
   6  13   8   -3.40    3.90
  -7 -13  -8   -2.80    4.50
   7  13   8    4.40    5.60
   7  13   8    2.40    4.40
  -8 -13  -8   34.00   13.20
   8  13   8   21.70   10.10
   8  13   8   16.80   10.40
  -9 -13  -8    3.80    6.70
   9  13   8    6.20    6.50
   9  13   8    5.30    7.60
 -10 -13  -8    1.30    6.70
  10  13   8    9.20    8.90
  10  13   8    3.40    6.70
   4 -14  -8   33.20   16.00
  -4  14   8    9.00    7.30
  -4  14   8   21.80   10.70
   3 -14  -8   12.40    9.10
  -3  14   8   21.80   10.30
  -3  14   8    5.00    5.90
   2 -14  -8   61.19   20.70
  -2  14   8   31.40   11.30
  -2  14   8   50.29   13.40
   1 -14  -8    5.90    5.70
  -1  14   8    3.30    6.40
  -1  14   8   -2.00    4.10
   0 -14  -8   12.40    7.90
   0  14   8   35.50   10.00
   0  14   8   21.70   10.60
   0  14   8   32.30   11.00
  -1 -14  -8   45.10   13.10
   1  14   8   22.00   10.50
   1  14   8   15.60    7.30
   1  14   8   15.90    7.30
  -2 -14  -8   -0.80    4.70
   2  14   8    4.30    4.70
   2  14   8   -3.60    3.50
   2  14   8    4.40    5.00
  -3 -14  -8   12.70    8.50
   3  14   8   13.50    7.60
   3  14   8   15.60   10.20
  -4 -14  -8   33.30   12.50
   4  14   8   27.10   10.50
   4  14   8   36.10   12.80
  -5 -14  -8    5.50    6.70
   5  14   8   -4.50    4.00
   5  14   8    2.60    5.90
  -6 -14  -8   -2.90    3.90
   6  14   8   -2.10    3.50
   6  14   8   -0.60    5.50
  -7 -14  -8   41.10   13.90
   7  14   8   69.39   17.50
   7  14   8   31.90   12.20
   8  14   8    1.60    4.80
   8  14   8   18.20   14.00
   2 -15  -8   11.30    7.80
  -2  15   8    4.70    6.10
   1 -15  -8    4.10    5.80
  -1  15   8   -0.30    5.40
  -1  15   8   -0.70    5.20
   0 -15  -8    6.70    7.20
   0  15   8   15.40    8.80
   0  15   8    6.50    6.70
  -1 -15  -8   48.80   14.80
   1  15   8   50.49   13.80
   1  15   8   27.70   11.50
   1  15   8   17.60    7.90
  -2 -15  -8   11.70    8.90
   2  15   8   14.80    7.90
   2  15   8   32.50   12.40
   2  15   8   18.90    8.20
  -3 -15  -8   12.60    9.00
   3  15   8   18.20   10.10
   3  15   8   12.70    8.20
   3  15   8   29.50   11.10
  -4 -15  -8   -4.20    4.30
   4  15   8   -0.50    4.60
   4  15   8    1.80    5.90
  -5 -15  -8    4.90    8.00
   5  15   8    3.40    6.40
   5  15   8    0.40    5.20
   6  15   8    6.90    7.80
   6  15   8    8.30    8.30
   4  12  -9   43.30   11.00
  -4 -12   9   28.20   12.10
  -3 -12   9   21.90   10.30
  -3 -12   9    2.10    6.90
  -2 -12   9    8.70   14.10
  -2 -12   9   42.80   13.80
  -1 -12   9    5.60    8.30
   0 -12   9   19.20   12.70
   0 -12   9    5.90    7.40
  -7 -11   9    4.50    7.40
  -7 -11   9   14.40    9.80
  -6 -11   9   -0.20    5.80
  -6 -11   9   -0.80    8.20
  -5 -11   9   -4.60    4.80
  -5 -11   9    1.50    5.50
   4  11  -9   27.50    8.90
  -4 -11   9   43.80   14.20
  -4 -11   9   36.50   15.00
   3  11  -9   19.10    8.10
  -3 -11   9   17.80   10.70
  -3 -11   9   14.20    9.20
   2  11  -9   70.19   10.10
  -2 -11   9   79.89   17.50
  -2 -11   9   56.99   16.30
  -1 -11   9   -6.20    4.30
  -1 -11   9    0.30    6.00
   0 -11   9   13.40    8.70
   0 -11   9    5.60    9.00
   1 -11   9   11.20    8.60
   1 -11   9   12.30    9.10
   2 -11   9    5.80    6.40
   2 -11   9    3.30    6.70
   3 -11   9   48.10   13.70
   3 -11   9   58.89   20.50
  -8 -10   9    6.80    7.00
  -8 -10   9    2.10    6.40
  -8 -10   9    5.70   10.50
  -7 -10   9    8.20    7.70
  -7 -10   9   -1.00    4.90
  -7 -10   9    4.30    5.40
  -6 -10   9   -4.80    3.80
  -6 -10   9    4.50    6.10
  -5 -10   9   30.00   12.20
  -5 -10   9   36.50   13.40
  -4 -10   9   10.20    8.80
  -4 -10   9    2.00    6.10
  -3 -10   9   30.70   12.00
  -3 -10   9   37.70   12.90
   2  10  -9   16.80    6.60
  -2 -10   9   33.30   13.60
  -2 -10   9    5.20    6.30
   1  10  -9    4.00    3.40
  -1 -10   9   -1.10    7.20
  -1 -10   9    1.80    5.10
   0 -10   9   41.70   12.50
   0 -10   9   65.99   17.70
   1 -10   9   -3.30    5.70
   1 -10   9    2.00    5.30
   2 -10   9   -0.50    4.30
   2 -10   9    2.90    8.40
   3 -10   9   31.00   11.40
   3 -10   9   11.80   10.40
  -4  10  -9    8.10    5.80
   4 -10   9    2.00    5.50
   4 -10   9   -1.40    6.70
  -5  10  -9   -1.50    4.10
   5 -10   9    4.40    6.20
   5 -10   9   11.90   18.70
  -9  -9   9    7.90   10.10
  -9  -9   9   59.09   14.40
  -9  -9   9   69.49   17.30
  -8  -9   9   -2.30    4.10
  -8  -9   9    1.10    5.40
  -8  -9   9    7.10    6.20
  -7  -9   9   12.20    8.50
  -7  -9   9   27.20   16.70
  -7  -9   9   28.10   10.00
  -6  -9   9   86.19   16.20
  -6  -9   9   72.49   18.50
  -5  -9   9   11.70    6.30
  -5  -9   9   12.80    8.10
  -4  -9   9   55.29   12.00
  -4  -9   9   48.80   14.40
  -3  -9   9    2.50    4.10
  -3  -9   9    6.30    7.10
  -3  -9   9    6.70    7.70
  -2  -9   9   17.20    9.10
  -2  -9   9   17.90    9.00
  -1  -9   9    6.40    5.50
  -1  -9   9    4.30    6.70
   0   9  -9  135.09   10.20
   0  -9   9  152.58   21.60
   0  -9   9  107.59   28.10
   1  -9   9   92.79   24.60
   1  -9   9   96.39   21.10
   2  -9   9   24.70   12.50
   2  -9   9   26.90   11.20
   3  -9   9   14.30   10.10
   3  -9   9    5.20    5.90
  -4   9  -9   13.70    5.70
   4  -9   9   -3.40    5.40
   4  -9   9   10.80    6.90
  -5   9  -9   58.09    9.40
   5  -9   9   65.89   15.80
   5  -9   9   52.09   16.40
  -6   9  -9    8.50    8.80
   6  -9   9   -5.10    6.20
   7  -9   9    7.10    9.20
 -10  -8   9   11.50    7.00
 -10  -8   9   18.60    9.80
 -10  -8   9   26.50   12.80
  -9  -8   9   -3.40    4.20
  -9  -8   9   -0.70    4.50
  -9  -8   9   -2.70    3.40
  -8  -8   9   25.50   10.40
  -8  -8   9    6.00    6.30
  -8  -8   9   30.10    9.90
  -7  -8   9   15.80    8.10
  -7  -8   9   29.40   10.00
  -7  -8   9   25.90   11.30
  -6  -8   9   11.30    6.70
  -6  -8   9   28.90   11.00
  -6  -8   9   32.10   10.70
  -5  -8   9   58.59   15.20
  -5  -8   9   34.40   11.70
  -5  -8   9   49.20   12.00
  -4  -8   9  102.09   16.30
  -4  -8   9   66.59   15.30
  -4  -8   9   68.89   11.30
  -3  -8   9   36.60    9.50
  -3  -8   9   13.50    8.50
  -2  -8   9   17.40    9.40
  -2  -8   9   35.20    8.30
  -2  -8   9   12.80    8.00
  -1  -8   9   98.29   19.30
  -1  -8   9   74.29    9.30
  -1  -8   9  105.49   20.50
   0  -8   9    0.50    6.80
   0  -8   9   11.70    7.70
  -1   8  -9   96.89    7.10
   1  -8   9  150.38   19.00
   2  -8   9   -1.50    5.60
   2  -8   9    4.90    5.90
   3  -8   9    1.10    6.20
   3  -8   9    1.10    4.40
  -4   8  -9    1.90    3.80
   4  -8   9   -3.70    3.70
   4  -8   9    8.40    8.50
  -5   8  -9   72.69    9.40
   5  -8   9   55.79   13.50
   5  -8   9  119.09   24.70
  -6   8  -9   20.30    6.60
   6  -8   9   18.60    8.80
   6  -8   9   23.30   11.90
   7  -8   9    3.70    5.70
   7  -8   9    7.30    9.00
   8  -8   9   10.00   12.80
   8  -8   9    6.20    6.30
 -11  -7   9   79.39   21.60
 -10  -7   9   29.30    9.00
 -10  -7   9   31.90   11.90
 -10  -7   9   22.70   10.80
  -9  -7   9   12.10    7.90
  -9  -7   9    1.10    4.00
  -9  -7   9   -2.10    3.80
  -8  -7   9    6.90    5.70
  -8  -7   9    4.30    6.50
  -8  -7   9    5.50    5.60
  -7  -7   9    3.90    6.20
  -7  -7   9   23.70   10.10
  -7  -7   9   37.50   10.30
  -6  -7   9   93.99   13.70
  -6  -7   9  106.19   17.00
  -6  -7   9  105.79   14.40
  -5  -7   9   44.20   11.10
  -5  -7   9   66.59   14.30
  -4  -7   9    2.80    5.20
  -4  -7   9    7.10    5.40
  -4  -7   9   -1.20    3.60
  -3  -7   9   -0.60    2.90
  -3  -7   9    1.60    4.30
  -3  -7   9   11.10    7.10
  -2  -7   9    4.00    6.60
  -2  -7   9    3.00    5.80
  -2  -7   9   19.00    6.90
  -1  -7   9   43.20   12.30
  -1  -7   9   37.10    7.70
  -1  -7   9   50.49   14.20
   0  -7   9   54.49   13.10
   0  -7   9   51.69   14.30
   0  -7   9   51.09    7.00
   1  -7   9   40.40   13.10
   1  -7   9   23.70    9.60
   2  -7   9    9.90    6.70
   2  -7   9   -3.30    5.20
   3  -7   9    4.30    9.50
   3  -7   9    0.20    5.40
  -4   7  -9  168.78   12.80
   4  -7   9  160.78   22.80
   4  -7   9  175.98   19.50
  -5   7  -9    7.40    4.00
   5  -7   9    2.60    5.40
   5  -7   9    6.00    8.40
  -6   7  -9   29.90    6.70
   6  -7   9   16.50    8.30
   6  -7   9   12.80    9.20
  -7   7  -9   12.60    6.90
   7  -7   9    8.50    6.40
   7  -7   9   21.10   13.40
   8  -7   9    1.00    6.90
   8  -7   9    3.80    5.80
   9  -7   9   28.90   24.30
   9  -7   9   21.00    9.00
 -11  -6   9   25.30   11.10
 -11  -6   9   62.39   15.70
 -10  -6   9   18.30    6.50
 -10  -6   9   11.80    8.50
 -10  -6   9    6.00    6.60
  -9  -6   9   17.40    7.00
  -9  -6   9   17.40    8.20
  -9  -6   9   35.10   12.80
  -8  -6   9    5.40    6.30
  -8  -6   9   14.40    6.80
  -8  -6   9    1.80    5.40
  -7  -6   9   10.60    7.80
  -7  -6   9   22.80    8.30
  -7  -6   9   19.00    7.10
  -6  -6   9  137.29   18.90
  -6  -6   9  146.39   16.60
  -6  -6   9  171.38   16.90
  -5  -6   9    6.50    5.80
  -5  -6   9   26.00   11.10
  -5  -6   9   11.80    6.90
  -4  -6   9   12.70    7.30
  -4  -6   9    5.00    4.30
  -4  -6   9    7.50    5.90
  -3  -6   9    5.60    4.80
  -3  -6   9    2.80    4.40
  -3  -6   9    8.60    6.60
  -2  -6   9   69.79    9.50
  -2  -6   9   62.39   14.10
  -2  -6   9   58.29   13.40
  -1  -6   9    6.30    3.70
  -1  -6   9    1.80    4.70
  -1  -6   9   -5.10    3.50
   0  -6   9  103.59    9.90
   0  -6   9  105.29   16.10
   0  -6   9  155.38   18.20
  -1   6  -9    0.40    2.20
   1  -6   9   -0.60    1.90
   1  -6   9   -0.90    4.90
   1  -6   9    2.40    5.00
  -2   6  -9    2.10    1.80
   2  -6   9    6.60    5.90
   2  -6   9   -4.30    4.40
   3  -6   9   56.89   16.10
   3  -6   9   92.39   14.30
  -4   6  -9   24.70    5.60
   4  -6   9   10.30    7.00
   4  -6   9   39.90   13.70
  -5   6  -9   51.49    6.60
   5  -6   9   47.40   15.20
   5  -6   9   56.09   13.00
  -6   6  -9   -0.10    2.40
   6  -6   9   -1.60    3.70
   6  -6   9   -2.70    5.00
  -7   6  -9   15.90    4.70
   7  -6   9    2.10    7.50
   7  -6   9   15.10    7.70
   8  -6   9  115.69   24.50
   8  -6   9   99.09   15.00
   9  -6   9   10.80    9.70
   9  -6   9   -2.60    4.40
  10  -6   9    8.40    8.30
  10  -6   9   32.30   16.90
 -12  -5   9   24.90   11.30
 -12  -5   9   19.20   11.60
 -11  -5   9   81.29   18.90
 -11  -5   9   51.69   14.90
 -10  -5   9   18.50    9.50
 -10  -5   9    5.20    6.30
 -10  -5   9   21.20    6.60
  -9  -5   9   25.10   10.50
  -9  -5   9   27.20    6.70
  -9  -5   9   27.90   10.40
  -8  -5   9   28.70   11.40
  -8  -5   9   15.70    6.10
  -8  -5   9   13.50    8.20
  -7  -5   9   47.90   12.40
  -7  -5   9   44.20   12.80
  -7  -5   9   52.59   10.40
  -6  -5   9  144.09   16.40
  -6  -5   9  186.48   20.30
  -6  -5   9  136.19   16.40
  -5  -5   9   -2.50    2.50
  -5  -5   9    6.90    5.80
  -5  -5   9   -3.70    2.80
  -4  -5   9   14.30    7.50
  -4  -5   9   17.70    6.80
  -4  -5   9   18.70    8.30
  -3  -5   9   99.29   19.80
  -3  -5   9   60.19    9.70
  -3  -5   9   73.59   14.00
  -2  -5   9   33.60   11.00
  -2  -5   9   64.99   13.50
  -1  -5   9  450.95   24.00
  -1  -5   9  445.06   30.40
  -1  -5   9  439.86   30.90
   0  -5   9    1.80    3.80
   0  -5   9    1.50    2.70
   0  -5   9    8.40    6.60
  -1   5  -9   16.70    4.60
   1  -5   9   21.70    8.60
   1  -5   9   32.10    6.50
   1  -5   9   17.40    8.60
  -2   5  -9   83.39    6.80
   2  -5   9   83.39    7.00
   2  -5   9   92.59   15.40
   2  -5   9   96.89   14.50
   3  -5   9  191.68   21.70
   3  -5   9  170.98   18.80
  -4   5  -9   38.20    5.20
   4  -5   9   37.00   12.10
   4  -5   9   46.60   12.30
  -5   5  -9   38.20    4.90
   5  -5   9   59.19   13.60
   5  -5   9   40.10   13.30
  -6   5  -9   22.70    4.30
   6  -5   9   13.70   10.80
   6  -5   9   18.80    9.50
  -7   5  -9   42.20    4.90
   7  -5   9   41.10   14.50
   7  -5   9   37.50   11.80
   8  -5   9   29.20   14.20
   8  -5   9   42.10   12.00
   9  -5   9   64.49   14.80
   9  -5   9   82.09   21.70
  10  -5   9   -3.30    4.20
  10  -5   9    1.10    6.90
 -12  -4   9   24.10   10.70
 -12  -4   9   16.30    9.80
 -11  -4   9    6.10    7.20
 -11  -4   9   -2.90    4.10
 -10  -4   9   -1.70    4.00
 -10  -4   9   13.90    9.00
  -9  -4   9   47.40    6.40
  -9  -4   9   80.09   17.40
  -9  -4   9   40.40   12.00
  -8  -4   9    7.10    5.70
  -8  -4   9   13.90    8.30
  -8  -4   9   18.50    5.50
  -7  -4   9   62.29   13.50
  -7  -4   9  100.19   15.40
  -7  -4   9   88.19   10.10
  -6  -4   9   39.10    8.90
  -6  -4   9   38.30   10.80
  -6  -4   9   44.60   11.30
  -5  -4   9   -1.10    3.70
  -5  -4   9    3.20    4.20
  -5  -4   9    0.40    3.30
  -4  -4   9   35.70    9.00
  -4  -4   9   41.30   10.20
  -4  -4   9   30.40   10.00
  -3  -4   9   71.89   13.00
  -3  -4   9   56.09    9.20
  -3  -4   9   87.89   17.20
  -2  -4   9    3.90    3.80
  -2  -4   9    3.80    5.40
  -1  -4   9  114.79   11.40
  -1  -4   9  131.79   15.40
  -1  -4   9  105.09   14.80
   0  -4   9    1.30    4.10
   0  -4   9    5.10    4.90
   0  -4   9    5.60    3.90
  -1   4  -9    5.40    3.40
  -1   4  -9    2.00    2.40
   1  -4   9    4.80    2.70
   1  -4   9   -2.20    3.10
   1  -4   9   -0.10    4.10
  -2   4  -9   30.10    5.50
   2  -4   9   24.30    5.20
   2  -4   9   20.70    7.30
   2  -4   9   31.00   11.00
  -3   4  -9   70.69    5.40
  -3   4  -9   56.69    5.70
   3  -4   9   67.29   14.70
   3  -4   9   59.19    6.80
   3  -4   9   94.89   15.10
   4  -4   9  114.29   15.50
   4  -4   9  153.48   19.50
  -5   4  -9   37.20    3.60
   5  -4   9   45.30   11.90
   5  -4   9   41.20   14.30
  -6   4  -9    6.00    1.70
   6  -4   9    7.60    6.90
   6  -4   9    1.30    6.20
   7  -4   9   85.59   16.40
   7  -4   9   44.30   16.80
   8  -4   9   39.70   14.00
   8  -4   9   20.40    8.60
   9  -4   9   -6.90    4.80
   9  -4   9   -0.90    4.60
  10  -4   9   -1.70    7.50
  10  -4   9    1.70    6.00
  11  -4   9   16.60   11.60
  11  -4   9   20.60   10.60
 -12  -3   9   13.10    9.00
 -12  -3   9    8.90    7.90
 -11  -3   9   39.70   12.40
 -11  -3   9   24.90   10.00
 -10  -3   9   15.90    8.90
 -10  -3   9   39.90   12.80
  -9  -3   9   36.80   11.50
  -9  -3   9   24.50    3.10
  -9  -3   9   36.60   11.60
  -8  -3   9  123.19   16.20
  -8  -3   9  144.09   17.90
  -8  -3   9  134.99    9.40
   7   3  -9   67.69    8.80
  -7  -3   9   72.29   15.70
  -7  -3   9   80.79   12.80
  -7  -3   9   86.39    8.50
   6   3  -9   63.29   12.40
  -6  -3   9   76.99    9.00
  -6  -3   9   63.49   13.00
  -6  -3   9   74.59   12.00
  -5  -3   9   48.20   13.00
  -5  -3   9   59.89   13.00
  -5  -3   9   34.40    7.80
  -4  -3   9  206.48   17.80
  -4  -3   9  170.38   18.50
  -4  -3   9  203.38   16.00
  -3  -3   9  253.47   18.60
  -3  -3   9  186.88   19.40
  -3  -3   9  207.08   17.20
  -2  -3   9  100.29   11.50
  -2  -3   9  112.99   13.20
  -2  -3   9  135.79   16.20
  -1  -3   9   48.40   11.90
  -1  -3   9   67.19   10.80
  -1  -3   9   58.09    8.40
   0   3  -9    4.80    3.00
   0  -3   9    6.80    6.30
   0  -3   9    1.60    2.70
   0  -3   9   -1.00    3.90
  -1   3  -9  184.98   11.10
   1  -3   9  187.58   18.70
   1  -3   9  208.08   19.50
   1  -3   9  202.98   13.60
  -2   3  -9   28.80    4.00
  -2   3  -9   31.60    5.00
   2  -3   9   30.10    5.70
   2  -3   9   23.40    8.30
   2  -3   9   46.00   12.70
  -3   3  -9   -0.20    1.60
  -3   3  -9    2.30    1.30
  -3   3  -9    2.80    1.50
   3  -3   9    1.90    2.20
   3  -3   9   -2.70    3.00
   3  -3   9    7.00    5.30
  -4   3  -9    0.50    1.20
   4  -3   9   -1.70    3.80
   4  -3   9    2.70    1.90
   4  -3   9   -4.70    2.80
   5  -3   9   57.09   14.10
   5  -3   9   53.29   14.60
   6  -3   9  174.88   18.80
   6  -3   9  121.99   18.90
   7  -3   9  103.09   14.90
   7  -3   9  146.59   20.80
   8  -3   9   -3.00    3.00
   8  -3   9    7.90    9.40
   9  -3   9   12.80    9.50
   9  -3   9   -0.40    3.80
  10  -3   9   27.50   13.90
  10  -3   9   11.70    7.10
  11  -3   9   10.30   11.10
  11  -3   9    7.00    7.00
  12  -3   9    6.00   12.20
  12  -3   9    4.40    6.30
 -13  -2   9   19.30   10.00
 -13  -2   9   15.60    9.30
 -12  -2   9   19.70   10.10
 -12  -2   9    7.10    7.40
 -11  -2   9    4.50    6.80
 -11  -2   9    2.90    6.40
 -10  -2   9    9.50    7.00
 -10  -2   9    9.90    7.30
  -9  -2   9   76.09   16.00
  -9  -2   9   85.99   17.00
  -8  -2   9  197.98   20.60
  -8  -2   9  232.38   21.90
   7   2  -9   49.20    5.90
  -7  -2   9   67.19   15.00
  -7  -2   9   72.89   14.50
  -7  -2   9   55.69    6.10
   6   2  -9   59.09    7.30
  -6  -2   9   65.49    7.00
  -6  -2   9   86.39   13.30
  -6  -2   9   65.39   13.00
   5   2  -9  185.88   13.60
  -5  -2   9  194.88   13.40
  -5  -2   9  154.38   16.40
  -5  -2   9  208.38   20.00
   4   2  -9    4.20    3.30
  -4  -2   9    2.20    5.20
  -4  -2   9    8.20    4.50
  -4  -2   9    4.40    3.20
  -3  -2   9  212.08   16.30
  -3  -2   9  222.48   20.10
  -3  -2   9  241.78   18.60
  -2  -2   9   10.40    5.20
  -2  -2   9   10.20    5.50
  -2  -2   9   18.30    7.30
   1   2  -9   14.00    4.40
  -1  -2   9   30.10    7.80
  -1  -2   9   26.50    8.70
  -1  -2   9   28.00    8.10
   0   2  -9    0.40    2.20
   0  -2   9    0.60    3.50
   0  -2   9    3.10    4.00
   0  -2   9    2.30    2.80
  -1   2  -9   31.60    4.10
   1  -2   9   28.30   12.90
   1  -2   9   20.50    7.80
   1  -2   9   25.60    6.50
  -2   2  -9  216.48    9.40
  -2   2  -9  227.28   13.50
   2  -2   9  259.77   21.80
   2  -2   9  212.28   14.00
   2  -2   9  222.78   20.30
  -3   2  -9  104.89    8.40
   3  -2   9  110.59    9.10
   3  -2   9  102.59   14.80
   3  -2   9  126.19   15.40
  -4   2  -9    6.10    2.60
   4  -2   9   12.10    7.60
   4  -2   9    4.50    2.50
   4  -2   9    6.50    5.20
   5  -2   9   29.80   10.30
   5  -2   9   29.70   11.40
   6  -2   9  195.48    8.90
   6  -2   9  204.98   20.40
   6  -2   9  209.38    9.30
   6  -2   9  270.07   25.90
   7  -2   9   69.19   17.30
   7  -2   9   57.29   14.20
   8  -2   9   19.70   11.20
   8  -2   9   27.30   11.20
   9  -2   9    6.00    6.50
   9  -2   9    4.20    7.40
  10  -2   9   11.10    7.80
  10  -2   9   -3.30    5.40
  11  -2   9   13.60    9.50
  11  -2   9   14.40   10.10
  12  -2   9   10.60    7.30
  12  -2   9   14.40   12.40
 -13  -1   9   13.80    7.80
 -13  -1   9   15.40    8.70
 -12  -1   9    2.70    5.90
 -12  -1   9   -0.20    4.70
 -11  -1   9   10.80    8.00
 -11  -1   9   10.00    6.30
 -10  -1   9   72.89   14.80
 -10  -1   9   55.39   13.90
  -9  -1   9   96.69   17.50
  -9  -1   9  114.69   18.50
  -8  -1   9   17.90    8.00
  -8  -1   9   23.30    8.70
  -7  -1   9   79.59   12.50
  -7  -1   9   64.59   14.20
  -6  -1   9   80.69    5.40
  -6  -1   9  108.29   14.50
  -6  -1   9   86.39   13.00
  -6  -1   9   84.69    5.90
  -5  -1   9  232.58   12.80
  -5  -1   9  214.28   11.50
  -5  -1   9  213.28   19.30
  -5  -1   9  244.58   21.10
  -4  -1   9  102.99   12.70
  -4  -1   9   99.49   13.70
  -4  -1   9  100.49    9.40
   3   1  -9   16.60    5.40
  -3  -1   9   34.40    7.60
  -3  -1   9   21.00    8.10
  -3  -1   9   26.60    8.00
  -2  -1   9   83.49   12.60
  -2  -1   9   96.89   10.70
  -2  -1   9  104.89   12.00
   1   1  -9  125.89    9.40
  -1  -1   9  139.79   13.40
  -1  -1   9  102.79   13.50
  -1  -1   9  127.49   12.40
   0   1  -9  489.45   19.80
   0  -1   9  467.55   27.80
   0  -1   9  534.75   26.00
   0  -1   9  493.45   30.60
  -1   1  -9   45.30    4.30
   1  -1   9   43.30    6.80
   1  -1   9   46.50   11.10
   1  -1   9   75.39   11.40
  -2   1  -9  160.78    5.50
   2  -1   9  197.38   13.40
   2  -1   9  141.89   16.20
  -3   1  -9    4.00    2.70
   3  -1   9    2.40    4.90
   3  -1   9   -1.10    3.60
   3  -1   9    2.20    2.30
  -4   1  -9    7.80    3.10
   4  -1   9    6.20    4.80
   4  -1   9    3.60    5.40
   4  -1   9   14.30    4.30
   5  -1   9   10.70    6.40
   5  -1   9   -2.90    4.50
   5  -1   9   12.30    4.00
   6  -1   9   32.90   10.80
   6  -1   9   29.90    5.70
   6  -1   9   27.20    4.40
   6  -1   9   27.80   10.60
   7  -1   9   51.39   13.50
   7  -1   9   33.50    4.50
   7  -1   9   36.50    4.70
   7  -1   9   37.00   13.40
   8  -1   9   -1.90    3.20
   8  -1   9   18.10    9.30
   9  -1   9    9.60    2.40
   9  -1   9    6.10    8.00
   9  -1   9    9.30    7.40
  10  -1   9   68.19   15.90
  10  -1   9   61.69   17.70
  11  -1   9   83.39   20.90
  11  -1   9   49.20   14.40
  12  -1   9    8.70    7.40
  12  -1   9    2.30    8.40
 -13   0   9   19.40   12.10
 -13   0   9   28.10   10.10
 -12   0   9   34.30   12.00
 -12   0   9   22.00    8.30
 -11   0   9   18.70    9.20
 -11   0   9   16.90    8.80
 -10   0   9   32.00   11.40
 -10   0   9   50.69   12.60
  -9   0   9   59.59   21.40
  -9   0   9   74.19   14.50
  -8   0   9   33.50   10.60
  -8   0   9   60.39   13.10
  -7   0   9    4.20    3.70
  -7   0   9   -2.00    2.80
  -7   0   9    0.90    3.30
  -6   0   9  145.59   16.60
  -6   0   9  145.99   14.50
  -6   0   9  189.08   18.10
  -5   0   9  232.78   20.20
  -5   0   9  233.58   10.20
  -5   0   9  222.18    9.60
  -5   0   9  245.28   17.70
  -5   0   9  264.07   21.10
  -4   0   9  321.57   14.80
  -4   0   9  375.46   25.30
  -4   0   9  307.07   22.70
  -4   0   9  334.37   16.60
  -3   0   9   27.20    9.00
  -3   0   9   30.20    6.30
  -3   0   9   22.40    4.70
  -3   0   9   34.50    9.10
  -2   0   9    3.70    3.30
  -2   0   9    0.50    1.90
  -2   0   9   -0.40    2.70
  -2   0   9    5.10    5.30
   1   0  -9   14.10    3.90
  -1   0   9   21.30    6.90
  -1   0   9   26.50    8.90
  -1   0   9   25.50    6.90
   0   0  -9   15.40    3.40
   0   0   9   13.40    5.50
   0   0   9   12.70    6.20
   0   0   9   22.80    6.90
  -1   0  -9  270.97   11.30
   1   0   9  282.27   20.90
   1   0   9  315.47   18.70
   1   0   9  327.27   23.50
   2   0   9  220.88   19.60
   2   0   9  223.08   19.40
   2   0   9  216.38   15.00
   3   0   9   12.10    6.10
   3   0   9   12.10    4.50
   3   0   9    9.40    6.30
  -4   0  -9  164.18   13.20
   4   0   9  164.78   18.20
   4   0   9  170.78   12.40
   4   0   9  174.68   17.90
  -5   0  -9  326.47   16.50
   5   0   9  317.47   17.50
   5   0   9  324.67   26.70
   5   0   9  353.66   26.10
   6   0   9    0.90    3.10
   6   0   9   -2.60    2.90
   6   0   9    3.80    3.10
   7   0   9   11.60    4.20
   7   0   9   35.70   11.40
   7   0   9    7.40    6.90
   7   0   9   11.40    4.20
   8   0   9    2.00    4.60
   8   0   9    4.10    3.00
   8   0   9    1.60    5.40
   8   0   9    3.20    2.90
   9   0   9   57.49   14.80
   9   0   9   32.30    6.10
   9   0   9   37.60   22.10
  10   0   9   64.99   16.00
  10   0   9   74.79   20.50
  10   0   9   54.19    6.60
  11   0   9   77.29   16.90
  11   0   9   54.29   17.00
  12   0   9   35.90   13.20
  12   0   9   14.20   11.70
  13   0   9   -3.70    4.40
 -13   1   9   -2.20    4.70
 -13   1   9    3.70    6.60
 -12   1   9   63.49   13.10
 -12   1   9   91.79   18.60
 -11   1   9   54.99   14.30
 -11   1   9   88.89   17.20
 -11   1   9   83.99   12.70
 -10   1   9   96.99   13.70
 -10   1   9  139.59   18.30
 -10   1   9  106.89   15.70
  -9   1   9    9.10    7.00
  -9   1   9    5.10    5.10
  -9   1   9   17.10   12.90
  -8   1   9   28.60    9.80
  -8   1   9   24.10    8.80
  -8   1   9   54.29   12.30
  -7   1   9    6.80    5.40
  -7   1   9   10.20    5.90
  -7   1   9   13.10    7.00
  -6   1   9   -1.00    3.50
  -6   1   9   -5.70    2.20
  -6   1   9    2.00    4.30
  -5   1   9  553.34   28.60
  -5   1   9  496.75   31.20
  -5   1   9  549.25   31.50
  -4   1   9   25.10    3.60
  -4   1   9   27.10    8.70
  -4   1   9   23.20    3.30
  -4   1   9   27.90    7.70
  -4   1   9   23.40    8.20
  -3   1   9    3.80    3.30
  -3   1   9    0.00    3.50
  -3   1   9   -0.70    1.50
  -3   1   9    2.30    2.60
  -3   1   9    8.20    7.10
  -2   1   9  128.09   10.60
  -2   1   9  127.49   10.90
  -2   1   9  155.08   15.40
  -2   1   9  166.18   21.90
   1  -1  -9    6.30    2.80
  -1   1   9    3.10    2.60
  -1   1   9    3.70    3.90
  -1   1   9    4.70    3.70
   0  -1  -9  135.49    8.50
   0   1   9  150.88   18.60
   0   1   9  120.59   12.60
   0   1   9  142.79   13.10
   1   1   9  151.58   15.80
   1   1   9  160.18   13.40
   1   1   9  150.08   14.70
   2   1   9    3.80    4.40
   2   1   9   -1.20    3.40
   2   1   9   -2.00    1.90
   3   1   9   73.79   14.60
   3   1   9   91.59    9.80
   4   1   9  220.08   20.20
   4   1   9  283.67   22.90
   4   1   9  234.88   15.60
   5   1   9  321.07   25.80
   5   1   9  279.07   17.10
   5   1   9  293.77   23.90
   6   1   9   87.79   17.20
   6   1   9   87.89   13.80
   6   1   9   75.19    8.70
   7   1   9    4.70    6.70
   7   1   9    9.30    6.20
   7   1   9    4.60    3.30
   8   1   9    8.70    8.60
   8   1   9    3.90    3.50
   8   1   9    4.60    6.30
   9   1   9   -3.30    3.70
   9   1   9   10.60    4.30
   9   1   9   14.90   10.30
  10   1   9  137.39   18.70
  10   1   9  135.79   11.70
  10   1   9  134.19   21.40
  11   1   9    6.30    5.90
  11   1   9    1.00    3.10
  11   1   9    0.10    5.60
  12   1   9    0.20    4.80
  12   1   9   -2.30    6.30
  13   1   9   25.10   13.00
  13   1   9   36.60   13.80
 -12   2   9   26.20   10.80
 -12   2   9   13.90    8.50
 -12   2   9   13.40    6.70
 -11   2   9  175.38   16.60
 -11   2   9  177.48   20.60
 -11   2   9  144.09   20.00
 -10   2   9   34.80    9.30
 -10   2   9   54.09   13.70
 -10   2   9   27.80   10.20
  -9   2   9   64.09   12.90
  -9   2   9   40.20   12.90
  -8   2   9    7.20    5.20
  -8   2   9    0.30    3.70
  -8   2   9    7.10    6.80
  -7   2   9   31.10    9.00
  -7   2   9   29.40    9.40
  -7   2   9   22.70    8.90
  -6   2   9   91.89   11.90
  -6   2   9   66.19   10.70
  -6   2   9   84.99   13.10
  -5   2   9   26.70    7.90
  -5   2   9   34.10   10.20
  -4   2   9   -0.10    2.80
  -4   2   9   -1.80    3.00
  -4   2   9    0.40    4.00
  -3   2   9   13.50    6.90
  -3   2   9   12.20    3.60
  -3   2   9    4.20    3.70
  -3   2   9    9.60    4.20
  -3   2   9   11.60    3.00
  -2   2   9  464.55   22.40
  -2   2   9  454.75   21.70
  -2   2   9  523.05   28.40
  -2   2   9  444.96   20.10
  -2   2   9  440.46   27.40
   1  -2  -9    2.00    1.90
  -1   2   9    4.40    4.40
  -1   2   9   -0.30    1.90
  -1   2   9    4.90    4.10
  -1   2   9    3.90    3.50
  -1   2   9    6.00    3.00
   0   2   9  369.36   22.20
   0   2   9  408.76   29.80
   0   2   9  424.76   24.20
   0   2   9  426.86   18.00
   1   2   9    8.90    2.60
   1   2   9   20.10    6.30
   1   2   9    2.50    4.30
   1   2   9    8.50    5.30
   2   2   9   23.60    7.00
   2   2   9   19.90    7.40
   2   2   9   29.20    8.90
   3   2   9  135.69   15.30
   3   2   9  102.29   13.60
   3   2   9  115.29   11.40
   4   2   9  454.35   23.70
   4   2   9  444.86   29.50
   4   2   9  392.26   27.60
   5   2   9   25.50    9.80
   5   2   9   53.69    7.80
   5   2   9   30.80    8.70
   6   2   9  106.09   10.90
   6   2   9  106.39   15.90
   6   2   9  149.09   17.10
   7   2   9   21.90    9.90
   7   2   9   28.90   10.50
   7   2   9   34.70    7.70
   8   2   9   34.00   11.40
   8   2   9   12.40    8.70
   8   2   9   27.30    6.60
   9   2   9   93.89   20.10
   9   2   9   60.99   14.40
   9   2   9   61.79    9.40
  10   2   9   28.80   10.70
  10   2   9   59.29   17.10
  10   2   9   20.40    6.30
  11   2   9   24.90   11.40
  11   2   9    7.50    4.40
  11   2   9   14.70   10.60
  12   2   9    6.40    4.40
  12   2   9    4.00    7.80
  12   2   9    3.10    6.00
  13   2   9    5.40    9.00
  13   2   9    5.80    8.00
 -12   3   9    9.40    7.60
 -12   3   9   19.20   10.50
 -11   3   9   43.30   12.90
 -11   3   9   54.29   13.70
 -11   3   9   61.19    9.70
 -10   3   9   27.90    8.20
 -10   3   9   24.40   10.70
 -10   3   9   15.00    8.40
  -9   3   9   24.80   10.00
  -9   3   9    8.60    5.10
  -9   3   9   18.30    9.10
  -8   3   9  125.59   15.40
  -8   3   9  117.29   16.10
  -8   3   9  101.89   12.60
  -7   3   9  122.49   16.00
  -7   3   9  102.29   13.30
  -6   3   9  188.98   16.70
  -6   3   9  182.68   16.90
  -6   3   9  185.98   18.70
  -5   3   9   25.10    7.60
  -5   3   9   21.90    7.60
  -5   3   9   39.50   10.90
  -4   3   9   19.30    6.80
  -4   3   9   17.20    7.80
  -4   3   9   14.10    5.50
  -3   3   9  262.67   19.50
  -3   3   9  225.58   11.40
  -3   3   9  221.38   19.10
  -3   3   9  239.28   16.30
  -3   3   9  246.78   12.10
  -2   3   9   98.89    8.40
  -2   3   9  139.69   14.30
  -2   3   9  112.39   13.10
  -2   3   9  111.19    9.50
  -2   3   9  107.79   10.10
  -1   3   9    8.00    4.30
  -1   3   9    5.80    3.20
  -1   3   9   15.90    4.90
  -1   3   9   16.20    6.20
  -1   3   9   31.10    8.30
   0   3   9   90.59    7.70
   0   3   9  104.69   12.20
   0   3   9   89.49   12.00
   0   3   9   88.99   10.30
   1   3   9    0.00    1.50
   1   3   9   -0.70    3.00
   1   3   9    2.70    4.20
   2   3   9   78.59   14.70
   2   3   9   69.39   10.40
   2   3   9   70.89    9.40
   2   3   9   70.19    4.90
   3   3   9  236.48   20.10
   3   3   9  238.78   17.40
   3   3   9  287.37   22.30
   4   3   9    5.50    4.00
   4   3   9    7.80    4.80
   4   3   9    9.80    6.30
   5   3   9  196.28   15.40
   5   3   9  234.58   21.50
   5   3   9  218.88   20.50
   6   3   9   84.89   16.70
   6   3   9  112.49   15.00
   6   3   9   82.69   10.10
   7   3   9  111.79   16.90
   7   3   9   62.89   13.60
   8   3   9  200.18   23.10
   8   3   9  210.28   16.00
   8   3   9  169.08   19.70
   9   3   9   13.30    9.30
   9   3   9   23.70   10.20
   9   3   9   29.50    8.50
  10   3   9    9.60    7.90
  10   3   9   11.60    5.60
  10   3   9    4.70    8.20
  11   3   9    2.60    4.20
  11   3   9   -1.30    4.60
  11   3   9   -8.10    4.70
  12   3   9   14.40   11.80
  12   3   9   12.50    6.20
  12   3   9    9.90    9.50
  13   3   9   10.50   10.90
  13   3   9    0.60    4.90
  13   3   9    2.90    4.50
 -12   4   9   80.19   17.80
 -12   4   9   78.39   26.90
 -11   4   9   10.50    7.90
 -11   4   9    8.10    6.50
 -10   4   9   67.89    9.30
 -10   4   9  105.99   19.70
 -10   4   9   56.69   14.10
  -9   4   9   51.99   12.40
  -9   4   9   94.69   10.90
  -9   4   9  100.59   16.10
  -8   4   9    0.50    2.90
  -8   4   9   20.60    9.10
  -8   4   9   -4.10    3.50
  -7   4   9  190.08   15.70
  -7   4   9  147.59   16.40
  -7   4   9  177.98   19.50
  -6   4   9  131.89   14.30
  -6   4   9   97.89   11.70
  -6   4   9   85.39   13.20
  -5   4   9    9.30    5.30
  -5   4   9    4.90    4.00
  -5   4   9   27.30    9.80
  -4   4   9   -1.00    3.00
  -4   4   9    4.60    4.20
  -4   4   9   -4.30    2.10
  -3   4   9   15.30    7.60
  -3   4   9    5.10    4.60
  -3   4   9    8.90    2.80
  -3   4   9    5.20    2.30
  -3   4   9    9.90    4.50
  -2   4   9  139.69   10.70
  -2   4   9  188.38   16.40
  -2   4   9  161.98   15.70
  -2   4   9  166.28   11.00
  -2   4   9  126.49   11.40
  -1   4   9   61.09    9.90
  -1   4   9   63.39    7.40
  -1   4   9   75.29   10.80
  -1   4   9   62.69    7.70
  -1   4   9   50.89    7.40
   0   4   9   46.70    7.70
   0   4   9   62.49   13.00
   0   4   9   60.59   11.80
   0   4   9   50.19    6.20
   1   4   9   18.80    4.20
   1   4   9   14.50    5.60
   1   4   9   21.30    7.30
   2   4   9  312.87   13.60
   2   4   9  299.57   21.40
   2   4   9  298.27   22.70
   3   4   9  433.46   28.10
   3   4   9  411.46   15.00
   3   4   9  408.76   26.60
   4   4   9   79.79   12.30
   4   4   9   79.79   12.50
   4   4   9   80.69   12.40
   5   4   9   18.60    8.20
   5   4   9   26.70    7.30
   5   4   9   20.70    8.10
   6   4   9    4.20    4.20
   6   4   9    4.70    4.00
   6   4   9   15.40    8.30
   7   4   9   81.49   10.70
   7   4   9  111.89   16.90
   7   4   9  105.39   15.30
   8   4   9  239.48   23.30
   8   4   9  212.58   23.70
   8   4   9  180.88   15.90
   9   4   9   29.50   12.00
   9   4   9   16.00    6.20
   9   4   9   -1.20    4.50
  10   4   9   20.40   11.00
  10   4   9   30.60    8.50
  10   4   9    5.60    8.30
  11   4   9    9.60    9.10
  11   4   9   26.00    7.80
  11   4   9   18.10   10.90
  12   4   9    2.70    5.50
  12   4   9    0.20    3.60
  12   4   9   -5.20    4.60
  13   4   9   12.10    9.30
  13   4   9   16.40    7.50
  13   4   9   27.20   14.90
 -12   5   9    7.10    7.70
 -12   5   9   28.20   11.70
 -11   5   9   44.10   12.70
 -11   5   9   45.10   13.40
 -10   5   9   10.40    6.90
 -10   5   9    0.80    5.50
  -9   5   9    2.40    3.20
  -9   5   9    2.20    5.80
  -9   5   9    1.20    4.80
  -8   5   9  128.79   11.90
  -8   5   9  132.89   20.20
  -7   5   9   83.49   12.70
  -7   5   9   51.99   12.90
  -7   5   9   58.09    8.60
  -6   5   9   55.19   11.80
  -6   5   9   31.50    7.70
  -6   5   9   37.60   10.70
  -5   5   9    8.90    5.10
  -5   5   9   24.20    7.70
  -5   5   9    8.30    5.80
  -4   5   9  471.25   26.30
  -4   5   9  488.75   30.30
  -4   5   9  459.95   26.30
  -3   5   9  107.69    8.00
  -3   5   9  103.39   13.60
  -3   5   9  108.59   11.50
  -3   5   9  118.89    8.20
  -3   5   9  139.59   13.80
  -2   5   9   81.19    8.10
  -2   5   9   80.29   11.60
  -2   5   9   83.69    9.60
  -2   5   9   92.59    8.60
  -2   5   9  103.99   12.00
  -1   5   9  133.09   11.80
  -1   5   9  144.99   15.20
  -1   5   9  162.68   15.50
  -1   5   9  146.39   11.90
  -1   5   9  178.18   12.90
   0  -5  -9   15.70    5.10
   0   5   9   20.90    7.50
   0   5   9   13.60    4.50
   0   5   9   17.30    7.20
  -1  -5  -9   51.39    8.00
   1   5   9   53.89   11.20
   1   5   9   50.29   10.20
   1   5   9   61.59    6.60
  -2  -5  -9  100.09   11.40
   2   5   9  118.69   13.10
   2   5   9   96.59   13.00
   2   5   9   95.49    7.60
  -3  -5  -9   92.29   13.20
   3   5   9   90.59   12.80
   3   5   9   94.99    6.80
   3   5   9   72.79   10.40
  -4  -5  -9   71.59   13.40
   4   5   9   58.19    4.80
   4   5   9   54.19   13.40
   4   5   9   52.69   10.80
  -5  -5  -9   60.99   12.90
   5   5   9   28.30    8.80
   5   5   9   37.10    9.00
   5   5   9   36.80    3.30
  -6  -5  -9   23.60    8.40
   6   5   9   25.40   10.00
   6   5   9   15.70    6.20
   6   5   9   35.80   11.00
   6   5   9   19.40    2.10
  -7  -5  -9  132.59   16.10
   7   5   9  110.59   15.90
   7   5   9  126.79    5.00
   7   5   9  127.89   13.40
   7   5   9  105.89   16.50
   7   5   9  105.59    3.90
   8   5   9   30.60    8.10
   8   5   9   26.80   10.30
   8   5   9   16.50    9.50
   9   5   9   36.20   10.90
   9   5   9   38.20   14.10
   9   5   9   44.00   10.10
  10   5   9   -1.60    6.00
  10   5   9   -1.90    2.60
  10   5   9   -0.30    4.00
  11   5   9    6.60    9.70
  11   5   9    0.40    3.70
  11   5   9   -2.00    4.30
  12   5   9   21.90   13.20
  12   5   9   37.30   10.40
  12   5   9   46.70   15.20
  13   5   9   14.30    6.80
  13   5   9   36.50   16.10
  13   5   9   44.00   15.50
 -11   6   9    9.00    9.40
 -11   6   9   17.30    9.60
 -10   6   9   14.70    9.10
 -10   6   9    3.80    6.00
  -9   6   9   12.10    7.80
  -9   6   9   55.79   14.10
  -8   6   9  118.69    9.80
  -8   6   9  128.99   16.40
  -8   6   9   96.19   15.60
  -7   6   9   18.20    7.90
  -7   6   9   27.80    6.50
  -7   6   9   50.49   12.40
  -6   6   9   50.39   11.70
  -6   6   9   60.99   14.10
  -6   6   9   49.00    7.90
  -5   6   9   51.29   10.80
  -5   6   9   88.89   13.60
  -5   6   9   78.49    9.80
  -4   6   9   81.59    4.20
  -4   6   9   57.19   12.50
  -4   6   9   84.79   11.30
  -4   6   9  103.79   11.40
  -3   6   9  305.37   15.50
  -3   6   9  308.57   15.50
  -3   6   9  325.37   21.20
  -3   6   9  320.87   24.10
  -3   6   9  326.07   21.00
   2  -6  -9   -1.30    1.50
  -2   6   9    2.80    2.80
  -2   6   9    4.50    4.50
  -2   6   9    4.20    4.80
  -2   6   9   -2.80    1.90
   1  -6  -9  114.39   10.40
  -1   6   9  122.29   11.30
  -1   6   9  118.49   13.10
  -1   6   9  117.19   14.10
   0  -6  -9   42.00    8.10
   0   6   9   45.70   10.30
   0   6   9   45.30   10.30
   0   6   9   48.70    6.90
  -1  -6  -9  345.17   20.90
   1   6   9  347.47   18.10
   1   6   9  330.27   23.40
   1   6   9  330.27   23.30
  -2  -6  -9   10.40    4.90
   2   6   9   12.20    6.70
   2   6   9    7.40    5.20
   2   6   9   13.60    4.10
  -3  -6  -9  205.98   17.20
   3   6   9  186.38   11.40
   3   6   9  222.98   18.10
   3   6   9  172.98   17.70
  -4  -6  -9   -1.60    3.00
   4   6   9   -0.30    2.90
   4   6   9   -0.40    2.80
   4   6   9    0.70    1.70
  -5  -6  -9   35.90    9.50
   5   6   9   52.99   11.20
   5   6   9   36.30    4.40
   5   6   9   38.90   10.70
  -6  -6  -9  141.99   16.50
   6   6   9  169.38    9.00
   6   6   9  172.58   19.00
   6   6   9  169.68   16.00
   6   6   9  152.18    9.30
  -7  -6  -9  126.09   16.10
   7   6   9   70.49    6.00
   7   6   9   77.09   11.30
   7   6   9   72.29   14.80
  -8  -6  -9   27.40    9.30
   8   6   9   11.40    8.10
   8   6   9   12.50    3.20
   8   6   9   26.90    8.40
   9   6   9   -2.70    2.70
   9   6   9    1.20    6.80
  10   6   9    0.90    4.20
  10   6   9    2.50    6.80
  10   6   9    9.70    5.60
  11   6   9   52.79   15.10
  11   6   9   57.89   17.70
  11   6   9   88.89   13.20
  12   6   9   29.40   13.00
  12   6   9   33.00   10.10
  12   6   9   19.60   11.20
  13   6   9    2.40    4.80
  13   6   9   10.40    9.40
  13   6   9   12.00   14.20
 -11   7   9    3.00    6.20
 -11   7   9    3.80    6.40
 -10   7   9   -2.70    5.90
 -10   7   9   16.10    8.90
  -9   7   9   94.79   18.40
  -9   7   9   53.69   14.40
  -8   7   9   45.80   13.00
  -8   7   9   12.80    7.90
  -7   7   9   65.89   23.40
  -7   7   9   31.40    5.90
  -7   7   9   39.70   11.60
  -6   7   9   27.50   10.80
  -6   7   9   27.10    9.60
  -6   7   9   19.60    6.00
  -5   7   9   87.39   14.00
  -5   7   9   96.29   10.30
  -5   7   9   91.39   12.80
  -4   7   9   99.39   18.00
  -4   7   9   50.49    9.50
  -4   7   9   49.40   10.60
  -4   7   9   52.49    5.00
  -4   7   9   48.30    5.10
   3  -7  -9  114.29    8.80
  -3   7   9   98.79   11.50
  -3   7   9   95.09    9.30
  -3   7   9   92.19   11.40
  -3   7   9   96.09   13.60
   2  -7  -9   21.20    5.20
  -2   7   9   11.50    4.30
  -2   7   9   29.40    9.20
  -2   7   9   31.60    7.90
  -2   7   9   27.30    7.40
   1  -7  -9   25.40    6.00
  -1   7   9   30.20    9.20
  -1   7   9   37.90    9.70
  -1   7   9   29.30    7.60
   0  -7  -9    0.20    3.10
   0   7   9   -1.30    2.20
   0   7   9    1.10    3.50
  -1  -7  -9    3.60    3.80
   1   7   9    0.90    3.80
   1   7   9    4.20    3.90
   1   7   9    5.30    3.30
  -2  -7  -9  206.78   17.40
   2   7   9  253.17   20.50
   2   7   9  231.58   19.90
   2   7   9  231.28   14.40
  -3  -7  -9  138.59   14.70
   3   7   9  145.79   15.40
   3   7   9  148.59   16.20
   3   7   9  136.19   10.50
  -4  -7  -9   46.60   10.70
   4   7   9   36.30    5.30
   4   7   9   35.40    9.90
   4   7   9   49.30   10.60
  -5  -7  -9   26.40    9.50
   5   7   9   33.80   11.60
   5   7   9   28.50    5.30
   5   7   9   32.50   10.10
  -6  -7  -9  253.07   22.10
   6   7   9  281.77   24.60
   6   7   9  228.28   19.70
  -7  -7  -9   38.60   11.60
   7   7   9   17.00    4.70
   7   7   9   22.30    9.30
   7   7   9   16.00    7.30
  -8  -7  -9   15.00    7.70
   8   7   9    1.00    3.80
   8   7   9   -0.20    3.60
  -9  -7  -9   33.70   11.40
   9   7   9   27.10   10.20
   9   7   9   33.20    9.90
 -10  -7  -9   -3.00    4.60
  10   7   9    1.70    4.90
  10   7   9   12.10    7.00
  11   7   9   37.00   14.40
  11   7   9   49.40   12.70
  11   7   9   50.29   14.80
  12   7   9   24.20    9.80
  12   7   9   33.00   14.50
  12   7   9   50.99   16.30
  13   7   9    1.80    5.40
  13   7   9  -11.40   10.10
  13   7   9   -0.50   12.00
 -10   8   9   77.59   17.70
  -9   8   9   23.80   10.80
  -9   8   9   12.10    8.20
  -8   8   9   22.10    9.30
  -8   8   9   16.60    8.40
  -7   8   9    1.50    4.90
  -7   8   9    9.40    6.90
  -6   8   9   49.10    6.00
  -6   8   9   53.89   14.00
  -5   8   9   96.89   13.40
  -5   8   9   77.39    8.70
  -5   8   9   79.69   16.10
   4  -8  -9   96.59    7.60
  -4   8   9   94.99   10.40
  -4   8   9   95.99   12.70
  -4   8   9   81.99    8.00
  -4   8   9  107.69   15.40
   3  -8  -9    3.50    2.90
  -3   8   9    2.60    4.00
  -3   8   9    3.50    5.30
  -3   8   9    1.70    3.30
  -3   8   9    4.90    3.80
   2  -8  -9    2.90    3.10
  -2   8   9    6.90    4.10
  -2   8   9   10.40    6.50
  -2   8   9    7.80    5.00
   1  -8  -9  120.59   11.60
  -1   8   9  106.29   11.60
  -1   8   9  116.99   13.10
  -1   8   9   82.79   12.90
   0  -8  -9   16.60    5.80
   0   8   9   11.30    6.60
   0   8   9   14.80    6.50
   0   8   9    8.00    4.30
  -1  -8  -9   52.59   10.50
   1   8   9   45.70   11.30
   1   8   9   33.80    9.20
  -2  -8  -9  132.79   14.30
   2   8   9  139.89   15.90
   2   8   9  136.59   11.70
   2   8   9  156.88   16.40
  -3  -8  -9    0.40    3.60
   3   8   9   -1.50    2.80
   3   8   9    7.20    5.10
   3   8   9    4.00    3.40
  -4  -8  -9   60.19   12.50
   4   8   9   78.59   12.10
   4   8   9   40.80   11.30
   4   8   9   48.00    6.70
  -5  -8  -9  317.77   25.00
   5   8   9  376.66   25.60
   5   8   9  301.37   25.40
  -6  -8  -9   10.40    7.00
   6   8   9    6.80    6.30
   6   8   9   12.50    6.90
  -7  -8  -9   96.49   14.80
   7   8   9   71.59   13.90
   7   8   9   86.49   18.40
  -8  -8  -9   29.00   16.50
   8   8   9   24.20    9.20
  -9  -8  -9    3.50    6.20
   9   8   9   36.30   15.20
   9   8   9   11.80    8.20
 -10  -8  -9    8.00    7.30
  10   8   9   19.80   10.90
  10   8   9   17.90    8.40
 -11  -8  -9   33.80   11.60
  11   8   9   46.00   14.60
  11   8   9   35.60   10.50
 -12  -8  -9    5.70    8.10
  12   8   9   -3.00    5.40
  12   8   9    3.70    6.00
  12   8   9    9.50    8.60
  13   8   9   -2.40    4.70
  13   8   9   -3.40    3.90
  13   8   9   -2.70    6.70
  -9   9   9   45.80   14.10
  -9   9   9   40.20   13.00
  -8   9   9   37.20   12.40
  -8   9   9   25.00   10.10
  -7   9   9   37.70   12.10
  -7   9   9   17.10    8.70
  -6   9   9   22.40    9.90
  -6   9   9    5.00    6.00
  -5   9   9   59.79   15.30
  -5   9   9   50.49    6.30
   4  -9  -9   34.80    6.50
  -4   9   9   35.20   10.20
  -4   9   9   44.80    8.30
  -4   9   9   37.50   11.30
   3  -9  -9    2.10    2.70
  -3   9   9    0.10    2.90
  -3   9   9    5.10    5.50
  -3   9   9    5.20    5.00
   2  -9  -9   44.90    8.90
  -2   9   9   47.70   10.20
  -2   9   9   24.00    9.50
  -2   9   9   24.60    7.90
   1  -9  -9  113.89   12.30
  -1   9   9  145.09   14.90
  -1   9   9  135.59   13.70
  -1   9   9  135.49   16.30
   0  -9  -9    0.30    3.90
   0   9   9    4.30    5.70
   0   9   9    9.90    6.00
   0   9   9    8.10    4.60
  -1  -9  -9  285.27   21.20
   1   9   9  290.47   22.50
   1   9   9  293.47   23.90
   1   9   9  275.67   18.60
  -2  -9  -9   10.60    6.20
   2   9   9   16.90    5.50
   2   9   9   23.10    8.80
   2   9   9   14.80    7.10
  -3  -9  -9    3.60    5.00
   3   9   9    8.30    4.00
   3   9   9    4.70    5.40
   3   9   9   -1.50    3.30
  -4  -9  -9  232.78   20.90
   4   9   9  250.37   22.60
   4   9   9  219.48   20.30
  -5  -9  -9   46.50   11.70
   5   9   9   65.69   13.40
   5   9   9   58.79   14.20
  -6  -9  -9   28.80   10.40
   6   9   9   11.40    7.50
   6   9   9   12.30    7.40
  -7  -9  -9    0.80    4.20
   7   9   9   -2.50    2.80
   7   9   9    1.50    4.70
  -8  -9  -9    9.60    7.20
   8   9   9   15.50    9.50
   8   9   9   15.30    7.50
  -9  -9  -9   -1.10    4.50
   9   9   9   10.70    6.90
   9   9   9    3.80    5.10
 -10  -9  -9    8.80    7.20
  10   9   9    4.40    5.90
  10   9   9    6.10    6.30
 -11  -9  -9   24.60   11.60
  11   9   9   11.10    8.00
  11   9   9   22.30    9.40
 -12  -9  -9   -4.20    7.30
  12   9   9   -5.30    3.70
  12   9   9    1.20    6.40
  -8  10   9    2.10    6.30
  -8  10   9    2.10    6.40
  -7  10   9    9.80    7.40
  -7  10   9    1.10    5.50
  -6  10   9   70.49   15.40
  -6  10   9   50.79   14.00
   5 -10  -9   65.39    7.10
  -5  10   9   51.09   12.60
  -5  10   9   84.89   17.00
   4 -10  -9    2.30    3.30
  -4  10   9   -4.30    3.70
  -4  10   9   -2.00    3.30
  -4  10   9    1.50    2.80
   3 -10  -9    4.50    3.90
  -3  10   9    5.20    6.00
  -3  10   9   -4.70    3.50
  -3  10   9   -1.00    2.70
  -2  10   9  133.49   17.10
  -2  10   9  109.89   12.30
  -2  10   9  126.29   14.50
   1 -10  -9  130.29   13.50
  -1  10   9  111.89   13.60
  -1  10   9  130.89   16.60
   0 -10  -9   94.89   12.20
   0  10   9   93.09   14.60
   0  10   9   95.79   12.00
   0  10   9   83.69   11.80
  -1 -10  -9    2.80    4.40
   1  10   9   15.30    5.90
   1  10   9    1.90    4.40
   1  10   9    3.40    5.20
  -2 -10  -9    0.10    4.00
   2  10   9    5.90    6.00
   2  10   9    0.30    2.90
   2  10   9    0.00    4.10
  -3 -10  -9    4.90    5.20
   3  10   9    3.40    4.00
   3  10   9   -0.80    3.90
   3  10   9    3.60    5.60
  -4 -10  -9  154.88   17.70
   4  10   9  134.59   16.80
   4  10   9  134.49   16.50
  -5 -10  -9   14.70    8.00
   5  10   9   34.00   11.00
   5  10   9   15.80    8.70
  -6 -10  -9   39.80   12.10
   6  10   9   21.30    9.20
  -7 -10  -9   13.20    8.70
   7  10   9    6.10    6.90
   7  10   9   11.50    7.60
  -8 -10  -9   13.10    8.70
   8  10   9    7.00    6.50
   8  10   9    5.40    7.20
  -9 -10  -9   71.69   17.00
   9  10   9   78.59   17.30
   9  10   9   78.29   15.50
 -10 -10  -9   15.80    9.60
  10  10   9   19.60   10.20
  10  10   9   12.70    7.90
 -11 -10  -9    7.90    8.30
  11  10   9   -1.40    3.90
  11  10   9    0.20    5.20
 -12 -10  -9    0.90    6.50
  12  10   9   -0.30    4.70
  12  10   9   -4.50    5.20
  -7  11   9  129.49   19.00
  -7  11   9  143.49   19.50
  -6  11   9   16.40    8.10
  -6  11   9   29.80   12.10
  -5  11   9    4.70    7.10
  -5  11   9   -0.50    5.20
   4 -11  -9   -0.40    3.20
  -4  11   9    4.70    7.00
  -4  11   9    2.20    5.10
   3 -11  -9    2.90    3.70
  -3  11   9   -4.40    3.70
  -3  11   9    0.90    3.10
  -3  11   9   -1.20    3.70
   2 -11  -9   46.70   10.00
  -2  11   9   57.09    9.20
  -2  11   9   35.40   11.90
  -2  11   9   32.40   11.20
   1 -11  -9   34.90    9.50
  -1  11   9   12.10    6.20
  -1  11   9   11.20    6.10
   0 -11  -9   18.20    7.40
   0  11   9    9.70    8.20
   0  11   9   11.20    5.70
   0  11   9    0.20    3.30
  -1 -11  -9    4.00    5.50
   1  11   9    1.40    4.50
   1  11   9   -3.50    3.50
   1  11   9    2.10    3.90
  -2 -11  -9   10.20    7.10
   2  11   9    8.20    8.90
   2  11   9   13.50    7.70
   2  11   9   10.00    5.70
  -3 -11  -9  103.59   14.80
   3  11   9   84.09   13.60
   3  11   9  106.69   12.10
   3  11   9  112.99   26.40
  -4 -11  -9    5.10    5.80
   4  11   9   14.60    8.20
   4  11   9    5.20    6.50
  -5 -11  -9   20.00    9.10
   5  11   9   41.20   13.00
   5  11   9   53.89   14.10
  -6 -11  -9    2.90    4.80
   6  11   9    3.90    5.10
   6  11   9    7.50    6.90
  -7 -11  -9   -0.10    4.60
   7  11   9   -4.00    3.40
   7  11   9    3.50    5.10
  -8 -11  -9   45.10   13.70
   8  11   9   49.90   15.60
   8  11   9   61.09   14.70
  -9 -11  -9   53.39   15.90
   9  11   9   27.50   11.70
   9  11   9   39.60   12.90
 -10 -11  -9    4.10    7.10
  10  11   9    0.90    5.00
  10  11   9   -0.20    5.20
 -11 -11  -9    3.90    7.50
  11  11   9    1.90    6.50
  11  11   9   -1.90    5.50
  -6  12   9   38.80   13.10
  -6  12   9   50.39   13.30
  -5  12   9    5.30    6.60
  -5  12   9    4.40    5.80
   4 -12  -9    1.20    3.60
  -4  12   9    5.40    6.30
  -4  12   9   -4.10    4.80
   3 -12  -9  177.28   16.20
  -3  12   9  161.18   20.20
  -3  12   9  138.49   17.50
   2 -12  -9    0.70    4.20
  -2  12   9    9.50    7.40
  -2  12   9   10.20    5.80
  -2  12   9    5.60    6.10
   1 -12  -9   57.59   12.80
  -1  12   9   41.50   10.20
  -1  12   9   81.69   15.50
  -1  12   9   57.89   14.70
   0 -12  -9   15.50    7.50
   0  12   9    8.40    7.10
   0  12   9   10.20    6.00
  -1 -12  -9   -3.80    3.00
   1  12   9   -3.40    4.70
   1  12   9    4.80    5.10
   1  12   9    4.10    5.10
  -2 -12  -9  100.09   14.70
   2  12   9   93.29   14.00
   2  12   9   79.69   16.80
   2  12   9  104.19   12.90
  -3 -12  -9   56.29   13.80
   3  12   9   27.90   10.00
   3  12   9   49.00   12.50
   3  12   9   50.19   10.50
  -4 -12  -9   49.70   12.70
   4  12   9   44.90   12.70
   4  12   9   64.19   14.90
  -5 -12  -9   10.40    7.70
   5  12   9   -1.70    3.00
   5  12   9    6.00    6.70
  -6 -12  -9    3.60    5.90
   6  12   9   12.00    8.00
   6  12   9    5.20    6.10
  -7 -12  -9   24.60   11.00
   7  12   9    2.50    6.30
   7  12   9   16.70    9.20
  -8 -12  -9   28.40   11.80
   8  12   9   23.00   10.90
   8  12   9   10.30    7.50
  -9 -12  -9    6.80    7.20
   9  12   9   13.90    9.60
   9  12   9    2.70    5.40
 -10 -12  -9   -0.90    8.30
  10  12   9   26.80   17.00
  -5  13   9   -3.30    4.70
  -5  13   9   15.90   15.90
  -4  13   9  105.79   19.70
  -4  13   9  118.29   17.20
   3 -13  -9    8.00    5.50
  -3  13   9    0.40    5.50
  -3  13   9   11.90    7.90
   2 -13  -9  183.68   18.30
  -2  13   9  197.18   22.80
  -2  13   9  160.78   19.00
   1 -13  -9    8.30    6.60
  -1  13   9    2.40    4.40
  -1  13   9    0.60    4.60
  -1  13   9   14.60    9.00
   0 -13  -9    3.20    5.20
   0  13   9   -0.20    5.20
   0  13   9   13.60    7.00
   0  13   9    1.60    4.20
  -1 -13  -9   29.50   10.80
   1  13   9    3.00    5.20
   1  13   9   -0.40    4.60
   1  13   9    1.80    3.70
  -2 -13  -9   72.59   15.50
   2  13   9   54.49   12.10
   2  13   9   64.39   15.90
   2  13   9   83.19   16.90
  -3 -13  -9   23.40   10.00
   3  13   9   19.90    9.20
   3  13   9   18.70    8.70
   3  13   9   12.10    5.90
  -4 -13  -9   61.89   15.10
   4  13   9  104.09   16.00
   4  13   9   70.59   15.80
  -5 -13  -9    4.40    6.50
   5  13   9   -2.70    3.20
   5  13   9    8.60    7.00
  -6 -13  -9    0.90    5.60
   6  13   9    4.70    6.10
   6  13   9    2.90    5.50
  -7 -13  -9   -0.20    5.30
   7  13   9   21.20   11.20
   7  13   9    6.50    7.10
  -8 -13  -9   27.40   11.60
   8  13   9   40.40   13.10
   8  13   9   34.50   12.20
  -9 -13  -9    4.90    8.40
   9  13   9   -6.00    7.30
   9  13   9    3.70    6.40
   3 -14  -9   44.70   11.40
  -3  14   9   45.60   13.70
  -3  14   9   18.00   13.10
   2 -14  -9   11.80    8.90
  -2  14   9   22.30   10.20
  -2  14   9   20.30    9.90
   1 -14  -9    0.00    4.70
  -1  14   9   15.30    8.20
  -1  14   9   -4.60    4.30
   0 -14  -9    8.40    6.90
   0  14   9    6.00    7.30
   0  14   9    2.50    5.40
   0  14   9   -1.20    4.20
  -1 -14  -9    5.80    5.90
   1  14   9   13.40    9.00
   1  14   9   12.20    7.00
   1  14   9   15.80    7.60
  -2 -14  -9   16.30    8.50
   2  14   9   13.10    7.00
   2  14   9    8.00    6.80
   2  14   9    7.80    6.40
  -3 -14  -9   34.30   11.80
   3  14   9   36.40   12.10
   3  14   9   33.50   11.60
   3  14   9   45.20   11.90
  -4 -14  -9    7.10    7.10
   4  14   9   17.60    9.00
   4  14   9   14.40    7.80
   4  14   9   12.80    8.40
  -5 -14  -9    3.70    5.70
   5  14   9   12.10    8.10
   5  14   9    3.60    6.50
  -6 -14  -9   23.80   11.40
   6  14   9   36.80   12.40
   6  14   9   27.30   11.20
  -7 -14  -9   32.00   13.10
   7  14   9   21.40   11.10
   7  14   9   26.20   16.10
   0 -15  -9   37.10   12.00
   0  15   9   42.10   11.80
   0  15   9   34.50   13.30
  -1 -15  -9   26.20   11.30
   1  15   9    5.90    6.80
   1  15   9   16.30    8.80
   1  15   9    7.70    7.00
  -2 -15  -9   50.69   14.90
   2  15   9   31.20   11.40
   2  15   9   25.80   11.30
   2  15   9   12.40    7.30
  -3 -15  -9    6.90    6.60
   3  15   9    0.50    4.70
   3  15   9   -2.00    5.40
   3  15   9    7.80    6.70
  -4 -15  -9    4.60    6.30
   4  15   9    0.30    4.50
   4  15   9    1.10    5.00
   4  15   9   -4.40    7.20
  -5 -15  -9   10.30   10.00
   5  15   9    4.40    6.50
   5  15   9    2.00    4.90
   4  11 -10   11.00    6.90
  -4 -11  10   28.80   12.60
   3  11 -10   35.60   10.60
  -3 -11  10   38.90   13.90
  -3 -11  10   32.00   13.50
  -2 -11  10   24.00   13.40
  -2 -11  10   29.50   13.40
  -1 -11  10   15.40   11.50
  -1 -11  10    1.80    5.70
   0 -11  10    3.80    5.50
   1 -11  10   15.90   11.80
   1 -11  10    5.90    7.20
  -7 -10  10    1.90    6.40
  -7 -10  10    7.80    9.00
  -7 -10  10   -4.00    4.10
  -6 -10  10    1.20    5.40
  -6 -10  10   -2.40    4.50
  -5 -10  10   19.10   10.60
  -5 -10  10    3.50    6.00
  -4 -10  10   40.80   14.30
  -4 -10  10    2.50    6.80
  -3 -10  10    6.20    7.00
  -3 -10  10   -2.80    5.10
   2  10 -10   20.20    7.40
  -2 -10  10   48.80   15.90
  -2 -10  10   24.50   12.00
  -1 -10  10   23.90   11.00
  -1 -10  10   15.90   11.00
   0 -10  10   23.70   11.90
   0 -10  10   10.60    8.60
   1 -10  10    9.00   10.20
   1 -10  10    0.90    5.10
   2 -10  10   28.50   11.30
   2 -10  10    7.50    9.70
  -3  10 -10   18.00    7.40
   3 -10  10   19.60    9.60
   3 -10  10    4.80   12.00
   4 -10  10   34.10   13.00
   4 -10  10   -4.80    6.50
  -8  -9  10    7.40   10.80
  -8  -9  10    6.00    6.40
  -8  -9  10    2.70    5.60
  -7  -9  10    5.80    6.20
  -7  -9  10   -2.40    3.80
  -7  -9  10   -1.10    4.30
  -6  -9  10    9.30    8.50
  -6  -9  10   29.60   10.10
  -6  -9  10    9.60    7.10
  -5  -9  10   14.30    8.90
  -5  -9  10    2.80    5.30
  -5  -9  10   28.20   11.60
  -4  -9  10   14.80    9.60
  -4  -9  10   28.70   11.30
  -4  -9  10   14.20    6.90
  -3  -9  10    3.30    4.90
  -3  -9  10   11.90    9.20
  -3  -9  10    2.40    5.80
  -2  -9  10   13.00    8.60
  -2  -9  10   25.90   11.20
  -1  -9  10    6.10    7.90
  -1  -9  10    7.80    8.20
   0  -9  10   39.00   12.20
   0  -9  10   47.40   16.50
   1  -9  10    8.80    9.90
   1  -9  10   11.50    7.60
   2  -9  10    5.30    9.20
   2  -9  10    5.70    7.30
   3  -9  10    1.30    6.90
   3  -9  10   -1.30    3.90
  -4   9 -10   75.19   10.40
   4  -9  10  107.09   20.00
   4  -9  10   36.00   14.40
   5  -9  10   43.10   12.60
  -9  -8  10    6.20    6.30
  -9  -8  10    0.30    6.40
  -8  -8  10    9.00    6.70
  -8  -8  10    0.60    6.90
  -8  -8  10   -0.30    4.30
  -7  -8  10   56.89   14.00
  -7  -8  10   57.79   16.80
  -7  -8  10   68.59   14.80
  -6  -8  10   -3.90    3.00
  -6  -8  10   -1.40    3.80
  -6  -8  10    6.80    7.10
  -5  -8  10   64.79   17.60
  -5  -8  10   94.59   13.60
  -5  -8  10   64.69   14.50
  -4  -8  10   -3.90    3.30
  -4  -8  10    2.10    4.70
  -4  -8  10   -0.70    3.20
  -3  -8  10    0.20    3.60
  -3  -8  10   -4.30    4.20
  -3  -8  10   -4.00    4.70
  -2  -8  10   18.30    6.80
  -2  -8  10   27.30   11.60
  -1  -8  10    1.00    7.50
  -1  -8  10    4.20    3.90
  -1  -8  10   -1.20    3.60
   0  -8  10   11.10    8.20
   0  -8  10   23.50   12.40
  -1   8 -10    5.70    3.40
   1  -8  10   11.60    9.10
   1  -8  10   14.30   10.00
   2  -8  10    7.20    9.70
   2  -8  10   -4.60    3.50
   3  -8  10   16.30   11.60
   3  -8  10   21.80    9.90
  -4   8 -10    0.30    3.30
   4  -8  10   -8.90    5.00
   4  -8  10   -1.60    3.80
   5  -8  10    6.20    6.00
   5  -8  10    9.90   10.30
   6  -8  10   12.40   10.20
   6  -8  10   15.30    9.10
   7  -8  10    4.40    6.60
   7  -8  10    0.20    8.10
 -10  -7  10    1.40    6.60
 -10  -7  10   -0.20    7.70
  -9  -7  10    5.00    5.80
  -9  -7  10   26.90   10.90
  -9  -7  10   19.70   10.10
  -8  -7  10   18.60    8.20
  -8  -7  10   34.30   13.60
  -8  -7  10   18.30    8.50
  -7  -7  10   19.00    7.80
  -7  -7  10   18.70   10.10
  -7  -7  10   41.90   12.20
  -6  -7  10   87.89   14.00
  -6  -7  10   93.59   23.70
  -6  -7  10  143.59   20.30
  -5  -7  10   32.20   10.20
  -5  -7  10   12.70    7.50
  -5  -7  10   36.50   13.50
  -4  -7  10    1.40    5.30
  -4  -7  10   -3.20    3.70
  -4  -7  10    8.40    6.40
  -3  -7  10    9.50    7.30
  -3  -7  10    3.80    4.00
  -3  -7  10    6.70    6.30
  -2  -7  10   58.69    9.60
  -2  -7  10   96.89   18.60
  -1  -7  10   21.60   10.80
  -1  -7  10    8.90    7.40
  -1  -7  10   11.90    8.70
   0  -7  10   12.80    8.60
   0  -7  10   43.30    7.00
   0  -7  10   36.40   13.30
   1  -7  10    2.20    5.00
   1  -7  10   10.90   10.90
   2  -7  10   10.20    9.40
   2  -7  10   11.50    7.50
   3  -7  10  109.79   22.30
   3  -7  10   85.69   17.80
  -4   7 -10   46.60    8.30
   4  -7  10   62.29   17.50
   4  -7  10   43.90   12.30
  -5   7 -10    1.10    2.70
   5  -7  10    7.00   11.40
   5  -7  10    4.00    8.10
   6  -7  10   -1.40    4.20
   6  -7  10   -0.50    6.40
   7  -7  10   36.80   16.00
   7  -7  10   36.60   11.70
   8  -7  10   18.00   12.20
   8  -7  10   19.70    9.80
 -11  -6  10   18.40   10.60
 -10  -6  10    3.10    6.30
 -10  -6  10   -3.20    4.70
  -9  -6  10   15.50    9.30
  -9  -6  10   10.20    7.50
  -9  -6  10    3.20    4.40
  -8  -6  10   14.30    8.70
  -8  -6  10   13.90    9.00
  -8  -6  10   19.00    7.00
  -7  -6  10   40.80   11.90
  -7  -6  10    8.30    8.40
  -7  -6  10   13.70    6.50
  -6  -6  10   32.10   10.70
  -6  -6  10   34.20   10.10
  -6  -6  10   38.60   12.50
  -5  -6  10    7.10    5.70
  -5  -6  10    5.30    5.40
  -5  -6  10   -5.20    3.00
  -4  -6  10    9.70    5.70
  -4  -6  10    8.80    9.80
  -4  -6  10   11.30    6.70
  -3  -6  10  127.79   17.90
  -3  -6  10   68.19   10.80
  -3  -6  10  117.89   16.20
  -2  -6  10   77.09   16.90
  -2  -6  10   54.79   10.70
  -2  -6  10   49.30   13.20
  -1  -6  10   -2.10    3.70
  -1  -6  10    0.90    4.80
   0  -6  10    4.20    6.70
   0  -6  10   -4.20    3.10
   0  -6  10    1.20    2.80
   1  -6  10    0.20    4.50
   1  -6  10   -2.80    5.00
   1  -6  10    1.60    2.50
   2  -6  10   11.50    8.80
   2  -6  10   13.50    8.40
   3  -6  10  112.69   16.80
  -4   6 -10   12.60    4.00
   4  -6  10   16.60    8.10
   4  -6  10   21.50   10.90
  -5   6 -10   16.10    4.10
   5  -6  10    5.60    6.30
   5  -6  10   24.30   14.10
   6  -6  10    5.90    8.60
   6  -6  10   26.30   10.70
   7  -6  10   27.80   12.50
   8  -6  10  102.79   16.30
   8  -6  10  138.69   27.70
   9  -6  10    8.60    8.20
   9  -6  10    1.90    8.20
 -11  -5  10    9.30    8.60
 -11  -5  10   -1.60    7.10
 -10  -5  10   32.40   11.40
 -10  -5  10   37.00   13.00
  -9  -5  10  125.69   18.00
  -9  -5  10  106.09   21.70
  -9  -5  10  127.39   11.80
  -8  -5  10    4.10    6.70
  -8  -5  10    4.50    3.90
  -8  -5  10   13.50    8.90
  -7  -5  10   23.30    9.60
  -7  -5  10   45.10   13.70
  -7  -5  10   53.19   14.30
  -6  -5  10   12.50    6.50
  -6  -5  10   11.20    7.20
  -6  -5  10    1.80    5.10
  -5  -5  10   10.40    5.80
  -5  -5  10   10.50    6.60
  -5  -5  10   14.70    9.50
  -4  -5  10   33.00    9.40
  -4  -5  10   19.80    7.60
  -4  -5  10   20.40    8.80
  -3  -5  10   64.79   15.70
  -3  -5  10   79.79   11.40
  -3  -5  10   64.79   13.70
  -2  -5  10   62.99   14.40
  -2  -5  10   85.79   13.90
  -2  -5  10   84.99   11.00
  -1  -5  10   13.60    7.50
  -1  -5  10   -1.30    2.50
  -1  -5  10    1.10    5.70
   0  -5  10   16.10    8.20
   0  -5  10   12.80    7.90
   0  -5  10    6.90    4.10
   1  -5  10   41.60   13.10
   1  -5  10   45.90   12.40
   1  -5  10   35.80    7.00
  -2   5 -10   46.00    9.60
  -2   5 -10   38.70    9.50
   2  -5  10   53.79    6.10
   2  -5  10   61.59   14.10
   2  -5  10   53.59   14.00
  -3   5 -10   34.40    6.40
   3  -5  10   44.60   12.50
   3  -5  10   39.50   11.80
  -4   5 -10   54.69    5.30
   4  -5  10   21.90   10.20
   4  -5  10   43.80   13.00
  -5   5 -10   14.30    2.90
   5  -5  10   28.10   10.50
   5  -5  10   24.00   12.00
   6  -5  10   28.50   10.80
   6  -5  10   30.30   13.00
   7  -5  10   98.79   22.50
   7  -5  10   63.69   15.50
   8  -5  10   -1.70    6.40
   9  -5  10   -0.90    5.60
   9  -5  10    4.60    7.60
  10  -5  10   -4.60    5.10
  10  -5  10   10.80    9.80
 -11  -4  10   12.00    8.80
 -11  -4  10   25.50   11.30
 -10  -4  10   57.59   16.50
 -10  -4  10   52.99   15.00
  -9  -4  10    3.30    6.80
  -9  -4  10    0.00    4.80
  -8  -4  10   47.50   13.10
  -8  -4  10   80.99   16.70
  -8  -4  10   42.60    7.00
  -7  -4  10   30.80   16.20
  -7  -4  10   30.80   11.00
  -7  -4  10   49.60    9.40
  -6  -4  10   31.00    8.20
  -6  -4  10   10.20    6.70
  -6  -4  10   19.30    8.90
  -5  -4  10    7.90    6.00
  -5  -4  10    8.30    5.40
  -5  -4  10   14.00    6.80
  -4  -4  10  144.79   18.80
  -4  -4  10  172.08   16.80
  -3  -4  10   79.29   11.90
  -3  -4  10   99.19   12.40
  -3  -4  10   94.79   15.10
  -2  -4  10  131.19   13.50
  -2  -4  10  138.29   16.20
  -2  -4  10  129.19   17.10
  -1  -4  10   95.99   14.50
  -1  -4  10   92.69   15.00
  -1  -4  10  139.69   13.40
   0  -4  10   49.60    9.10
   0  -4  10   35.70   10.70
   0  -4  10   14.90    7.90
  -1   4 -10    4.60    3.10
   1  -4  10   -0.70    3.70
   1  -4  10    5.30    3.40
   1  -4  10    6.00    5.50
  -2   4 -10    6.20    3.30
  -2   4 -10   13.00    3.70
   2  -4  10   15.30    4.50
   2  -4  10   18.20    8.10
   2  -4  10    3.40    5.80
  -3   4 -10   90.09    6.50
  -3   4 -10   80.59    6.60
   3  -4  10   79.39   16.70
   3  -4  10  120.59   16.30
   3  -4  10   96.99    7.40
  -4   4 -10    2.60    1.20
   4  -4  10    1.80    5.40
   4  -4  10   -5.90    2.90
   5  -4  10   22.40   11.30
   5  -4  10   26.40   10.20
   6  -4  10    3.80    6.80
   6  -4  10   12.60    7.70
   7  -4  10   86.89   20.00
   7  -4  10  103.49   16.20
   8  -4  10    4.10    6.80
   8  -4  10    9.90    8.10
   9  -4  10    0.80    5.70
   9  -4  10    7.40    7.30
  10  -4  10   14.20    9.20
  10  -4  10   21.20   12.40
 -12  -3  10    5.30    6.60
 -12  -3  10    4.40    6.50
 -11  -3  10    4.80    6.80
 -11  -3  10    6.60    6.50
 -10  -3  10   57.49   16.10
 -10  -3  10   30.20   11.70
  -9  -3  10   53.79   14.20
  -9  -3  10   33.40   12.20
  -8  -3  10   76.99   18.00
  -8  -3  10   69.89    7.00
  -8  -3  10   70.59   15.20
  -7  -3  10   -5.40    2.80
  -7  -3  10    1.20    4.30
  -7  -3  10   -0.30    2.40
  -6  -3  10    5.90    3.70
  -6  -3  10    0.40    3.80
  -6  -3  10    2.80    5.10
  -5  -3  10   30.30    9.60
  -5  -3  10   52.99    8.50
  -5  -3  10   34.50   11.40
  -4  -3  10  246.98   23.20
  -4  -3  10  246.58   18.40
  -4  -3  10  221.08   19.40
  -3  -3  10  140.39   17.80
  -3  -3  10  145.49   15.00
  -3  -3  10  137.79   14.50
  -2  -3  10    8.40    9.20
  -2  -3  10   -2.90    2.50
  -2  -3  10    1.10    3.10
  -1  -3  10  122.29   12.80
  -1  -3  10  142.39   16.10
  -1  -3  10   96.09   15.00
   0   3 -10   17.30    4.60
   0  -3  10   28.90   10.50
   0  -3  10   16.10    7.50
   0  -3  10   13.20    5.50
  -1   3 -10  179.88   10.70
   1  -3  10  127.69   11.70
   1  -3  10  175.78   18.90
   1  -3  10  179.68   19.30
  -2   3 -10    9.80    2.70
   2  -3  10    8.50    5.80
   2  -3  10    9.00    4.20
   2  -3  10    8.30    7.00
  -3   3 -10   60.89    6.50
  -3   3 -10   57.99    2.90
   3  -3  10   63.29    6.90
   3  -3  10   70.89   15.70
   3  -3  10   71.09   16.20
  -4   3 -10   48.40    4.80
   4  -3  10   62.39   14.20
   4  -3  10   47.70   14.00
   4  -3  10   48.40    5.20
   5  -3  10   47.80   15.00
   5  -3  10   33.10    1.90
   5  -3  10   34.70   11.40
   6  -3  10  282.97   25.40
   6  -3  10  232.98   26.30
   7  -3  10    2.30    5.20
   7  -3  10   18.10   11.20
   8  -3  10   11.10    9.40
   8  -3  10    6.20    6.20
   9  -3  10    3.60    9.00
  10  -3  10   12.80   11.20
  10  -3  10   -0.60    5.30
  11  -3  10   14.50    9.50
 -12  -2  10   10.90    9.20
 -12  -2  10    7.00    6.80
 -11  -2  10   26.00   11.60
 -11  -2  10   61.39   15.20
 -10  -2  10    0.90    5.00
 -10  -2  10   18.40    9.40
  -9  -2  10  142.49   23.40
  -8  -2  10   -2.20    3.70
  -8  -2  10    7.60    6.50
  -7  -2  10    6.90    6.00
  -7  -2  10    2.00    2.00
  -7  -2  10    1.30    1.80
  -7  -2  10   -4.90    3.00
  -6  -2  10    2.90    3.10
  -6  -2  10    9.20    5.60
  -6  -2  10    3.40    5.30
   5   2 -10   65.89    8.80
  -5  -2  10   90.49    9.50
  -5  -2  10   63.89   13.90
  -5  -2  10   87.49   17.30
  -4  -2  10   20.70    6.10
  -4  -2  10    5.90    5.30
  -4  -2  10    7.30    6.10
  -3  -2  10   72.19   10.50
  -3  -2  10   74.09   11.20
  -3  -2  10   80.59   16.80
  -2  -2  10  111.99   13.00
  -2  -2  10  125.79   13.70
  -2  -2  10  179.78   19.00
  -1  -2  10  153.58   15.70
  -1  -2  10  164.58   18.30
  -1  -2  10  125.79   15.50
   0   2 -10    8.70    3.30
   0  -2  10   10.60    4.90
   0  -2  10   12.30    6.80
   0  -2  10   15.40    7.80
  -1   2 -10   32.70    4.10
   1  -2  10   22.40    9.20
   1  -2  10   37.50   11.40
   1  -2  10   24.30    6.90
  -2   2 -10   28.40    2.70
   2  -2  10   37.40    7.80
   2  -2  10   23.90    9.10
   2  -2  10   35.90   10.30
  -3   2 -10    6.40    3.30
   3  -2  10    8.60    4.00
   3  -2  10    7.30    5.50
   3  -2  10   13.40    8.40
  -4   2 -10    4.70    2.80
   4  -2  10    6.90    5.40
   4  -2  10   12.20    8.40
   4  -2  10   10.40    3.70
   5  -2  10  196.98   20.60
   5  -2  10  189.08   11.10
   5  -2  10  199.38   22.70
   6  -2  10  110.89    6.60
   6  -2  10  107.09   15.70
   6  -2  10  109.49    6.70
   6  -2  10  115.59   18.20
   7  -2  10   74.99   29.60
   7  -2  10   87.59   17.20
   8  -2  10    1.80    4.60
   8  -2  10   -3.20    4.90
   9  -2  10    1.30    6.30
   9  -2  10   12.00    8.80
  10  -2  10    3.50    5.90
  10  -2  10    3.60    8.80
  11  -2  10   19.50   12.60
  11  -2  10    8.20    8.20
 -12  -1  10   -0.80    4.60
 -11  -1  10    1.20    5.90
 -11  -1  10   15.10    8.20
 -10  -1  10  149.09   19.60
  -9  -1  10   40.40   11.30
  -9  -1  10   28.30   11.00
  -8  -1  10    4.80    5.30
  -8  -1  10    1.40    4.90
  -7  -1  10    0.40    4.80
  -7  -1  10    2.90    4.10
  -6  -1  10  178.68   19.20
  -6  -1  10  144.49    7.70
  -6  -1  10  158.08    8.20
  -6  -1  10  163.98   18.10
  -5  -1  10   30.00    5.60
  -5  -1  10   21.40    4.60
  -5  -1  10   30.90   10.20
  -5  -1  10   26.50    9.00
  -4  -1  10   88.59   12.60
  -4  -1  10   67.99    7.40
  -4  -1  10   85.79   16.90
  -4  -1  10   83.29    9.00
  -3  -1  10    5.00    5.80
  -3  -1  10   15.10    5.50
  -3  -1  10   18.10    7.60
  -2  -1  10   31.80    8.60
  -2  -1  10   16.70    7.80
  -2  -1  10   46.00    9.60
   1   1 -10  464.95   21.20
  -1  -1  10  474.15   30.90
  -1  -1  10  513.25   28.20
  -1  -1  10  445.06   36.80
   0   1 -10   34.00    4.70
   0  -1  10   63.99   14.50
   0  -1  10   49.70   11.10
   0  -1  10   39.00    8.20
  -1   1 -10   25.00    3.20
   1  -1  10    4.10    5.40
   1  -1  10   37.30   10.40
   1  -1  10   30.90    7.40
   2  -1  10   52.09   11.70
   2  -1  10   76.89    8.90
   2  -1  10   84.89   13.30
   3  -1  10    5.10    5.60
   3  -1  10    4.20    5.70
   3  -1  10    7.00    3.90
  -4   1 -10  127.19   14.70
   4  -1  10  125.79   17.10
   4  -1  10  124.39   16.30
   4  -1  10  130.69   10.70
  -5   1 -10   30.70    5.00
   5  -1  10   38.90   12.20
   5  -1  10   37.60    5.80
   5  -1  10   24.50    8.90
   6  -1  10   31.60    5.10
   6  -1  10   20.50   10.10
   6  -1  10   26.80   11.00
   7  -1  10   26.20    9.70
   7  -1  10   42.00   14.10
   7  -1  10   27.20    4.40
   8  -1  10   77.29   17.20
   8  -1  10   48.00   15.60
   9  -1  10   -0.60    6.40
   9  -1  10   12.90    8.70
  10  -1  10   32.10   12.20
  10  -1  10   21.90   13.40
  11  -1  10   11.80    8.60
  11  -1  10   13.80   10.20
  12  -1  10    9.60   13.40
  12  -1  10    1.80    6.70
 -12   0  10   -3.50    6.80
 -12   0  10    5.90    6.30
 -11   0  10   10.30    8.00
 -10   0  10   65.89   14.70
 -10   0  10   56.79   14.40
  -9   0  10   -2.70    3.50
  -9   0  10    8.10    6.70
  -8   0  10   20.10    8.80
  -8   0  10   19.20   14.60
  -7   0  10   75.89   15.00
  -7   0  10   53.09   12.50
  -6   0  10   86.39   13.60
  -6   0  10   85.09   13.60
  -5   0  10  126.19    7.20
  -5   0  10  145.39   16.50
  -5   0  10  179.48   18.50
  -5   0  10  128.69    7.70
  -4   0  10    6.30    3.30
  -4   0  10    5.40    5.30
  -4   0  10    8.80    5.90
  -4   0  10    3.60    2.70
  -3   0  10    2.00    4.20
  -3   0  10    0.20    3.20
  -3   0  10   -0.80    1.90
  -3   0  10   -2.60    3.00
  -2   0  10   21.40    8.60
  -2   0  10   10.50    5.60
  -2   0  10   16.60    5.90
   1   0 -10  256.07   14.20
  -1   0  10  261.37   19.10
  -1   0  10  297.37   20.30
  -1   0  10  259.37   22.30
   0   0 -10   12.00    3.30
   0   0  10    7.80    5.60
   0   0  10   10.10    4.90
   0   0  10    6.90    5.60
  -1   0 -10  109.99    6.20
   1   0  10  130.99   12.70
   1   0  10  122.79   14.50
   1   0  10  111.89   15.00
   2   0  10   45.40    8.90
   2   0  10   36.40   10.40
   2   0  10   36.90   11.60
   3   0  10   37.00    8.10
   3   0  10   29.10    9.70
   3   0  10   25.00    8.70
   4   0  10  395.86   21.30
   4   0  10  391.46   29.10
   4   0  10  422.76   30.60
   5   0  10  116.69   17.00
   5   0  10   77.69   15.40
   5   0  10  108.69   10.10
   6   0  10   14.10    4.70
   6   0  10   12.00    7.70
   6   0  10   31.80   11.30
   7   0  10    2.60    4.90
   7   0  10   -0.30    2.20
   7   0  10   -0.40    5.10
   8   0  10   39.70    6.10
   8   0  10   21.10    9.30
   9   0  10  135.09   18.90
   9   0  10  117.99    9.60
   9   0  10  133.09   21.50
  10   0  10   14.30   11.70
  10   0  10   39.40   12.70
  11   0  10   32.60   12.40
  11   0  10   32.40   15.30
  12   0  10   25.20   13.60
  12   0  10   -1.60    5.10
 -12   1  10   68.29   22.40
 -11   1  10   26.80   11.60
 -11   1  10   32.00   10.40
 -10   1  10   27.50   10.30
 -10   1  10   19.50    9.20
 -10   1  10   26.20    9.50
  -9   1  10   14.00    7.30
  -9   1  10   31.40   10.20
  -9   1  10   19.30    9.10
  -8   1  10   54.19   12.60
  -8   1  10   30.40    9.80
  -8   1  10   25.60   12.40
  -7   1  10    7.10    5.30
  -7   1  10   18.00    7.90
  -7   1  10   23.30    7.80
  -6   1  10   41.00    9.90
  -6   1  10   39.40   10.80
  -6   1  10   59.69   13.10
  -5   1  10  116.59   14.90
  -5   1  10   97.09   14.10
  -5   1  10   95.79   11.70
  -4   1  10   13.60    7.50
  -4   1  10    9.00    2.80
  -4   1  10    2.10    4.30
  -4   1  10   22.40    7.40
  -4   1  10   16.80    3.90
  -3   1  10   79.59    7.60
  -3   1  10  125.09   14.10
  -3   1  10   93.39    8.90
  -3   1  10   90.49    9.90
  -3   1  10   76.29   12.60
  -2   1  10  279.27   17.50
  -2   1  10  276.97   20.70
  -2   1  10  277.77   22.60
  -2   1  10  280.97   16.20
   1  -1 -10    5.60    2.90
  -1   1  10    9.40    5.50
  -1   1  10    8.50    4.90
  -1   1  10   11.70    6.50
   0  -1 -10   12.80    3.40
   0   1  10   10.30    6.70
   0   1  10   15.40    6.10
   1   1  10    9.00    5.50
   1   1  10   24.30    7.80
   1   1  10    5.10    4.70
   2   1  10   95.99   19.20
   2   1  10  112.29   11.80
   2   1  10  104.99   14.60
   3   1  10  100.29   14.40
   3   1  10   93.39   10.60
   3   1  10  107.69   14.40
   4   1  10  307.07   19.40
   4   1  10  347.97   26.90
   4   1  10  327.37   26.00
   5   1  10   54.79   13.90
   5   1  10   92.89   10.00
   5   1  10   91.09   14.30
   6   1  10   19.30    8.80
   6   1  10    4.90    4.90
   6   1  10   15.10    5.00
   7   1  10   19.70    5.70
   7   1  10    6.50    7.20
   7   1  10   -3.40    4.00
   8   1  10   18.70    5.80
   8   1  10    4.80    7.50
   8   1  10   28.40   11.60
   9   1  10   89.59   20.30
   9   1  10   87.49    9.60
   9   1  10   91.59   19.10
  10   1  10   27.20   12.90
  10   1  10   14.90    5.10
  10   1  10   24.00   11.00
  11   1  10    0.80    4.80
  11   1  10   10.50   10.10
  12   1  10   12.60   12.00
  12   1  10    7.70    7.30
 -12   2  10   55.89   14.20
 -12   2  10   34.20   14.90
 -11   2  10   69.79   16.70
 -11   2  10   61.69   14.50
 -11   2  10   59.19   12.90
 -10   2  10   16.00    7.40
 -10   2  10   16.90    8.40
 -10   2  10    5.00    7.20
  -9   2  10   -0.30    4.90
  -9   2  10   -4.20    3.10
  -9   2  10    9.30    7.10
  -8   2  10    8.40    6.80
  -8   2  10   24.10   10.10
  -8   2  10   25.20    9.10
  -7   2  10   22.10    8.30
  -7   2  10   30.90    9.40
  -7   2  10   32.20   10.60
  -6   2  10   64.59   13.70
  -6   2  10   53.99   11.90
  -6   2  10   40.80    9.60
  -5   2  10    3.50    4.10
  -5   2  10    3.40    5.30
  -5   2  10   -1.20    3.40
  -4   2  10  123.99   15.10
  -4   2  10   92.79    6.10
  -4   2  10   97.59    5.50
  -4   2  10  103.39   11.50
  -4   2  10  101.19   13.50
  -3   2  10   49.99   11.70
  -3   2  10   75.09   11.50
  -3   2  10   61.29    6.70
  -3   2  10   66.09    8.90
  -3   2  10   61.89    6.30
  -2   2  10  330.07   18.90
  -2   2  10  368.76   24.60
  -2   2  10  375.36   26.00
  -2   2  10  339.57   19.00
  -2   2  10  331.97   17.50
   1  -2 -10  218.68   12.80
  -1   2  10  212.08   16.00
  -1   2  10  215.78   18.10
  -1   2  10  234.08   20.50
  -1   2  10  219.98   13.60
   0   2  10   31.50    9.10
   0   2  10   35.40    8.90
   0   2  10   30.60    9.60
   0   2  10   30.10    4.60
   1   2  10   -2.50    2.00
   1   2  10   -2.10    2.80
   1   2  10    5.80    5.30
   2   2  10    6.60    5.00
   2   2  10    8.10    5.00
   2   2  10   10.30    5.10
   3   2  10  226.18   17.10
   3   2  10  243.08   21.40
   3   2  10  230.98   21.30
   4   2  10  138.29   12.90
   4   2  10  115.39   15.80
   4   2  10  142.99   17.40
   5   2  10   63.39   14.30
   5   2  10   58.29   15.10
   5   2  10   50.69    8.20
   6   2  10  148.29   18.30
   6   2  10  115.09   11.80
   6   2  10  129.19   18.00
   7   2  10    0.00    2.80
   7   2  10   -6.20    2.80
   7   2  10   -0.20    5.10
   8   2  10  114.49   19.10
   8   2  10  118.69   17.50
   9   2  10    6.10    6.40
   9   2  10    7.20    4.50
   9   2  10   12.10   10.00
  10   2  10    1.90    6.90
  10   2  10   -1.20    2.50
  10   2  10    3.70    5.40
  11   2  10    0.80    5.50
  11   2  10    0.40    3.10
  11   2  10    7.30    9.10
  12   2  10   36.50   13.20
  12   2  10   17.10   12.80
 -12   3  10   34.20   13.30
 -12   3  10   13.30   10.20
 -11   3  10    2.70    5.70
 -11   3  10    5.20    5.20
 -11   3  10   -5.00    5.30
 -10   3  10    1.40    5.70
 -10   3  10   13.20    6.60
 -10   3  10   17.20    8.90
  -9   3  10   91.49   18.40
  -9   3  10   92.39   12.60
  -9   3  10   72.69   14.80
  -8   3  10   46.60   10.80
  -8   3  10   69.09   16.20
  -8   3  10   54.09   13.50
  -7   3  10   76.69   14.30
  -7   3  10   73.79   13.90
  -7   3  10   63.99   13.80
  -6   3  10   19.70    7.20
  -6   3  10   18.20    8.10
  -6   3  10   22.60    8.20
  -5   3  10   -1.70    3.20
  -5   3  10    2.70    4.40
  -5   3  10    2.40    4.00
  -4   3  10    4.50    4.40
  -4   3  10   13.10    6.30
  -4   3  10   15.60    7.70
  -3   3  10  534.75   27.20
  -3   3  10  583.24   33.50
  -3   3  10  578.24   32.50
  -3   3  10  560.54   21.70
  -2   3  10  157.88   16.30
  -2   3  10  171.38   13.10
  -2   3  10  168.38   17.10
  -2   3  10  162.48   12.30
  -2   3  10  180.48   16.80
  -1   3  10   90.89   10.90
  -1   3  10  119.59   14.50
  -1   3  10   83.89   12.10
  -1   3  10  119.19    9.90
  -1   3  10  108.69   11.10
   0   3  10  186.18   15.70
   0   3  10  143.09   16.20
   0   3  10  199.28   17.10
   0   3  10  192.08   11.80
   1   3  10   32.10    4.40
   1   3  10   42.20    9.50
   1   3  10   47.50   12.50
   1   3  10   40.60    9.20
   2   3  10  219.28   19.90
   2   3  10  154.38   14.80
   2   3  10  166.38   16.80
   3   3  10    2.80    5.50
   3   3  10    6.60    4.10
   3   3  10    0.20    3.40
   4   3  10   81.89   16.10
   4   3  10   64.49   13.60
   4   3  10   71.89   10.00
   5   3  10    3.90    5.20
   5   3  10    4.70    4.00
   5   3  10    9.50    7.20
   6   3  10   20.70    8.90
   6   3  10   11.10    5.50
   6   3  10   19.00    8.60
   7   3  10  252.47   18.60
   7   3  10  287.87   26.10
   7   3  10  279.77   27.10
   8   3  10   78.69   16.30
   8   3  10  140.19   20.90
   8   3  10   80.99   10.80
   9   3  10   -0.90    2.60
   9   3  10    1.70    5.40
  10   3  10   -2.20    4.20
  10   3  10   -0.70    3.00
  10   3  10    6.00    7.50
  11   3  10    1.70    3.90
  11   3  10    9.50    9.30
  11   3  10   31.20   13.20
  12   3  10    4.60    4.60
  12   3  10    4.60    7.50
  12   3  10    1.40    7.80
  13   3  10   25.60   12.70
  13   3  10    8.40   10.00
 -11   4  10   -2.80    4.90
 -11   4  10   -4.60    4.60
 -10   4  10   21.30    7.20
 -10   4  10   19.70   10.10
 -10   4  10   28.30   11.10
  -9   4  10  146.09   19.50
  -9   4  10  124.99   13.70
  -9   4  10  122.29   17.00
  -8   4  10   46.90   12.90
  -8   4  10   31.20    9.00
  -8   4  10   22.90    9.40
  -7   4  10  105.19   14.10
  -7   4  10   83.29   16.70
  -7   4  10  103.09   12.60
  -6   4  10   -3.60    2.90
  -6   4  10    1.90    3.60
  -6   4  10    2.10    4.10
  -5   4  10    1.60    4.10
  -5   4  10   11.40    6.00
  -5   4  10   -0.70    3.00
  -4   4  10  148.79   14.20
  -4   4  10  132.19   16.20
  -4   4  10  157.98   16.20
  -3   4  10    3.20    3.60
  -3   4  10    1.90    4.90
  -3   4  10    0.60    1.80
  -3   4  10    5.40    2.60
  -3   4  10    0.50    3.80
  -2   4  10  247.88   20.40
  -2   4  10  217.58   15.70
  -2   4  10  257.37   15.40
  -2   4  10  255.87   21.10
  -1   4  10   18.40    5.40
  -1   4  10   17.40    5.60
  -1   4  10   28.80    7.40
  -1   4  10   14.30    6.30
  -1   4  10   34.40    9.70
   0   4  10  131.99   15.50
   0   4  10  144.69   10.70
   0   4  10  139.69   13.50
   0   4  10  163.08   15.90
   1   4  10  226.18   12.70
   1   4  10  252.27   19.40
   1   4  10  256.67   19.80
   1   4  10  249.97   21.20
   2   4  10   56.99    9.30
   2   4  10   48.70    7.30
   2   4  10   60.49   12.10
   2   4  10   30.70    9.10
   3   4  10    9.50    5.80
   3   4  10    8.50    5.30
   3   4  10   14.30    7.10
   3   4  10   11.00    2.00
   4   4  10  106.09   15.00
   4   4  10  100.79   14.40
   4   4  10   72.39   10.50
   5   4  10   35.80   11.30
   5   4  10   13.50    6.00
   5   4  10   15.50    8.40
   6   4  10   86.29   11.40
   6   4  10  105.59   19.70
   6   4  10   53.49   13.00
   7   4  10   49.20   14.40
   7   4  10   69.39   10.20
   7   4  10   54.19   15.00
   8   4  10   84.99   18.80
   8   4  10  122.29   18.00
   8   4  10   84.79   11.30
   9   4  10   16.90    8.90
   9   4  10    3.50    7.40
   9   4  10    3.10    3.80
  10   4  10   35.00   13.50
  10   4  10   14.20   11.10
  10   4  10    8.40    5.90
  11   4  10   20.20    7.50
  11   4  10    6.80    9.70
  11   4  10    6.50    7.30
  12   4  10    1.60    7.70
  12   4  10   22.80   11.20
  12   4  10    3.00    4.40
  13   4  10   16.20   10.60
  13   4  10   24.10   10.10
  13   4  10   -3.00    6.60
 -11   5  10    6.10    6.70
 -10   5  10   -1.50    4.40
 -10   5  10    8.10    6.80
  -9   5  10    0.80    4.90
  -9   5  10    3.10    5.80
  -9   5  10    6.70    4.70
  -8   5  10  206.48   16.50
  -8   5  10  157.48   18.60
  -8   5  10  149.59   19.60
  -7   5  10    1.10    3.90
  -7   5  10    3.00    4.20
  -7   5  10    3.50    8.50
  -6   5  10   -0.70    4.20
  -6   5  10    1.50    4.10
  -6   5  10    1.40    3.40
  -5   5  10  210.38   21.00
  -5   5  10  191.88   17.50
  -4   5  10  337.87   22.20
  -4   5  10  311.97   26.70
  -4   5  10  289.17   24.30
  -3   5  10    4.90    5.10
  -3   5  10   14.50    6.90
  -3   5  10    8.70    3.30
  -3   5  10   10.30    4.80
  -3   5  10    6.10    3.70
  -2   5  10   29.40    7.70
  -2   5  10   24.50    6.00
  -2   5  10   13.50    6.90
  -2   5  10   19.30    5.40
  -2   5  10   23.40    7.50
  -1   5  10   96.89   10.50
  -1   5  10  102.39   13.30
  -1   5  10  103.59   13.50
  -1   5  10   90.79    9.70
   0   5  10  186.28   15.70
   0   5  10  226.18   19.60
   0   5  10  162.58   16.90
   0   5  10  216.38   13.70
   1   5  10   16.40    7.30
   1   5  10   12.90    6.50
   1   5  10   13.60    4.50
   1   5  10    7.50    5.10
   2   5  10   43.10   10.00
   2   5  10   59.99    6.00
   2   5  10   50.19   11.30
   3   5  10   24.50    8.30
   3   5  10    7.80    5.40
   3   5  10   31.20    3.90
   3   5  10   38.00    9.20
   4   5  10    5.20    5.10
   4   5  10    3.50    5.30
   4   5  10    0.10    3.40
   4   5  10    1.70    1.30
   5   5  10   14.70    7.20
   5   5  10   10.40    5.40
   5   5  10   -1.30    4.20
   6   5  10   51.59   11.50
   6   5  10   41.90   13.30
   6   5  10   41.90   12.30
   7   5  10   35.40   12.50
   7   5  10   39.90   10.20
   7   5  10   25.30   10.60
   8   5  10   22.30    8.40
   8   5  10   36.30   13.90
   8   5  10   48.10   12.70
   9   5  10   20.50   11.40
   9   5  10    5.70    4.50
   9   5  10    1.70    5.80
  10   5  10   63.49   17.30
  10   5  10   80.79   11.80
  10   5  10   46.00   13.20
  11   5  10    6.10    5.70
  11   5  10   -4.00    5.10
  11   5  10    6.70    7.60
  12   5  10    4.40    7.80
  12   5  10   28.10    9.00
  12   5  10   14.70   11.50
  13   5  10    5.70   10.80
  13   5  10    7.70    5.80
 -10   6  10   11.00    8.00
 -10   6  10   11.50    9.60
  -9   6  10  111.19   21.00
  -9   6  10   71.99   15.90
  -8   6  10   13.00    8.40
  -8   6  10    6.20    5.70
  -8   6  10    8.50    4.70
  -7   6  10   18.40    7.60
  -7   6  10    0.40    5.10
  -7   6  10    3.70    3.80
  -6   6  10   18.70    7.70
  -6   6  10    9.60    6.90
  -6   6  10   10.20    4.80
  -5   6  10  178.18   17.20
  -5   6  10  178.78   16.10
  -5   6  10  207.18   21.10
  -4   6  10  109.69   13.10
  -4   6  10  121.49   13.40
  -4   6  10  109.59   15.30
  -3   6  10  139.29    9.80
  -3   6  10  150.28   10.40
  -3   6  10  140.59   13.90
  -3   6  10  168.78   18.30
  -2   6  10   43.30   11.40
  -2   6  10   48.80    9.80
  -2   6  10   21.60    5.90
  -2   6  10   50.59   11.10
  -2   6  10   23.20    6.00
  -1   6  10   -1.70    2.40
  -1   6  10   -1.00    2.90
  -1   6  10    0.00    2.40
  -1   6  10    1.60    4.00
   0  -6 -10  137.79   12.40
   0   6  10  122.19   14.80
   0   6  10  125.39   14.90
   0   6  10  140.09   13.80
   0   6  10  129.49   11.30
  -1  -6 -10  125.79   12.90
   1   6  10  108.19   14.20
   1   6  10  127.09   10.30
   1   6  10  139.69   15.20
  -2  -6 -10   58.99   11.70
   2   6  10   35.40    5.40
   2   6  10   43.30   10.50
   2   6  10   63.29   12.50
  -3  -6 -10   62.19   12.00
   3   6  10   29.30    9.20
   3   6  10   70.99   13.90
   3   6  10   41.40    5.20
  -4  -6 -10    6.90    5.50
   4   6  10    5.30    5.70
   4   6  10   -4.90    2.30
   4   6  10    8.50    2.80
  -5  -6 -10  165.48   17.50
   5   6  10  135.69   15.30
   5   6  10  126.89   16.80
  -6  -6 -10  100.09   14.30
   6   6  10   81.39    5.10
   6   6  10   92.29    5.10
   6   6  10   89.49   12.50
   6   6  10   72.69   16.10
   6   6  10  119.69   16.70
  -7  -6 -10    6.80    6.30
   7   6  10    2.30    4.30
   7   6  10    3.20    5.90
   7   6  10    7.10    6.80
   8   6  10    8.10    9.70
   8   6  10    9.70    5.60
   9   6  10   39.70   10.50
   9   6  10   43.10   14.10
   9   6  10   37.10   13.20
  10   6  10   36.10   14.60
  10   6  10   24.90   10.90
  10   6  10   24.40    8.80
  11   6  10   77.09   21.50
  11   6  10   57.09   12.40
  11   6  10  114.79   23.00
  12   6  10   -5.30    5.60
  12   6  10   -0.60    7.80
  12   6  10   -3.10    3.20
 -10   7  10    4.60    7.20
  -9   7  10   51.39   14.40
  -9   7  10   61.59   15.60
  -8   7  10   -2.50    3.80
  -8   7  10   -0.20    4.80
  -7   7  10   10.00    6.90
  -7   7  10   -0.20    4.10
  -7   7  10   -0.50    2.60
  -6   7  10  108.89   11.70
  -6   7  10  132.19   17.60
  -6   7  10  128.69   17.50
  -5   7  10   21.70    6.80
  -5   7  10   25.60    8.30
  -5   7  10   35.00   11.50
  -4   7  10   89.59    4.70
  -4   7  10  108.99   12.50
  -4   7  10   92.89   12.30
  -4   7  10  105.19   15.50
  -3   7  10    6.30    5.60
  -3   7  10   16.00    4.60
  -3   7  10   14.30    7.10
  -3   7  10    9.10    4.20
  -3   7  10    2.20    3.80
   2  -7 -10   33.60    6.70
  -2   7  10   30.40    8.80
  -2   7  10   35.80    8.80
  -2   7  10   30.50    9.90
  -2   7  10   58.19   11.00
   1  -7 -10   37.30    7.90
  -1   7  10   26.60    7.30
  -1   7  10   43.10   11.30
  -1   7  10   18.70    7.50
   0  -7 -10   26.00    7.00
   0   7  10   30.00    9.50
   0   7  10   34.10    7.60
   0   7  10   36.10    9.50
   1   7  10   56.89   12.60
   1   7  10   47.40    7.10
   1   7  10   65.99   13.90
  -2  -7 -10  121.09   13.40
   2   7  10   95.99   14.00
   2   7  10  123.69   10.40
   2   7  10   88.59   13.60
  -3  -7 -10    7.10    5.30
   3   7  10   21.20    8.90
   3   7  10   23.00    5.00
   3   7  10    7.40    6.50
  -4  -7 -10    2.60    4.30
   4   7  10    8.50    6.20
   4   7  10   -3.30    2.50
   4   7  10    1.00    2.30
  -5  -7 -10  247.08   22.00
   5   7  10  257.37   21.20
   5   7  10  245.68   13.00
   5   7  10  265.97   24.30
  -6  -7 -10   81.39   16.20
   6   7  10   93.39   13.00
   6   7  10   77.89   15.60
   6   7  10   72.29    6.30
  -7  -7 -10    5.60    5.40
   7   7  10    2.50    5.20
   7   7  10    5.10    5.40
   7   7  10    1.90    1.90
  -8  -7 -10   10.00    7.80
   8   7  10    7.90    3.20
   8   7  10    9.20    7.20
   8   7  10   16.30    7.40
  -9  -7 -10    3.10    5.20
   9   7  10   11.90    6.70
   9   7  10   -3.30    5.80
   9   7  10   24.20   10.20
  10   7  10    8.50    7.90
  10   7  10   13.90    8.60
  10   7  10   26.20    9.50
  11   7  10   35.90   12.10
  11   7  10   23.90   12.30
  11   7  10    9.40   10.10
  12   7  10   -5.00    4.50
  12   7  10    1.10    5.40
  12   7  10    4.90    8.90
  -9   8  10   23.40   11.30
  -9   8  10   27.40   12.00
  -8   8  10    5.50    6.90
  -8   8  10   -1.50    5.30
  -7   8  10   -2.30    3.70
  -7   8  10   13.50    7.90
  -6   8  10  103.59   15.00
  -6   8  10   82.79   16.90
  -6   8  10   93.49    9.60
  -5   8  10  123.99   15.30
  -5   8  10  108.99   11.50
  -5   8  10  115.09   17.30
  -4   8  10   66.29   13.60
  -4   8  10   59.39   11.10
  -4   8  10   50.59   14.00
  -4   8  10   45.00    5.00
   3  -8 -10    5.50    3.20
  -3   8  10   -1.10    3.80
  -3   8  10    2.60    4.00
  -3   8  10    3.10    4.00
  -3   8  10   14.00    6.50
   2  -8 -10   -0.80    2.20
  -2   8  10    0.30    3.50
  -2   8  10   -3.90    2.10
  -2   8  10    0.50    4.60
   1  -8 -10  455.75   24.70
  -1   8  10  486.35   29.30
  -1   8  10  479.45   32.00
  -1   8  10  486.75   26.60
   0  -8 -10   67.19   11.20
   0   8  10   77.19   11.90
   0   8  10   82.29   13.20
   0   8  10   63.49    9.10
  -1  -8 -10   23.80    8.00
   1   8  10   21.50    8.40
   1   8  10   36.30   11.20
   1   8  10   39.00    8.20
  -2  -8 -10    5.90    4.90
   2   8  10   19.10    5.40
   2   8  10   15.40    7.80
   2   8  10    6.40    6.50
  -3  -8 -10   67.79   11.20
   3   8  10   84.69   13.30
   3   8  10   75.59   15.10
   3   8  10   67.79    8.10
  -4  -8 -10   99.39   13.90
   4   8  10  100.99   14.80
   4   8  10   74.99   15.40
   4   8  10   87.39    8.60
  -5  -8 -10   60.29   13.20
   5   8  10   58.79   13.10
   5   8  10   40.80    5.90
   5   8  10   36.20   10.90
  -6  -8 -10   -7.40    2.80
   6   8  10    4.90    6.50
   6   8  10   -3.10    3.20
   6   8  10    0.60    1.80
  -7  -8 -10   -4.10    2.70
   7   8  10    1.70    2.40
   7   8  10    1.60    3.60
   7   8  10    4.40    7.00
  -8  -8 -10   -4.50    3.40
   8   8  10   -0.50    3.90
  -9  -8 -10   53.29   15.00
   9   8  10   12.00    6.70
   9   8  10   26.20   10.90
 -10  -8 -10    6.10    6.80
  10   8  10   15.40   12.00
  10   8  10   11.20    7.50
  11   8  10   -3.00    6.20
  11   8  10    5.50    7.00
  11   8  10   12.80    8.30
  12   8  10    5.70   12.50
  12   8  10   -1.80    4.10
  12   8  10   -4.50    6.10
  -9   9  10    3.20    8.00
  -9   9  10   14.30    9.50
  -8   9  10   26.20   11.80
  -8   9  10   -0.50    5.40
  -7   9  10  147.49   19.70
  -7   9  10  100.89   16.00
  -6   9  10   44.90   12.30
  -6   9  10   77.79   17.30
  -5   9  10   68.69   15.20
  -5   9  10   65.59    8.60
  -5   9  10  111.39   15.20
   4  -9 -10    1.80    2.30
  -4   9  10   -4.40    4.50
  -4   9  10    2.40    3.90
  -4   9  10    1.60    4.40
   3  -9 -10   28.00    6.30
  -3   9  10   40.30   10.50
  -3   9  10   21.30   10.30
  -3   9  10   40.10    9.70
   2  -9 -10  113.49   11.30
  -2   9  10  127.49   14.20
  -2   9  10  143.89   18.00
  -2   9  10  119.99   13.60
   1  -9 -10   53.09   11.70
  -1   9  10   28.60   10.00
  -1   9  10   54.09   12.20
  -1   9  10   41.00    9.20
   0  -9 -10  101.49   12.10
   0   9  10  107.09   15.20
   0   9  10   91.19   11.20
   0   9  10  128.69   15.00
  -1  -9 -10    1.50    4.10
   1   9  10   -2.30    3.60
   1   9  10   -3.40    1.70
   1   9  10   -0.50    4.00
  -2  -9 -10    1.60    3.90
   2   9  10   -0.90    2.90
   2   9  10   -2.60    3.20
   2   9  10    0.50    2.50
  -3  -9 -10   54.09   12.30
   3   9  10   35.80   11.10
   3   9  10   30.20    9.90
   3   9  10   36.50    7.70
  -4  -9 -10   79.09   15.10
   4   9  10   81.09   14.40
   4   9  10   96.79   14.40
   4   9  10   59.39   12.90
  -5  -9 -10   23.80    9.00
   5   9  10   14.00    8.10
   5   9  10   19.70    5.30
   5   9  10   22.90    9.30
  -6  -9 -10   17.30    8.70
   6   9  10    5.80    3.30
   6   9  10   16.20    9.90
   6   9  10   14.10    8.20
  -7  -9 -10    4.50    6.00
   7   9  10   31.20   10.50
   7   9  10   24.20   11.20
  -8  -9 -10    7.00    7.70
   8   9  10   -2.30    4.10
   8   9  10    8.10    6.90
  -9  -9 -10   26.20   10.90
   9   9  10   30.40   11.60
   9   9  10   27.50   10.70
 -10  -9 -10    3.80    7.70
  10   9  10   -5.00    3.70
  10   9  10   21.60    9.50
 -11  -9 -10    1.30    5.50
  11   9  10   -1.00    5.20
  11   9  10   -2.30    4.20
  -8  10  10  124.19   19.30
  -7  10  10    1.60    5.40
  -7  10  10   -0.30    4.60
  -6  10  10   97.79   19.90
  -6  10  10  123.09   17.20
  -5  10  10    4.30    5.60
  -5  10  10   -0.20    5.30
   4 -10 -10    4.00    3.40
  -4  10  10    4.70    3.80
  -4  10  10   12.30    7.10
  -4  10  10    7.00    7.50
   3 -10 -10   66.49    8.80
  -3  10  10   61.09   16.40
  -3  10  10   62.29   14.20
  -3  10  10   61.69    9.70
  -2  10  10   69.59   15.50
  -2  10  10  111.29   13.00
  -2  10  10   93.89   12.80
   1 -10 -10   62.59    9.90
  -1  10  10   77.19   11.40
  -1  10  10   71.79   21.80
  -1  10  10   83.09   11.90
   0 -10 -10   33.70    8.80
   0  10  10   13.00    6.70
   0  10  10   34.60   12.10
   0  10  10   33.50    9.10
  -1 -10 -10   -0.90    3.10
   1  10  10   -4.30    2.50
   1  10  10    1.40    3.20
   1  10  10   -3.80    3.40
  -2 -10 -10   90.69   13.20
   2  10  10  119.69   16.90
   2  10  10  105.39   11.70
   2  10  10   85.79   13.80
  -3 -10 -10    2.10    4.40
   3  10  10    2.20    4.40
   3  10  10   13.60   11.60
   3  10  10    6.10    3.80
  -4 -10 -10    0.90    5.40
   4  10  10   12.00    5.00
   4  10  10    8.30    7.40
   4  10  10    5.40    5.40
  -5 -10 -10   35.70   11.40
   5  10  10   56.89   14.00
   5  10  10   50.99    7.90
   5  10  10   66.99   16.40
  -6 -10 -10    5.50    6.60
   6  10  10    6.60    6.90
   6  10  10    7.20    7.80
  -7 -10 -10   25.70   10.20
   7  10  10   11.70    7.10
   7  10  10    8.40    7.30
  -8 -10 -10    2.90    5.20
   8  10  10    0.20    5.10
   8  10  10    6.90    6.80
  -9 -10 -10   70.89   16.60
   9  10  10   59.99   15.00
   9  10  10   30.60   12.20
 -10 -10 -10    1.80    6.70
  10  10  10   -1.80    3.60
  10  10  10   -2.10    4.00
 -11 -10 -10    0.40    6.10
  11  10  10    4.30    5.50
  11  10  10   -1.80    5.10
  -7  11  10  128.19   19.40
  -7  11  10   78.29   19.20
  -6  11  10   30.50   11.70
  -6  11  10   36.50   12.20
  -5  11  10    6.00    6.50
  -5  11  10   -4.90    4.80
  -4  11  10   -2.30    4.30
  -4  11  10    3.80    5.90
   3 -11 -10   48.10   10.20
  -3  11  10   69.39   13.90
  -3  11  10   82.99   17.40
  -3  11  10   53.69   10.20
   2 -11 -10   46.60   10.30
  -2  11  10   22.20    8.10
  -2  11  10   32.60   11.90
  -2  11  10   35.60   10.50
   1 -11 -10   74.99   13.40
  -1  11  10   68.59   15.70
  -1  11  10   68.49   11.20
  -1  11  10   84.29   15.40
   0 -11 -10    4.60    5.10
   0  11  10   25.30   10.70
   0  11  10   21.20    8.70
   0  11  10   21.70    8.10
  -1 -11 -10   12.20    6.70
   1  11  10   12.10    6.70
   1  11  10   29.00    8.80
   1  11  10   12.30    7.50
  -2 -11 -10    0.10    4.30
   2  11  10    1.20    4.20
   2  11  10    5.20    5.90
   2  11  10    5.70    7.00
  -3 -11 -10   92.29   14.50
   3  11  10   79.29   16.50
   3  11  10   99.09   16.10
   3  11  10   87.99   11.50
  -4 -11 -10   -2.40    3.10
   4  11  10    9.20    7.40
   4  11  10    6.30    5.40
   4  11  10    3.70    4.30
  -5 -11 -10   24.00   10.80
   5  11  10    8.30    6.70
   5  11  10   10.60    5.30
   5  11  10    1.40    5.40
  -6 -11 -10   37.70   13.10
   6  11  10   13.20    8.50
   6  11  10   14.50    9.20
  -7 -11 -10   18.00   10.70
   7  11  10   13.70    8.90
   7  11  10    7.40    6.70
  -8 -11 -10   13.50    8.40
   8  11  10   11.30    7.90
   8  11  10   11.80    9.00
  -9 -11 -10   18.90   10.40
   9  11  10   11.00    8.20
   9  11  10   11.40    9.70
  10  11  10    6.10    7.00
  10  11  10   -0.40    5.40
  -5  12  10    2.50    4.80
  -5  12  10   13.90   10.50
  -4  12  10   19.70    8.90
  -4  12  10    8.60    7.90
   3 -12 -10   93.09   11.90
  -3  12  10  110.89   15.60
  -3  12  10   79.09   17.20
   2 -12 -10   19.50    7.60
  -2  12  10   27.50   10.70
  -2  12  10   20.40    8.50
  -2  12  10   19.70    7.70
   1 -12 -10    2.30    4.20
  -1  12  10   14.10    6.40
  -1  12  10   15.00    9.70
  -1  12  10   14.90    7.60
   0 -12 -10   22.10    8.40
   0  12  10   21.90    8.20
   0  12  10   16.90    8.10
   0  12  10    7.80    6.80
  -1 -12 -10   54.59   13.20
   1  12  10   54.79   13.00
   1  12  10   46.80   12.50
   1  12  10   69.89   17.00
  -2 -12 -10   99.69   14.80
   2  12  10  114.19   15.60
   2  12  10   89.09   12.30
   2  12  10  108.89   21.90
  -3 -12 -10    7.30    6.80
   3  12  10    0.90    4.70
   3  12  10    4.40    4.50
   3  12  10    1.80    5.40
  -4 -12 -10    7.90    6.30
   4  12  10   25.00    7.70
   4  12  10   20.40   10.30
   4  12  10   21.60   10.30
  -5 -12 -10   -0.80    5.00
   5  12  10    5.50    6.60
   5  12  10    0.20    3.20
   5  12  10    4.00    5.80
  -6 -12 -10   -4.50    3.90
   6  12  10   -3.20    3.40
   6  12  10   -6.50    3.10
  -7 -12 -10   63.59   15.80
   7  12  10   23.50   11.10
   7  12  10   72.59   16.50
  -8 -12 -10    1.50    6.90
   8  12  10   -4.40    3.80
   8  12  10   -1.10    4.80
  -9 -12 -10    6.70    8.80
   9  12  10    3.20    5.80
   9  12  10    8.00    8.00
  -4  13  10   55.29   15.90
  -4  13  10   88.79   19.90
  -3  13  10    6.10    7.00
  -3  13  10    1.00    4.90
   2 -13 -10   27.70    9.00
  -2  13  10   54.59   15.90
  -2  13  10   52.39   12.80
   1 -13 -10    5.10    5.90
  -1  13  10    8.40    7.10
  -1  13  10    7.40    5.50
  -1  13  10   17.50   10.10
   0 -13 -10    0.20    4.20
   0  13  10    0.10    4.80
   0  13  10   -0.40    4.20
   0  13  10   -3.00    3.70
  -1 -13 -10    6.40    5.50
   1  13  10   22.40   10.70
   1  13  10    7.90    6.20
   1  13  10   20.70    7.80
  -2 -13 -10   23.80    9.50
   2  13  10   43.70   11.00
   2  13  10   35.50   13.00
   2  13  10   33.30   11.70
  -3 -13 -10   21.80    9.70
   3  13  10   13.70    9.10
   3  13  10    5.40    5.50
   3  13  10    0.70    4.30
  -4 -13 -10    4.80    6.80
   4  13  10    1.50    4.30
   4  13  10    6.10    7.50
   4  13  10   -0.70    4.10
  -5 -13 -10    0.90    5.90
   5  13  10    4.10    4.50
   5  13  10   -1.80    4.50
   5  13  10    9.90    7.50
  -6 -13 -10   24.30   11.20
   6  13  10   15.50    8.70
   6  13  10   23.20   11.20
  -7 -13 -10    4.20    6.00
   7  13  10   -2.40    4.40
   7  13  10   12.40    9.40
   8  13  10   19.00   11.00
   8  13  10    1.80    6.70
   2 -14 -10    1.50    6.40
  -2  14  10   11.20    7.60
  -2  14  10   13.50    9.00
   1 -14 -10    4.50    6.00
  -1  14  10    6.80    6.90
  -1  14  10    1.30    5.20
   0 -14 -10   38.90   11.90
   0  14  10   24.30   10.80
   0  14  10   25.90    9.60
   0  14  10   36.60   11.20
  -1 -14 -10   10.30    7.50
   1  14  10    4.00    6.10
   1  14  10   -1.90    3.90
   1  14  10   13.90    8.10
  -2 -14 -10    1.80    5.40
   2  14  10    2.70    5.90
   2  14  10   15.40    9.40
   2  14  10    1.40    5.10
  -3 -14 -10   20.20    9.80
   3  14  10    6.60    8.10
   3  14  10    9.60    7.30
   3  14  10   10.60    6.70
  -4 -14 -10   15.70    9.80
   4  14  10   21.00   10.10
   4  14  10   17.00    8.30
   4  14  10   40.80   14.10
  -5 -14 -10   25.10   11.80
   5  14  10    6.80    5.50
   5  14  10   15.50   15.50
   5  14  10   21.50   10.40
  -6 -14 -10   76.19   18.20
   6  14  10   69.19   18.10
   6  14  10   27.50    9.00
   6  14  10   60.99   16.40
  -4 -10  11   12.40   10.90
  -4 -10  11    2.00    7.90
  -3 -10  11    2.50    6.40
  -3 -10  11   15.70   13.70
  -2 -10  11   11.20   10.40
  -2 -10  11   17.80   10.60
  -1 -10  11   63.09   16.10
  -1 -10  11   77.19   20.50
   0 -10  11   10.60    8.20
   0 -10  11   10.90   10.50
   1 -10  11   -4.10    4.70
  -6  -9  11   19.20   16.40
  -6  -9  11    1.30    6.00
  -6  -9  11   -0.20    5.20
  -5  -9  11   10.60    7.90
  -5  -9  11   15.10    9.40
  -5  -9  11    8.90    6.70
  -4  -9  11    1.10    6.00
  -4  -9  11    4.80    5.40
  -4  -9  11   -2.30    4.20
  -3  -9  11    5.00    6.40
  -3  -9  11   13.30   10.30
  -3  -9  11    5.90    5.10
  -2  -9  11   58.99   15.80
  -2  -9  11   30.40   12.30
  -1  -9  11   61.69   17.30
  -1  -9  11   52.69   15.00
   0  -9  11   -2.80    5.50
   0  -9  11   -1.40    4.20
   1  -9  11    7.90    7.90
   1  -9  11    9.50    7.80
   2  -9  11   -2.10    5.90
   2  -9  11    1.90    5.20
   3  -9  11   -5.80    6.00
   3  -9  11   -1.00    5.20
   4  -9  11   63.79   16.70
   4  -9  11   42.20   15.80
  -8  -8  11   93.59   20.10
  -8  -8  11   58.29   18.00
  -8  -8  11   83.19   17.40
  -7  -8  11    6.60    8.60
  -7  -8  11    8.10    6.50
  -7  -8  11    1.80    4.90
  -6  -8  11    0.50    7.40
  -6  -8  11   18.00    9.00
  -6  -8  11    4.20    5.00
  -5  -8  11   -1.10    4.50
  -5  -8  11   -0.70    4.40
  -5  -8  11   -2.20    3.40
  -4  -8  11    8.00    7.70
  -4  -8  11    0.80    4.00
  -4  -8  11    5.10    6.80
  -3  -8  11   -3.70    3.80
  -3  -8  11   10.80    8.00
  -3  -8  11    2.90    4.10
  -2  -8  11   67.09   17.10
  -2  -8  11   52.09   14.40
  -2  -8  11   70.89   10.60
  -1  -8  11   15.70    9.70
  -1  -8  11   12.40    9.50
  -1  -8  11    9.80    4.90
   0  -8  11    0.40    4.80
   0  -8  11    0.40    5.50
   1  -8  11   59.39   16.60
   1  -8  11   50.79   15.60
   2  -8  11    4.70    6.00
   2  -8  11    9.00    9.30
  -3   8 -11    2.20    4.70
   3  -8  11    3.20    5.60
   3  -8  11    7.00    9.10
   4  -8  11   10.10    9.30
   4  -8  11    5.40    7.70
   5  -8  11    2.00    5.60
   5  -8  11    9.20   16.30
  -9  -7  11    0.60    6.90
  -9  -7  11    2.00    6.10
  -8  -7  11   19.60    8.40
  -8  -7  11   32.10   10.70
  -8  -7  11   25.50   12.20
  -7  -7  11   20.60   10.80
  -7  -7  11   24.80    9.60
  -7  -7  11   20.50   10.20
  -6  -7  11    7.30    7.20
  -6  -7  11   18.10    7.90
  -6  -7  11    2.10    4.50
  -5  -7  11   11.10   10.10
  -5  -7  11   -3.60    3.60
  -5  -7  11   -5.40    3.50
  -4  -7  11    8.80    6.70
  -4  -7  11   16.50    7.30
  -4  -7  11    0.30    6.00
  -3  -7  11   68.99   16.00
  -3  -7  11   55.39   11.60
  -3  -7  11   35.10   12.70
  -2  -7  11   15.00    9.60
  -2  -7  11    9.70    7.50
  -2  -7  11   21.10    7.70
  -1  -7  11   51.29   10.20
  -1  -7  11   39.50   13.70
  -1  -7  11   36.10   17.20
   0  -7  11   11.10    4.80
   0  -7  11    9.10    7.00
   0  -7  11    6.60    8.40
   1  -7  11   46.50   15.70
   1  -7  11   52.49   16.60
   2  -7  11   94.79   20.80
   2  -7  11   96.59   19.80
  -3   7 -11   31.00    6.60
   3  -7  11   17.90    9.00
   3  -7  11   21.20   12.00
   4  -7  11    1.80    6.60
   4  -7  11   12.50    7.80
   5  -7  11    6.90    6.20
   5  -7  11   27.90   14.20
   6  -7  11   52.09   18.10
   6  -7  11   28.50   11.10
   7  -7  11   21.80    9.90
   7  -7  11    5.20    8.60
  -9  -6  11   -2.30    4.30
  -9  -6  11    7.20    6.90
  -8  -6  11    3.70    4.90
  -8  -6  11   -4.10    3.40
  -8  -6  11    9.40    7.90
  -7  -6  11   19.50    7.50
  -7  -6  11   36.20   11.30
  -7  -6  11   25.20   11.60
  -6  -6  11   16.30    7.40
  -6  -6  11   22.80    9.00
  -6  -6  11    9.10    8.50
  -5  -6  11    6.40    6.30
  -5  -6  11   -0.10    4.30
  -5  -6  11    1.60    5.20
  -4  -6  11   20.40    8.60
  -4  -6  11   21.10    9.60
  -4  -6  11   36.30   11.80
  -3  -6  11   70.99   15.60
  -3  -6  11   71.39   17.90
  -3  -6  11   71.79   11.40
  -2  -6  11   42.20    9.70
  -2  -6  11   53.99   16.40
  -2  -6  11   39.80   13.20
  -1  -6  11   22.50    6.80
  -1  -6  11   29.00   11.20
  -1  -6  11   28.00   11.40
   0  -6  11  138.59   19.90
   0  -6  11  146.79   20.10
   0  -6  11  170.58   13.80
   1  -6  11   17.00   12.20
   1  -6  11    0.20    4.70
   1  -6  11    1.10    2.90
   2  -6  11   90.09   20.20
   2  -6  11  113.09   17.60
  -3   6 -11   12.00    3.90
   3  -6  11    6.00    7.90
   3  -6  11   26.20    9.80
   4  -6  11   29.60   12.30
   4  -6  11   31.80   13.50
   5  -6  11    5.80    6.90
   5  -6  11   -4.30    5.60
   6  -6  11   13.70   11.20
   6  -6  11    1.60    4.70
   7  -6  11    9.00    7.00
   7  -6  11   34.60   15.30
   8  -6  11   22.50   13.70
   8  -6  11   33.80   12.20
 -10  -5  11   -1.40    5.30
 -10  -5  11    4.60    7.70
  -9  -5  11   54.59   13.90
  -9  -5  11   80.79   18.70
  -8  -5  11    7.10    6.30
  -8  -5  11   -0.10    4.20
  -8  -5  11   16.50   10.80
  -7  -5  11    1.90    4.50
  -7  -5  11    3.20    5.60
  -7  -5  11   -2.10    2.90
  -6  -5  11    4.60    4.70
  -6  -5  11   10.90    7.60
  -6  -5  11    4.50    4.90
  -5  -5  11   39.80   10.40
  -5  -5  11   37.10   10.50
  -5  -5  11   52.29   14.90
  -4  -5  11  181.38   22.10
  -4  -5  11  158.18   17.20
  -4  -5  11  190.28   19.00
  -3  -5  11   53.99   13.30
  -3  -5  11   43.70   10.50
  -3  -5  11   51.19   20.00
  -2  -5  11   69.59   10.60
  -2  -5  11   90.09   19.90
  -2  -5  11   70.09   15.20
  -1  -5  11  104.39   16.20
  -1  -5  11  117.59   12.70
  -1  -5  11  116.59   17.60
   0  -5  11    8.70    7.60
   0  -5  11    4.90    4.20
   0  -5  11    4.00    6.00
   1  -5  11  201.18   23.00
   1  -5  11  197.98   14.10
   1  -5  11  168.78   21.30
   2  -5  11    0.60    6.30
   2  -5  11    3.00    2.70
   2  -5  11   -1.40    3.70
  -3   5 -11    3.60    2.20
   3  -5  11    0.50    8.90
   3  -5  11    2.80    1.80
   3  -5  11    4.50    6.00
   4  -5  11   15.00    9.50
   4  -5  11   19.30   10.40
   5  -5  11   23.40   10.10
   5  -5  11   24.00   11.00
   6  -5  11   22.90   11.60
   6  -5  11   17.80    8.50
   7  -5  11   35.90   13.50
   7  -5  11   18.30   11.30
   8  -5  11    3.20    5.90
   8  -5  11   -6.40    5.40
   9  -5  11    2.90    6.10
   9  -5  11    1.00    7.20
 -10  -4  11   22.70   10.80
 -10  -4  11   13.70    8.70
  -9  -4  11    6.40    6.30
  -9  -4  11    8.80    7.90
  -8  -4  11   30.00   11.60
  -8  -4  11   25.10    7.20
  -8  -4  11   16.40    8.60
  -7  -4  11    3.30    5.70
  -7  -4  11   16.20    9.90
  -7  -4  11    5.60    4.20
  -6  -4  11   -2.20    3.20
  -6  -4  11   -2.10    2.80
  -6  -4  11    0.70    5.60
  -5  -4  11   74.09   11.30
  -5  -4  11   93.49   13.60
  -5  -4  11   95.69   26.00
  -4  -4  11   84.49   17.90
  -4  -4  11   85.19   12.20
  -4  -4  11   66.99   13.10
  -3  -4  11   27.40    8.80
  -3  -4  11   33.90    9.00
  -3  -4  11   15.30    8.60
  -2  -4  11   -5.30    3.50
  -2  -4  11    2.00    3.50
  -2  -4  11   -5.30    3.60
  -1  -4  11   70.99   10.20
  -1  -4  11   46.30   13.40
  -1  -4  11   55.19   13.40
   0  -4  11  344.57   28.90
   0  -4  11  269.27   21.60
   0  -4  11  273.07   25.20
  -1   4 -11    3.10    2.90
   1  -4  11   -1.20    3.80
   1  -4  11    5.70    7.20
   1  -4  11   13.80    5.40
  -2   4 -11    4.80    2.50
   2  -4  11   13.80    7.90
   2  -4  11   -0.40    4.80
   2  -4  11    7.00    3.70
  -3   4 -11   -0.70    0.80
   3  -4  11   -1.90    4.80
   3  -4  11    6.60    7.10
   3  -4  11    0.70    2.40
   4  -4  11    1.80    1.80
   4  -4  11    6.10   10.60
   4  -4  11   -0.60    4.80
   5  -4  11   41.60   14.20
   5  -4  11   41.10   12.80
   6  -4  11  114.49   28.40
   6  -4  11   67.99   18.00
   7  -4  11   -6.50    4.30
   7  -4  11   -2.70    4.10
   8  -4  11    0.10    8.20
   8  -4  11    6.30    6.70
   9  -4  11   -0.40    7.60
   9  -4  11   -1.20    5.40
 -11  -3  11   23.30   10.40
 -11  -3  11   40.60   13.60
 -10  -3  11   -0.80    4.60
 -10  -3  11    2.10    6.50
  -9  -3  11   37.50   12.90
  -9  -3  11   33.30   12.20
  -8  -3  11    4.00    5.70
  -8  -3  11    6.10    7.00
  -7  -3  11   -0.60    3.60
  -7  -3  11   21.70    9.70
  -6  -3  11   78.69   15.40
  -6  -3  11   42.00   19.20
  -6  -3  11   68.29    9.00
  -5  -3  11   44.50   13.70
  -5  -3  11   40.10   10.40
  -5  -3  11   62.29   11.30
  -4  -3  11   35.30    9.10
  -4  -3  11   24.90    9.30
  -4  -3  11   63.59   15.40
  -3  -3  11    8.60    6.10
  -3  -3  11    9.90    5.80
  -3  -3  11   14.20    7.60
  -2  -3  11   31.60    9.80
  -2  -3  11   49.10   10.80
  -2  -3  11   40.30   12.50
  -1  -3  11   55.79   13.30
  -1  -3  11  108.29   20.90
  -1  -3  11   66.09   10.00
   0   3 -11  199.68   14.00
   0  -3  11  230.08   21.70
   0  -3  11  211.38   22.30
  -1   3 -11   10.30    3.50
   1  -3  11   12.60    5.20
   1  -3  11   26.90    9.90
   1  -3  11   21.30   10.20
   2  -3  11   16.20    5.40
   2  -3  11   17.60    8.90
   2  -3  11   12.00    7.90
  -3   3 -11    4.40    3.30
   3  -3  11    8.80    3.60
   3  -3  11    2.90    6.30
   3  -3  11    0.30    4.20
   4  -3  11   18.90    9.50
   4  -3  11   13.80    8.70
   4  -3  11   18.50    4.50
   5  -3  11   21.40   16.20
   5  -3  11   41.20    3.20
   5  -3  11   40.80   12.70
   6  -3  11   68.99   18.30
   6  -3  11   47.10   13.40
   7  -3  11   -2.60    6.50
   7  -3  11    1.80    5.10
   8  -3  11    8.90    8.80
   8  -3  11    3.00    5.60
   9  -3  11   66.29   19.90
   9  -3  11   46.40   14.20
  10  -3  11   -1.00    5.80
 -11  -2  11   67.49   17.00
 -10  -2  11    1.60    6.00
 -10  -2  11   -5.40    4.00
  -9  -2  11   -1.70    5.00
  -9  -2  11    2.10    6.50
  -8  -2  11   19.90    9.60
  -8  -2  11    6.90    6.70
  -7  -2  11    3.60    5.80
  -7  -2  11   12.20    7.40
  -7  -2  11    7.90    2.50
  -6  -2  11   88.99   18.00
  -6  -2  11   93.79   14.50
  -6  -2  11   59.99    7.40
  -5  -2  11   26.10    9.80
  -5  -2  11   25.60    6.60
  -5  -2  11   14.00    7.10
  -4  -2  11   26.60    7.50
  -4  -2  11   39.30   11.70
  -4  -2  11   33.90    9.50
  -3  -2  11   65.29   15.30
  -3  -2  11   69.89   14.10
  -3  -2  11   58.89   11.60
  -2  -2  11   54.69   13.20
  -2  -2  11   66.09   10.80
  -2  -2  11   69.19   15.60
  -1  -2  11  117.29   14.60
  -1  -2  11   92.69   12.00
  -1  -2  11  103.39   15.80
   0   2 -11   40.50    5.60
   0  -2  11   47.90   10.00
   0  -2  11   70.39   16.30
   0  -2  11   37.70   11.10
  -1   2 -11   24.00    3.60
   1  -2  11   40.90   12.60
   1  -2  11   19.60    6.40
   1  -2  11   32.60   10.30
   2  -2  11    4.50    3.40
   2  -2  11   -3.60    4.70
   2  -2  11    5.00    7.10
   3  -2  11   11.80    7.50
   3  -2  11   24.10    6.20
   3  -2  11    8.30    6.80
  -4   2 -11    1.00    2.50
   4  -2  11    3.90    6.20
   4  -2  11   -0.80    2.00
   4  -2  11    5.70    8.00
   5  -2  11  227.08   25.30
   5  -2  11  264.17   25.40
   5  -2  11  224.38   12.90
   6  -2  11   19.00   12.30
   6  -2  11    1.30    5.90
   6  -2  11   10.80    4.50
   7  -2  11   -2.70    6.00
   7  -2  11    1.60    6.50
   8  -2  11   11.20    8.50
   8  -2  11   12.20    9.20
   9  -2  11    9.20    8.10
   9  -2  11    1.60    8.70
  10  -2  11   26.30   14.20
  10  -2  11   25.00   11.30
  11  -2  11    6.90    6.70
  11  -2  11    1.70   10.20
 -11  -1  11   27.10   10.90
 -11  -1  11   59.79   19.40
 -10  -1  11   -0.80    4.80
 -10  -1  11    4.80    6.70
  -9  -1  11    3.10    6.10
  -9  -1  11    4.80    6.10
  -8  -1  11   10.50    7.90
  -8  -1  11   -0.20    4.50
  -7  -1  11   97.49   15.50
  -7  -1  11   99.39   15.50
  -6  -1  11   45.40   12.60
  -6  -1  11   46.20   12.80
  -6  -1  11   30.90    3.70
  -6  -1  11   35.50    3.80
  -5  -1  11   40.80   12.00
  -5  -1  11   54.69   12.90
  -5  -1  11   35.60    6.00
  -4  -1  11    8.60    4.60
  -4  -1  11    5.10    6.00
  -4  -1  11    7.80    5.50
  -3  -1  11   34.20    8.00
  -3  -1  11   33.80   12.10
  -3  -1  11   34.90   10.20
  -2  -1  11  149.39   18.10
  -2  -1  11  120.39   13.50
  -2  -1  11  116.99   13.90
  -1  -1  11  343.77   23.70
  -1  -1  11  380.46   28.90
  -1  -1  11  378.36   25.50
   0  -1  11   46.50   12.70
   0  -1  11   53.69   10.80
   0  -1  11   47.80   11.70
  -1   1 -11   10.10    2.40
   1  -1  11   20.40    8.50
   1  -1  11   13.60    6.00
   1  -1  11   27.00    9.90
   2  -1  11  140.19   17.80
   2  -1  11  166.68   13.90
   2  -1  11  161.88   19.20
   3  -1  11   52.29   12.30
   3  -1  11   80.69    9.30
   3  -1  11  113.79   16.40
   4  -1  11   10.90    7.40
   4  -1  11    9.20    3.90
   4  -1  11   21.50   10.00
   5  -1  11   22.00    9.90
   5  -1  11    9.40    8.10
   5  -1  11   16.70    5.00
   6  -1  11   -1.50    4.50
   6  -1  11    8.30    3.50
   6  -1  11   10.40    9.30
   7  -1  11   43.30    5.40
   7  -1  11   64.89   16.80
   7  -1  11   49.90   16.20
   8  -1  11   25.50   10.40
   8  -1  11   25.00   12.40
   9  -1  11   24.50   12.70
   9  -1  11   30.20   11.30
  10  -1  11   15.90   10.50
  10  -1  11    2.80    6.40
  11  -1  11   -4.40    4.60
 -11   0  11   17.00    9.10
 -11   0  11   22.60   11.50
 -10   0  11   16.80    9.80
 -10   0  11   14.80    8.30
  -9   0  11    6.90    6.50
  -9   0  11   -3.00    4.20
  -8   0  11   16.30    9.00
  -8   0  11   -0.60    3.60
  -7   0  11   52.59   13.60
  -7   0  11   77.19   16.30
  -6   0  11   75.49   15.80
  -6   0  11  120.89   16.40
  -5   0  11   36.70    4.30
  -5   0  11   35.30   10.50
  -5   0  11   26.50    4.10
  -5   0  11   30.80   10.70
  -4   0  11   13.70    5.40
  -4   0  11   10.00    6.20
  -4   0  11   24.10    6.00
  -4   0  11   19.40    8.70
  -3   0  11    3.90    5.70
  -3   0  11    2.10    3.60
  -3   0  11    0.40    4.50
  -2   0  11   87.99   10.90
  -2   0  11   74.89   11.50
  -2   0  11   81.09   16.30
   1   0 -11   44.40    8.20
  -1   0  11   53.49   11.10
  -1   0  11   42.30    9.60
  -1   0  11   66.09   13.30
   0   0 -11   43.70    5.20
   0   0  11   63.19   14.10
   0   0  11   43.90   12.30
   0   0  11   51.59   10.40
   1   0  11   76.39   10.30
   1   0  11   87.49   13.10
   1   0  11   88.79   14.40
   2   0  11    2.90    6.00
   2   0  11    7.70    4.60
   2   0  11   -1.70    4.40
   3   0  11  165.28   18.90
   3   0  11  138.79   17.80
   3   0  11  115.29   11.90
   4   0  11   92.39   10.30
   4   0  11  115.29   16.80
   4   0  11  127.59   17.40
   5   0  11    0.40    4.50
   5   0  11   -3.20    4.00
   5   0  11    2.70    3.40
   6   0  11    2.70    3.70
   6   0  11   -3.10    4.90
   6   0  11    5.80    7.00
   7   0  11   68.89    8.10
   7   0  11   83.09   18.10
   8   0  11   62.79   18.70
   8   0  11   26.10   11.20
   8   0  11   44.90    6.50
   9   0  11   97.69   19.10
   9   0  11   73.79   19.90
  10   0  11   -3.00    5.40
  10   0  11    2.00    6.90
  11   0  11   -3.70    4.40
  11   0  11   -6.50    6.30
 -11   1  11   31.30   10.80
 -11   1  11    6.90    7.20
 -10   1  11   24.50    9.90
 -10   1  11   14.00    8.80
  -9   1  11    4.20    4.90
  -9   1  11    4.60    6.30
  -8   1  11  168.18   20.40
  -8   1  11  208.18   20.70
  -7   1  11   12.40    8.30
  -7   1  11    9.80    7.40
  -6   1  11   86.99   17.00
  -6   1  11   77.69   16.30
  -5   1  11   13.00    7.30
  -5   1  11   17.50    8.10
  -4   1  11    7.70    3.00
  -4   1  11    7.00    3.80
  -4   1  11    9.40    5.40
  -4   1  11    9.10    6.50
  -3   1  11  240.88   15.50
  -3   1  11  228.98   14.00
  -3   1  11  253.17   21.20
  -3   1  11  242.48   22.30
  -2   1  11   49.70    8.10
  -2   1  11   31.60    9.60
  -2   1  11   37.40    9.80
   1  -1 -11   73.19   13.40
  -1   1  11   87.69   16.90
  -1   1  11   48.00   10.10
  -1   1  11   60.79   12.00
   0   1  11    8.40    5.30
   0   1  11    1.40    3.40
   0   1  11   -1.60    3.10
   1   1  11  172.88   17.70
   1   1  11  177.68   19.50
   1   1  11  162.28   15.20
   2   1  11  242.08   23.00
   2   1  11  288.07   19.90
   2   1  11  250.47   22.40
   3   1  11   41.30   11.20
   3   1  11   43.70   11.30
   4   1  11    5.50    4.00
   4   1  11   -1.90    3.80
   4   1  11    8.90    6.70
   5   1  11   13.80    8.60
   5   1  11    7.40    4.30
   5   1  11   17.30    9.20
   6   1  11   28.40   10.80
   6   1  11   13.90    5.10
   6   1  11   27.00   11.10
   7   1  11    5.30    8.00
   7   1  11   -0.80    4.40
   7   1  11   11.10    4.50
   8   1  11   11.40    7.30
   8   1  11   15.60    9.50
   8   1  11    7.90    4.50
   9   1  11   23.70    6.60
   9   1  11   19.90    8.80
   9   1  11   55.99   18.10
  10   1  11   -6.40    5.40
  10   1  11   -1.40    4.70
  11   1  11   11.20    8.30
  11   1  11    1.00    7.90
  12   1  11   52.49   20.00
  12   1  11   26.50   11.80
 -11   2  11   -5.40    4.90
 -11   2  11   -1.90    4.50
 -10   2  11   44.70   13.60
 -10   2  11   36.50   11.60
 -10   2  11   30.40   10.50
  -9   2  11    5.50    6.00
  -9   2  11    2.00    5.40
  -9   2  11    2.00    5.90
  -8   2  11   13.70    8.40
  -8   2  11    2.20    4.20
  -8   2  11    2.00    4.20
  -7   2  11   42.80   11.10
  -7   2  11   35.60   11.20
  -7   2  11   38.60   10.20
  -6   2  11    3.80    4.60
  -6   2  11   26.70    9.70
  -6   2  11    0.60    3.90
  -5   2  11   -4.70    2.90
  -5   2  11   -2.70    3.00
  -5   2  11   -1.00    3.70
  -4   2  11  259.67   18.60
  -4   2  11  235.78   21.40
  -4   2  11  234.58   10.30
  -4   2  11  222.28   10.30
  -4   2  11  247.58   22.40
  -3   2  11  290.87   22.90
  -3   2  11  260.07   15.10
  -3   2  11  217.88   13.70
  -3   2  11  297.37   23.90
  -2   2  11   93.19   10.20
  -2   2  11   83.89    9.40
  -2   2  11  104.19   14.30
  -2   2  11   85.19   10.10
  -2   2  11   89.19   12.90
  -1   2  11   64.49   14.70
  -1   2  11   39.30    9.30
  -1   2  11   47.90    9.60
   0   2  11   37.40   11.90
   0   2  11   19.30    7.20
   0   2  11   33.30    9.20
   1   2  11   17.70    8.00
   1   2  11   15.00    6.30
   2   2  11  197.28   19.10
   2   2  11  220.98   17.80
   2   2  11  218.88   21.60
   3   2  11   30.30    8.40
   3   2  11   24.10    8.80
   3   2  11   36.40   10.70
   4   2  11    7.90    6.80
   4   2  11   -3.40    2.30
   4   2  11   11.40    7.00
   5   2  11   14.00    7.90
   5   2  11    4.50    3.90
   5   2  11    7.60    6.70
   6   2  11  156.28   14.40
   6   2  11  187.38   21.70
   6   2  11  219.68   23.60
   7   2  11    1.00    4.90
   7   2  11    5.70    7.10
   7   2  11   10.30    5.00
   8   2  11    9.20    7.50
   8   2  11    1.10    4.00
   8   2  11   11.30    9.00
   9   2  11    5.50    4.20
   9   2  11    4.10    6.30
   9   2  11    2.20    6.80
  10   2  11    2.20    7.60
  10   2  11    2.90    3.90
  10   2  11    5.20    6.60
  11   2  11   27.50   12.70
  11   2  11   39.70   16.60
  12   2  11   13.60    9.60
  12   2  11   17.50   13.10
 -11   3  11   20.60   15.20
 -10   3  11  121.69   19.30
 -10   3  11  165.68   17.50
 -10   3  11  191.88   21.70
  -9   3  11    0.60    5.50
  -9   3  11   12.00    7.20
  -9   3  11   15.80    8.80
  -8   3  11    1.50    5.50
  -8   3  11    7.20    6.10
  -8   3  11    6.90    5.70
  -7   3  11   39.80   10.10
  -7   3  11   51.29   14.00
  -7   3  11   32.00   10.20
  -6   3  11    7.90    5.10
  -6   3  11   -1.70    3.40
  -6   3  11    1.00    4.20
  -5   3  11   23.40    9.40
  -5   3  11   20.90    7.10
  -5   3  11   17.10    7.30
  -4   3  11   34.70   10.00
  -4   3  11   55.09   10.70
  -4   3  11   59.49   13.20
  -3   3  11  385.66   27.30
  -3   3  11  375.86   27.30
  -3   3  11  336.07   17.10
  -3   3  11  377.16   22.30
  -3   3  11  391.86   17.40
  -2   3  11   49.50    7.60
  -2   3  11   65.89   14.10
  -2   3  11   63.49    8.40
  -2   3  11   78.39   16.60
  -2   3  11   49.90    7.20
  -1   3  11   40.80    7.50
  -1   3  11   32.10    9.60
  -1   3  11   30.20    8.00
  -1   3  11   17.50    7.40
   0   3  11   91.49    8.20
   0   3  11   80.09   11.20
   0   3  11  109.19   14.80
   0   3  11   77.09   11.60
   1   3  11   48.10   10.80
   1   3  11   15.30    7.20
   1   3  11   38.70    9.40
   2   3  11   -2.00    3.00
   2   3  11    5.10    4.30
   2   3  11   -3.40    3.20
   3   3  11    1.70    4.90
   3   3  11   10.90    5.50
   3   3  11    1.60    5.30
   4   3  11   -2.00    3.60
   4   3  11    2.30    3.30
   4   3  11   -1.00    4.40
   5   3  11   97.49   19.50
   5   3  11  104.19   12.30
   5   3  11   98.49   19.90
   6   3  11    2.30    5.70
   6   3  11   -1.60    3.30
   6   3  11    8.50    5.40
   7   3  11  276.37   28.50
   7   3  11  257.27   19.80
   7   3  11  306.27   28.20
   8   3  11   10.20    8.90
   8   3  11   20.20   10.40
   8   3  11   17.60    6.30
   9   3  11   -3.00    2.30
   9   3  11    8.60    8.40
   9   3  11    8.80    8.00
  10   3  11    7.20    4.70
  10   3  11   -3.00    6.50
  10   3  11   24.30   12.20
  11   3  11   19.00    7.50
  11   3  11   13.80    9.10
  11   3  11   31.20   14.30
  12   3  11   69.39   19.90
  12   3  11   39.60   18.60
 -11   4  11    0.20    6.00
 -11   4  11   -1.70    4.90
 -10   4  11  152.38   21.60
 -10   4  11  188.38   21.90
 -10   4  11  203.08   17.80
  -9   4  11   10.70    7.60
  -9   4  11    9.20    7.50
  -9   4  11    0.20    4.40
  -8   4  11   73.09   12.00
  -8   4  11  100.89   20.10
  -8   4  11   89.99   14.40
  -7   4  11    3.80    6.80
  -7   4  11    1.10    4.40
  -7   4  11   -1.10    3.40
  -6   4  11    8.40    6.20
  -6   4  11   14.60    7.30
  -5   4  11   68.99   10.80
  -5   4  11   49.60   13.50
  -5   4  11   93.89   13.30
  -4   4  11  166.08   17.40
  -4   4  11  165.18   18.50
  -4   4  11  162.48   15.20
  -3   4  11   15.10    7.50
  -3   4  11   37.80    8.50
  -3   4  11   39.30    5.20
  -3   4  11   46.00   11.50
  -2   4  11    8.50    3.80
  -2   4  11   -4.20    3.20
  -2   4  11    4.50    4.90
  -2   4  11    1.60    3.50
  -2   4  11    5.20    3.60
  -1   4  11   96.19    9.70
  -1   4  11  104.79   11.40
  -1   4  11   98.09   14.10
  -1   4  11  109.79   14.30
   0   4  11   90.59    8.50
   0   4  11   88.59   11.60
   0   4  11   86.09   12.50
   0   4  11   79.49   13.10
   1   4  11  125.89   14.50
   1   4  11  116.29    8.70
   1   4  11  146.19   17.30
   1   4  11  107.59   13.70
   2   4  11   10.70    6.70
   2   4  11    7.50    2.70
   2   4  11   12.60    6.00
   2   4  11    5.20    5.30
   3   4  11   14.60    7.90
   3   4  11   19.80    8.90
   3   4  11   23.20    8.00
   4   4  11   -4.60    2.80
   4   4  11    7.00    4.60
   4   4  11   -2.80    3.70
   5   4  11    8.00    6.20
   5   4  11    6.10    5.00
   5   4  11   -1.90    4.20
   6   4  11  188.38   21.70
   6   4  11  211.58   23.50
   6   4  11  204.08   18.00
   7   4  11    6.20    5.20
   7   4  11   19.10    9.50
   7   4  11    6.30    6.30
   8   4  11    5.50    5.10
   8   4  11    0.20    5.50
   8   4  11   -5.20    5.20
   9   4  11    5.10    5.30
   9   4  11   27.20   12.30
   9   4  11    3.30    6.80
  10   4  11   18.20    7.30
  10   4  11   37.90   16.60
  10   4  11   14.70    9.00
  11   4  11    2.20    4.80
  11   4  11   -3.80    5.20
  11   4  11   -3.30    7.90
  12   4  11   31.60   14.00
  12   4  11   18.40   13.80
  12   4  11   29.90    9.50
 -10   5  11   26.20   10.30
 -10   5  11   38.00   13.20
  -9   5  11   13.50    8.70
  -9   5  11   -0.70    4.10
  -9   5  11   -2.90    5.00
  -8   5  11   -2.90    4.50
  -8   5  11    9.80    6.00
  -8   5  11   19.20    8.30
  -7   5  11    7.80    6.20
  -7   5  11    1.80    5.60
  -7   5  11    8.40    5.40
  -6   5  11   23.10    8.20
  -6   5  11   19.30    8.30
  -6   5  11   51.99   11.70
  -5   5  11  215.78   22.00
  -5   5  11  216.38   19.30
  -5   5  11  202.08   18.40
  -4   5  11   75.99   11.10
  -4   5  11   74.09   14.70
  -4   5  11   58.69   14.00
  -3   5  11   73.09   13.90
  -3   5  11   68.19   15.40
  -3   5  11   72.49   10.10
  -3   5  11   75.19    6.90
  -2   5  11   31.30    6.90
  -2   5  11   34.70   10.40
  -2   5  11   54.39   12.30
  -2   5  11   43.00    7.10
  -2   5  11   53.69    8.40
  -1   5  11   91.99   13.50
  -1   5  11   61.19    8.40
  -1   5  11   87.79   13.40
  -1   5  11   91.39   10.70
   0   5  11  240.68   15.00
   0   5  11  196.18   19.20
   0   5  11  238.18   21.70
   0   5  11  227.68   18.20
   1   5  11    2.20    4.50
   1   5  11   20.40    8.60
   1   5  11    1.60    3.80
   1   5  11   12.90    3.80
   2   5  11   50.49   11.10
   2   5  11   34.90    4.80
   2   5  11   52.79   12.00
   2   5  11   31.90   10.60
   3   5  11   -2.60    2.80
   3   5  11   -0.90    3.50
   3   5  11    3.60    1.80
   3   5  11   -0.80    4.20
   4   5  11   28.40   10.40
   4   5  11   23.60    8.30
   4   5  11    2.80    4.90
   5   5  11    6.20    5.30
   5   5  11    4.50    5.10
   5   5  11    2.10    5.20
   6   5  11  104.19   16.40
   6   5  11   72.39   11.50
   6   5  11   61.39   15.40
   7   5  11   -1.20    6.80
   7   5  11   12.60    9.50
   7   5  11    2.40    4.00
   8   5  11   26.00   10.90
   8   5  11   25.80   12.60
   8   5  11   12.70    6.40
   9   5  11   39.10   14.40
   9   5  11   45.10   11.20
   9   5  11   24.90   11.90
  10   5  11   50.69   17.00
  10   5  11   37.40    9.90
  10   5  11   48.20   16.60
  11   5  11    1.90    8.40
  11   5  11    6.40    7.80
  12   5  11    7.40   10.20
  12   5  11    3.20    9.60
  12   5  11   -2.00    3.90
 -10   6  11   12.50   11.90
 -10   6  11   10.30   11.60
  -9   6  11    2.60    5.70
  -9   6  11    3.10    5.90
  -8   6  11   11.90    7.90
  -8   6  11    4.20    7.10
  -8   6  11    1.50    6.00
  -7   6  11    1.50    5.40
  -7   6  11    8.30    5.50
  -7   6  11   34.10   11.50
  -6   6  11   67.29   15.90
  -6   6  11   80.19   15.30
  -6   6  11   55.79   11.60
  -5   6  11   93.39   13.20
  -5   6  11   94.29   12.80
  -5   6  11   86.29   19.70
  -4   6  11   81.19   17.70
  -4   6  11   58.59   12.00
  -4   6  11   60.39   12.20
  -3   6  11    0.50    4.60
  -3   6  11    1.00    2.40
  -3   6  11    4.60    5.90
  -3   6  11   -0.50    2.30
  -3   6  11   -1.10    2.50
  -2   6  11    0.40    2.50
  -2   6  11    2.10    4.40
  -2   6  11    2.30    3.30
  -2   6  11   -3.30    3.00
  -2   6  11    5.10    3.90
  -1   6  11    0.90    3.20
  -1   6  11    0.40    3.60
  -1   6  11   -3.90    2.50
  -1   6  11    2.20    3.20
   0   6  11  184.58   18.90
   0   6  11  156.38   15.10
   0   6  11  126.59   16.10
   0   6  11  159.88   12.70
   1   6  11   59.49   12.10
   1   6  11   68.09   14.50
   1   6  11   95.39    9.10
   1   6  11   60.39   12.60
   2   6  11   49.30   11.90
   2   6  11   53.39   11.70
   2   6  11   24.30    8.90
   2   6  11   42.50    5.90
   3   6  11   92.19   17.50
   3   6  11   66.59   14.00
   3   6  11   85.09    7.10
   3   6  11   52.99   13.00
   4   6  11  108.69   14.30
   4   6  11   95.99   15.00
   4   6  11   81.39   17.40
   5   6  11   86.79   17.60
   5   6  11  130.59   17.90
   5   6  11  127.89   15.20
   6   6  11   -1.90    5.10
   6   6  11   -0.80    2.50
   6   6  11   -4.20    3.40
   7   6  11    6.10    7.30
   7   6  11   10.30    6.10
   7   6  11   -1.50    4.00
   8   6  11   50.29   14.90
   8   6  11   52.69   12.10
   8   6  11   23.90    9.60
   9   6  11    5.50    6.50
   9   6  11    9.30    6.60
   9   6  11   10.90    9.20
  10   6  11   42.40   16.10
  10   6  11   51.69   17.70
  10   6  11   37.70   11.00
  11   6  11   20.70    9.20
  11   6  11   14.80    9.60
  11   6  11    8.40   10.30
  12   6  11    2.50    5.00
  12   6  11    0.40    6.80
  12   6  11    1.60    7.30
  -9   7  11   32.10   11.80
  -9   7  11   16.40    9.90
  -8   7  11    6.40    9.10
  -8   7  11   18.00    8.50
  -7   7  11   48.60   13.20
  -7   7  11   17.00    6.00
  -7   7  11   22.90   10.90
  -6   7  11   35.20   11.70
  -6   7  11   46.10   12.10
  -5   7  11  123.19   17.70
  -5   7  11  151.08   16.70
  -5   7  11  134.29   14.50
  -4   7  11   30.10    9.00
  -4   7  11   16.60   15.00
  -4   7  11   53.59   12.20
  -3   7  11   24.50    9.90
  -3   7  11   31.50    9.00
  -3   7  11    9.10    6.30
  -3   7  11   23.40    5.40
  -2   7  11  123.69   16.70
  -2   7  11  131.59   13.50
  -2   7  11  127.79   15.40
  -2   7  11  131.39   12.00
  -1   7  11   93.29   11.00
  -1   7  11  100.09   15.00
  -1   7  11  119.59   15.00
  -1   7  11   94.79   11.30
   0  -7 -11    0.80    3.30
   0   7  11    0.70    4.00
   0   7  11    7.00    5.70
   0   7  11    6.20    5.00
   0   7  11    1.40    3.90
  -1  -7 -11    7.70    5.00
   1   7  11   18.50    5.70
   1   7  11   15.00    7.30
   1   7  11   14.40    6.70
  -2  -7 -11   29.00    8.40
   2   7  11   17.60    7.90
   2   7  11   31.00    6.60
   2   7  11   34.10   10.40
  -3  -7 -11   61.49   12.50
   3   7  11   53.49    6.40
   3   7  11   35.20   10.90
   3   7  11   54.29   12.30
  -4  -7 -11   65.49   13.50
   4   7  11   53.69    6.00
   4   7  11   53.29   12.20
   4   7  11   52.09   13.60
  -5  -7 -11   11.30    7.10
   5   7  11    6.60    5.90
   5   7  11   16.40    3.50
   5   7  11    4.60    6.30
  -6  -7 -11    5.40    5.80
   6   7  11    1.90    5.90
   6   7  11    2.20    5.20
   6   7  11    2.50    1.40
   6   7  11   -1.70    4.70
  -7  -7 -11    0.40    4.80
   7   7  11    0.60    4.80
   7   7  11   -4.00    6.30
   7   7  11   -3.00    3.10
   8   7  11   27.50   10.40
   8   7  11   47.90   13.20
   8   7  11   49.20   14.90
   9   7  11    3.70    6.50
   9   7  11    2.40    5.00
   9   7  11   -0.90    6.20
  10   7  11   32.10   10.10
  10   7  11   15.20   10.80
  10   7  11   44.20   15.60
  11   7  11   -2.40    7.10
  11   7  11   -2.40    4.90
  11   7  11    1.70    5.10
  -9   8  11    9.50    7.80
  -8   8  11    0.30    5.40
  -8   8  11   -2.80    4.60
  -7   8  11   44.70   13.90
  -7   8  11   44.80   13.10
  -6   8  11   43.90   13.50
  -6   8  11   49.99   12.40
  -6   8  11   53.89   10.50
  -5   8  11   86.89   13.30
  -5   8  11   72.99   15.90
  -4   8  11   -3.10    3.00
  -4   8  11    5.20    6.70
  -4   8  11   -2.00    3.10
  -3   8  11   19.00    7.00
  -3   8  11   22.60    5.40
  -3   8  11   34.80   12.60
  -3   8  11   25.40    8.40
  -2   8  11  162.48   13.90
  -2   8  11  192.08   16.80
  -2   8  11  145.49   16.30
  -2   8  11  190.28   21.10
   1  -8 -11  141.69   13.10
  -1   8  11  118.89   12.80
  -1   8  11  139.79   17.80
  -1   8  11  131.99   15.80
   0  -8 -11   13.20    6.00
   0   8  11   20.50    6.60
   0   8  11   19.20    8.00
   0   8  11   18.10    8.30
  -1  -8 -11   -0.20    3.50
   1   8  11    6.90    4.10
   1   8  11    3.30    4.50
   1   8  11    1.30    3.70
  -2  -8 -11   49.40   11.20
   2   8  11   50.19   13.50
   2   8  11   39.30    7.80
   2   8  11   57.29   13.40
  -3  -8 -11   91.79   13.20
   3   8  11   96.39   14.80
   3   8  11   87.69   18.70
   3   8  11  105.19    9.80
  -4  -8 -11   75.09   15.20
   4   8  11   49.00    6.50
   4   8  11   55.99   13.50
   4   8  11   90.19   17.00
  -5  -8 -11    1.20    4.10
   5   8  11    4.80    2.70
   5   8  11   -5.30    3.60
   5   8  11    2.50    4.80
  -6  -8 -11    0.60    4.30
   6   8  11    2.50    4.90
   6   8  11    2.80    2.30
   6   8  11   10.60    6.70
  -7  -8 -11   54.69   14.00
   7   8  11   78.79   17.70
   7   8  11   80.79   16.00
   7   8  11   74.59    6.20
  -8  -8 -11    7.10    6.60
   8   8  11   26.90   12.90
   8   8  11    4.10    5.40
  -9  -8 -11    5.50    7.20
   9   8  11    5.60    5.80
   9   8  11    3.70    6.30
   9   8  11    2.90    7.40
  10   8  11    1.10    5.40
  10   8  11    5.30    9.40
  10   8  11   11.70    9.30
  11   8  11    5.20    8.40
  11   8  11   15.70   18.30
  11   8  11   -2.00    3.80
  -8   9  11    5.20    7.60
  -7   9  11   50.39   13.70
  -7   9  11   57.09   15.80
  -6   9  11   32.30   12.40
  -6   9  11   36.60   11.50
  -5   9  11   13.50    8.10
  -5   9  11   17.20    6.50
  -5   9  11   13.20    7.80
  -4   9  11   19.70    8.40
  -4   9  11   22.80   10.10
  -4   9  11   16.80    7.10
  -3   9  11   14.30    6.80
  -3   9  11    8.00    4.20
  -3   9  11   16.40    7.30
  -3   9  11   35.50   12.20
   2  -9 -11   89.79   10.00
  -2   9  11   82.59   17.40
  -2   9  11   83.99   11.90
  -2   9  11   93.79   13.00
   1  -9 -11   20.10    6.40
  -1   9  11   37.20    9.80
  -1   9  11   18.00    8.20
  -1   9  11   19.60    8.50
   0  -9 -11   14.30    6.00
   0   9  11    7.50    4.70
   0   9  11    9.80   11.60
   0   9  11   21.10    8.50
  -1  -9 -11   82.69   11.90
   1   9  11   60.69    9.10
   1   9  11   91.99   26.20
   1   9  11   74.09   15.20
  -2  -9 -11   21.90    8.30
   2   9  11   25.80   11.00
   2   9  11   12.10    5.30
   2   9  11   13.80    6.80
  -3  -9 -11  106.39   14.40
   3   9  11  153.88   18.70
   3   9  11   99.09   10.50
   3   9  11  114.69   27.50
  -4  -9 -11   -3.30    3.00
   4   9  11   -1.30    5.20
   4   9  11   13.00    8.00
   4   9  11    7.30    4.10
  -5  -9 -11    8.30    6.60
   5   9  11    6.10    9.90
   5   9  11   -1.60    5.10
   5   9  11    2.30    2.80
  -6  -9 -11   -3.90    3.40
   6   9  11   -4.50    3.30
   6   9  11   -2.50    4.10
   6   9  11   -1.80    1.80
  -7  -9 -11   17.90    9.40
   7   9  11    5.40    3.10
   7   9  11   18.30    9.20
   7   9  11    4.60    6.90
  -8  -9 -11   76.19   17.20
   8   9  11   92.49   15.10
   8   9  11   66.39   16.50
  -9  -9 -11    0.40    6.00
   9   9  11   -1.40    4.80
   9   9  11    5.90    8.00
 -10  -9 -11    0.10    6.30
  10   9  11   -1.00    3.90
  10   9  11   -0.90    7.60
  10   9  11    5.70    8.70
  11   9  11   12.50    8.00
  11   9  11   -0.30    7.60
  11   9  11    3.30    7.10
  -7  10  11    1.40    6.30
  -7  10  11    4.70    7.60
  -6  10  11    8.60    6.90
  -6  10  11   22.00   10.10
  -5  10  11   15.80    9.00
  -5  10  11   13.90    7.70
  -4  10  11   17.30    9.30
  -4  10  11   44.30   11.80
  -4  10  11    7.40    5.10
   3 -10 -11  103.19   10.10
  -3  10  11  119.79   18.20
  -3  10  11  105.09   13.10
  -3  10  11   90.29   13.60
  -2  10  11   37.70   11.90
  -2  10  11   36.20    9.30
  -2  10  11   37.70   10.20
   1 -10 -11   59.59   11.60
  -1  10  11   60.49   14.80
  -1  10  11   45.10   12.00
  -1  10  11   47.70   10.30
   0 -10 -11   18.90    7.50
   0  10  11   20.10    8.70
   0  10  11    0.10    4.60
  -1 -10 -11   33.10   10.00
   1  10  11   29.90    8.10
   1  10  11   36.10   11.40
   1  10  11   28.50    9.80
  -2 -10 -11   84.29   12.80
   2  10  11   97.59   19.40
   2  10  11   91.49   11.30
   2  10  11   88.79   17.80
  -3 -10 -11    8.30    6.50
   3  10  11    3.70    3.80
   3  10  11    0.80    5.40
   3  10  11   -1.90    4.60
  -4 -10 -11    7.00    6.70
   4  10  11    6.00    3.90
   4  10  11   -2.20    3.90
   4  10  11    3.90    5.80
  -5 -10 -11   -4.00    2.70
   5  10  11   -0.10    5.10
   5  10  11    2.40    5.30
   5  10  11   -0.90    2.30
  -6 -10 -11   45.60   12.90
   6  10  11   56.59   13.80
   6  10  11   49.90   15.30
   6  10  11   40.90    8.00
  -7 -10 -11    7.90    7.90
   7  10  11    2.70    3.50
   7  10  11    5.30    7.60
   7  10  11    6.60    6.60
  -8 -10 -11   47.60   14.30
   8  10  11   46.00   14.90
   8  10  11   51.89   15.60
  -9 -10 -11    3.30    6.60
   9  10  11   -1.80    4.80
   9  10  11    3.30    6.40
  10  10  11   10.40   13.20
  10  10  11   -4.70    4.10
  -6  11  11    3.60    7.60
  -6  11  11    1.20    5.90
  -5  11  11    1.50    5.60
  -5  11  11    5.50    6.20
  -4  11  11   29.20   12.70
  -4  11  11   29.90   10.30
  -3  11  11   48.60   10.50
  -3  11  11   86.39   18.40
  -3  11  11   84.69   13.40
   2 -11 -11   18.80    6.70
  -2  11  11   20.20    8.20
  -2  11  11   38.80   13.30
  -2  11  11   33.60   10.00
   1 -11 -11    0.90    3.50
  -1  11  11    5.30    5.50
  -1  11  11   -2.30    3.40
  -1  11  11   -4.80    4.50
   0 -11 -11   36.00   10.00
   0  11  11   77.19   18.60
   0  11  11   26.50    9.60
   0  11  11   17.60    7.10
  -1 -11 -11   46.80   11.40
   1  11  11   31.20    9.20
   1  11  11   23.80   10.50
   1  11  11   35.70   11.70
  -2 -11 -11    0.40    4.90
   2  11  11   17.70   10.30
   2  11  11   25.80    9.90
   2  11  11    5.20    4.40
  -3 -11 -11   14.20    7.80
   3  11  11   29.70   10.30
   3  11  11   20.20   10.70
   3  11  11    9.40    5.40
  -4 -11 -11    3.20    5.60
   4  11  11   -2.00    4.90
   4  11  11    0.10    3.70
   4  11  11   -0.90    2.80
  -5 -11 -11   13.60    8.80
   5  11  11    8.80    6.60
   5  11  11   17.70    8.40
   5  11  11    3.20    3.60
  -6 -11 -11   14.90    7.40
   6  11  11    6.20    6.90
   6  11  11   10.10    4.50
   6  11  11    8.80    7.50
  -7 -11 -11   43.10   12.40
   7  11  11   52.29    8.30
   7  11  11   84.59   17.90
   7  11  11   64.19   17.40
  -8 -11 -11    6.50    7.30
   8  11  11    2.00    6.80
   8  11  11   -2.70    4.80
  -9 -11 -11   -3.70    4.60
   9  11  11    0.60    5.00
   9  11  11    1.30    5.60
  -4  12  11   43.70   14.50
  -4  12  11   67.39   14.90
  -3  12  11   25.60    9.60
  -3  12  11   20.30   10.40
   2 -12 -11   17.60    7.00
  -2  12  11   31.20    9.90
  -2  12  11   15.40    7.40
  -2  12  11   26.50   11.80
   1 -12 -11   37.90   10.60
  -1  12  11   50.49   11.90
  -1  12  11   51.49   12.20
  -1  12  11   65.49   17.80
   0 -12 -11   20.30    8.00
   0  12  11   15.30    9.60
   0  12  11   42.60   11.80
   0  12  11   18.40    7.60
  -1 -12 -11   65.69   13.80
   1  12  11   78.19   18.20
   1  12  11   77.59   16.00
   1  12  11   38.20   10.20
  -2 -12 -11   17.20   13.70
   2  12  11    5.90    6.40
   2  12  11    7.50    5.40
   2  12  11   12.40    9.00
  -3 -12 -11    0.20    4.50
   3  12  11   13.90    9.10
   3  12  11   -0.80    4.60
   3  12  11    5.20    5.00
  -4 -12 -11   -0.60    5.00
   4  12  11   13.00    8.50
   4  12  11    2.80    5.20
   4  12  11    4.60    4.20
  -5 -12 -11    4.60    6.20
   5  12  11    9.00    8.70
   5  12  11    4.60    6.90
   5  12  11   10.40    5.90
  -6 -12 -11    8.80    8.10
   6  12  11   15.80    9.30
   6  12  11   21.10    6.90
   6  12  11   17.20    9.70
  -7 -12 -11   33.30   12.40
   7  12  11   52.39   16.60
   7  12  11   39.10    8.90
   7  12  11   62.09   16.20
  -8 -12 -11    0.10    5.20
   8  12  11   -2.20    4.80
  -3  13  11    8.50    8.00
  -2  13  11    5.10    6.20
  -2  13  11   12.30    8.60
   1 -13 -11    6.50    6.20
  -1  13  11   11.30    7.80
  -1  13  11    1.30    4.80
  -1  13  11    4.10    4.70
   0  13  11   20.20    8.50
   0  13  11   45.40   13.00
   0  13  11   14.40    8.70
  -1 -13 -11    4.30    6.00
   1  13  11   13.20    7.20
   1  13  11   13.20    6.60
   1  13  11    5.50    7.00
  -2 -13 -11    5.90    6.00
   2  13  11   -0.90    3.20
   2  13  11    3.40    5.90
   2  13  11    0.60    6.30
  -3 -13 -11    9.20    7.10
   3  13  11    0.30    3.60
   3  13  11   11.60    9.30
   3  13  11    6.60    6.50
  -4 -13 -11    9.90    8.10
   4  13  11   22.60   10.30
   4  13  11   13.20    6.30
   4  13  11    6.00    7.30
  -5 -13 -11   15.00    9.30
   5  13  11   26.20   11.60
   5  13  11   26.10    8.40
   5  13  11    8.80    8.00
  -6 -13 -11   32.20   11.80
   6  13  11   24.80   11.90
   6  13  11   30.60    8.90
   7  13  11   -2.80    4.60
   7  13  11    4.40    5.00
   7  13  11   -3.10    4.30
   0 -14 -11   16.00    8.70
   0  14  11   20.90    9.30
   0  14  11   26.90   11.50
  -1 -14 -11    1.80    5.30
   1  14  11    5.80    5.70
   1  14  11    2.10    5.70
   1  14  11    2.60    7.00
  -2 -14 -11   24.70   10.20
   2  14  11    9.10    8.70
   2  14  11    4.80    7.50
   2  14  11    8.40    7.10
  -3 -14 -11   24.50   10.80
   3  14  11    6.10    5.90
   3  14  11   21.20   10.00
   3  14  11   18.20   10.20
  -4 -14 -11   26.00   11.10
   4  14  11   37.80   12.90
   4  14  11   29.50    9.80
   4  14  11   76.09   19.20
  -4  -9  12    7.70    8.00
  -4  -9  12   13.50   10.20
  -4  -9  12   20.90    8.80
  -3  -9  12   38.80   15.70
  -3  -9  12   30.50   13.00
  -2  -9  12   41.20   19.60
  -2  -9  12   54.79   16.00
  -1  -9  12    5.50    8.50
  -1  -9  12   12.70    9.70
   0  -9  12   -1.10    6.10
   0  -9  12    2.20    7.90
   1  -9  12   -3.90    4.60
  -6  -8  12    8.80    6.80
  -6  -8  12    7.40    8.40
  -6  -8  12   15.20    8.90
  -5  -8  12   20.70    8.90
  -5  -8  12   24.40   21.50
  -5  -8  12    8.50    8.30
  -4  -8  12    3.00    6.10
  -4  -8  12   -1.30    3.90
  -4  -8  12    3.90    6.50
  -3  -8  12   48.00   15.40
  -3  -8  12   33.10   11.80
  -3  -8  12   46.30   11.20
  -2  -8  12   57.19   17.10
  -2  -8  12   33.80    9.20
  -2  -8  12   42.50   13.60
  -1  -8  12   31.90   12.80
  -1  -8  12   -0.20    5.20
   0  -8  12   10.40    9.30
   0  -8  12    8.20    8.50
   1  -8  12   74.09   19.30
   1  -8  12   71.79   19.80
   2  -8  12    1.80    7.90
   2  -8  12    8.00    8.80
   3  -8  12   -1.20    8.60
   3  -8  12    2.30    6.10
   4  -8  12   -1.60    7.40
   4  -8  12   -1.40    4.90
  -7  -7  12    3.50    5.60
  -7  -7  12    8.80    6.90
  -7  -7  12   14.90   12.50
  -6  -7  12   -1.80    4.50
  -6  -7  12   -1.00    4.90
  -6  -7  12    1.50    5.40
  -5  -7  12   -0.70    4.30
  -5  -7  12    4.20    6.40
  -4  -7  12   35.60   11.00
  -4  -7  12   40.00   12.80
  -4  -7  12   45.00   14.40
  -3  -7  12   36.60   11.90
  -3  -7  12   33.10    9.50
  -3  -7  12   54.69   15.30
  -2  -7  12    1.30    3.90
  -2  -7  12   -1.40    6.50
  -2  -7  12    3.10    6.80
  -1  -7  12    9.50    5.60
  -1  -7  12    3.10    7.50
  -1  -7  12    2.90    6.90
   0  -7  12   74.09   18.10
   0  -7  12   82.39   16.60
   0  -7  12   73.69   19.00
   1  -7  12   75.89   18.50
   1  -7  12   52.19   17.30
   2  -7  12   69.49   19.20
   2  -7  12   92.79   20.90
   3  -7  12   -3.80    4.90
   3  -7  12    0.70    5.30
   4  -7  12   -1.50    6.50
   4  -7  12    4.10    6.60
   5  -7  12    4.40    6.40
  -8  -6  12    1.70   14.00
  -8  -6  12   13.10    8.80
  -7  -6  12    0.10    4.70
  -7  -6  12    8.20   11.00
  -7  -6  12    2.20    5.50
  -6  -6  12   39.40   11.60
  -6  -6  12   26.60   11.90
  -6  -6  12   42.70   11.70
  -5  -6  12   15.80    7.70
  -5  -6  12    6.70    6.70
  -5  -6  12   25.10    9.60
  -4  -6  12   26.20   10.00
  -4  -6  12   21.90    8.40
  -4  -6  12   35.70   13.10
  -3  -6  12    5.80    6.60
  -3  -6  12   10.40    6.60
  -3  -6  12   30.30   12.20
  -2  -6  12   14.40    6.50
  -2  -6  12    9.60    8.60
  -2  -6  12   13.50    8.80
  -1  -6  12   10.00    8.90
  -1  -6  12   13.00    6.50
  -1  -6  12   25.50   17.50
   0  -6  12   47.50    9.40
   0  -6  12   61.49   15.90
   0  -6  12   76.89   18.00
   1  -6  12   41.00    8.00
   1  -6  12   56.09   16.80
   1  -6  12   45.10   14.70
   2  -6  12   28.70   11.90
   3  -6  12   18.60   11.40
   3  -6  12    0.30    7.60
   4  -6  12    4.40    7.20
   4  -6  12    6.20    7.10
   5  -6  12   -2.40    7.60
   5  -6  12   -1.10    4.70
   6  -6  12   -2.50    4.60
   6  -6  12   -2.70    7.10
  -9  -5  12    2.80    9.10
  -9  -5  12   10.60   11.60
  -8  -5  12   13.40    8.40
  -8  -5  12   16.10   11.00
  -7  -5  12    3.90    6.10
  -7  -5  12   14.30    8.50
  -7  -5  12   13.50    6.70
  -6  -5  12    1.20    4.20
  -6  -5  12   11.90    9.50
  -6  -5  12   19.60    9.00
  -5  -5  12  136.99   17.10
  -5  -5  12  121.59   15.20
  -5  -5  12  153.98   21.50
  -4  -5  12   44.60   11.90
  -4  -5  12   53.49   12.90
  -4  -5  12   31.20   10.80
  -3  -5  12   40.10   14.00
  -3  -5  12   13.00    6.80
  -3  -5  12    2.20    5.10
  -2  -5  12    4.70    4.50
  -2  -5  12   -2.20    4.50
  -2  -5  12   13.20    8.60
  -1  -5  12   99.79   19.60
  -1  -5  12   71.39   18.90
  -1  -5  12   70.29   10.60
   0  -5  12   -0.10    5.90
   0  -5  12    3.20    3.70
   0  -5  12    6.30    7.30
   1  -5  12   52.79    8.10
   1  -5  12   46.50   13.90
   2  -5  12   11.00    8.10
   2  -5  12   -0.60    4.70
   2  -5  12   -0.50    2.50
   3  -5  12   10.90    9.00
   3  -5  12   10.80   10.60
   4  -5  12   79.89   19.30
   4  -5  12   78.49   16.70
   5  -5  12   12.50    8.60
   5  -5  12   23.30   12.10
   6  -5  12   16.20    9.80
   6  -5  12    4.30    6.20
   7  -5  12   -0.20    5.10
   7  -5  12   -6.70    5.60
  -9  -4  12    4.90    6.60
  -9  -4  12    0.40    5.30
  -8  -4  12   24.70   12.10
  -8  -4  12   26.50   10.30
  -7  -4  12    3.40    6.50
  -7  -4  12   -0.10    4.30
  -7  -4  12    2.80    4.20
  -6  -4  12    1.50    4.50
  -6  -4  12   -1.60    4.50
  -6  -4  12   -0.20    3.90
  -5  -4  12   54.39   17.30
  -5  -4  12   71.69   11.60
  -5  -4  12  121.59   23.90
  -4  -4  12   24.90    8.30
  -4  -4  12   14.60    8.40
  -4  -4  12   28.40    9.50
  -3  -4  12   -2.00    4.00
  -3  -4  12    7.30    5.70
  -3  -4  12    6.00    5.10
  -2  -4  12   57.59   16.30
  -2  -4  12   38.30    9.80
  -2  -4  12   62.39   14.40
  -1  -4  12    7.90    7.60
  -1  -4  12   13.40    9.80
  -1  -4  12   26.40    8.40
   0  -4  12  130.99   13.30
   0  -4  12  123.99   19.00
   0  -4  12  145.19   19.40
   1  -4  12    8.90    8.30
   1  -4  12   -0.30    3.20
   1  -4  12   -2.60    4.00
   2  -4  12    1.60    3.20
   2  -4  12    4.50    7.00
   2  -4  12   11.30    8.20
   3  -4  12    3.30    6.70
   3  -4  12    8.60    3.70
   3  -4  12   15.00    9.40
   4  -4  12   35.30   14.30
   4  -4  12   19.20    9.50
   5  -4  12   26.00   12.90
   5  -4  12   28.80   11.10
   6  -4  12   15.90   10.50
   6  -4  12   17.90    9.80
   7  -4  12    2.80    9.00
   7  -4  12   -0.50    5.50
   8  -4  12   23.40   11.50
   8  -4  12   -3.40    6.30
 -10  -3  12   17.40    9.80
 -10  -3  12   28.80   11.60
  -9  -3  12   15.00    8.90
  -9  -3  12   16.30   10.20
  -8  -3  12    7.80    7.70
  -8  -3  12   11.90    9.30
  -7  -3  12   43.40   12.00
  -7  -3  12   23.30   10.10
  -6  -3  12   24.50   10.60
  -6  -3  12   30.60    7.30
  -6  -3  12   42.90   11.90
  -5  -3  12    5.20    6.50
  -5  -3  12    5.30    6.50
  -5  -3  12    7.60    5.00
  -4  -3  12    2.60    5.20
  -4  -3  12   -1.40    3.10
  -4  -3  12    5.90    6.70
  -3  -3  12    4.50    9.00
  -3  -3  12   -0.50    3.80
  -3  -3  12    1.80    3.70
  -2  -3  12   67.39   14.80
  -2  -3  12   54.19   17.60
  -2  -3  12   42.20   10.60
  -1  -3  12   58.09   17.00
  -1  -3  12   39.80   10.10
  -1  -3  12   51.99   13.30
   0  -3  12   39.30   11.30
   0  -3  12   33.40    8.80
   0  -3  12   36.60   12.70
   1  -3  12    5.50    4.10
   1  -3  12    6.60    7.20
   1  -3  12    4.50    6.80
   2  -3  12    2.00    2.80
   2  -3  12    3.20    5.60
   2  -3  12   -0.30    4.90
   3  -3  12   94.59   20.60
   3  -3  12  102.09   25.70
   3  -3  12   98.79    9.80
   4  -3  12   47.40   14.70
   4  -3  12   29.30   11.80
   4  -3  12   27.60    5.60
   5  -3  12    6.30    7.10
   5  -3  12   34.80   12.80
   6  -3  12    1.10    5.50
   6  -3  12   -4.40    4.90
   7  -3  12    9.40    8.20
   7  -3  12    2.20    7.30
   8  -3  12   39.00   15.70
   8  -3  12   71.19   18.10
   9  -3  12    1.80   11.40
   9  -3  12   -0.80    5.30
 -10  -2  12   24.90   11.60
  -9  -2  12  130.19   19.70
  -9  -2  12   89.19   20.00
  -8  -2  12   -0.50    4.90
  -8  -2  12    0.00    4.60
  -7  -2  12   52.29   13.50
  -7  -2  12   36.40   12.60
  -6  -2  12    8.90    6.90
  -6  -2  12    8.90    4.00
  -6  -2  12   19.40    9.20
  -5  -2  12   36.10    9.90
  -5  -2  12   32.90    7.60
  -5  -2  12   20.50    9.50
  -4  -2  12   22.60    9.50
  -4  -2  12   12.20    7.00
  -4  -2  12   26.20    7.60
  -3  -2  12   49.40   13.90
  -3  -2  12   40.30   10.40
  -3  -2  12   35.40   11.40
  -2  -2  12   24.80   10.40
  -2  -2  12   33.00   10.10
  -2  -2  12   53.49   12.50
  -1  -2  12  135.99   14.80
  -1  -2  12  131.29   16.20
  -1  -2  12  122.99   18.40
   0   2 -12    3.80    3.20
   0  -2  12   16.20    7.80
   0  -2  12    5.20    4.90
   0  -2  12    7.00    7.30
  -1   2 -12    4.90    2.00
   1  -2  12    6.40    6.40
   1  -2  12    2.60    4.50
   1  -2  12    3.40    3.70
   2  -2  12   76.49   10.90
   2  -2  12  113.79   17.50
   2  -2  12   73.99   17.00
   3  -2  12   11.10    7.80
   3  -2  12   18.20    9.10
   3  -2  12   11.50    5.10
   4  -2  12    7.40    9.40
   4  -2  12   28.10   11.20
   4  -2  12   16.50    5.40
   5  -2  12    0.50    2.40
   5  -2  12    1.80    6.60
   5  -2  12    2.40    6.90
   6  -2  12    2.90    6.40
   6  -2  12    2.80    7.20
   7  -2  12    0.60    7.90
   7  -2  12   26.30   12.40
   8  -2  12   52.79   14.60
   8  -2  12   28.70   13.70
   9  -2  12   14.40   11.50
   9  -2  12    1.30    5.80
  10  -2  12   -9.10    6.20
  10  -2  12    8.90    8.90
 -10  -1  12    5.10    7.90
 -10  -1  12    1.40    6.20
  -9  -1  12   38.60   13.60
  -9  -1  12   35.80   12.50
  -8  -1  12   14.70    8.20
  -8  -1  12   24.50    9.90
  -7  -1  12   49.20   13.70
  -7  -1  12  100.89   19.40
  -6  -1  12    1.50    4.20
  -5  -1  12   62.89    7.60
  -5  -1  12   45.90   11.60
  -5  -1  12   43.60   13.40
  -4  -1  12   33.00   10.80
  -4  -1  12   17.90    8.20
  -4  -1  12   41.20    8.50
  -3  -1  12    6.50    5.50
  -3  -1  12    4.80    6.20
  -3  -1  12    5.40    6.10
  -2  -1  12  170.28   17.40
  -2  -1  12  161.88   20.60
  -1  -1  12   36.60   12.10
  -1  -1  12   31.30    9.30
  -1  -1  12   43.90   10.30
   0  -1  12   28.60   11.10
   0  -1  12   10.90    6.50
   0  -1  12    3.70    4.90
   1  -1  12    8.10    4.70
   1  -1  12   -1.30    4.60
   1  -1  12   14.10    7.90
   2  -1  12   75.49   10.20
   2  -1  12   68.99   15.30
   2  -1  12   61.29   14.20
   3  -1  12   83.89   17.60
   3  -1  12  106.69   17.10
   3  -1  12   74.99    9.70
   4  -1  12    5.00    3.70
   4  -1  12   27.60   11.40
   4  -1  12    7.90    7.40
   5  -1  12   35.00   13.10
   5  -1  12   22.30    6.10
   6  -1  12   35.30   12.10
   6  -1  12   24.30    5.80
   6  -1  12   27.00   12.80
   7  -1  12   50.29   18.20
   7  -1  12   84.69   19.70
   8  -1  12   26.80   13.10
   8  -1  12   24.50   10.80
   9  -1  12   -5.40    5.10
   9  -1  12    2.70    5.50
  10  -1  12   16.10    9.80
 -10   0  12    2.80    7.20
 -10   0  12    9.90    7.90
  -9   0  12  135.49   19.90
  -9   0  12  104.09   17.20
  -8   0  12    2.10    4.60
  -8   0  12   12.40    8.40
  -7   0  12   31.20   11.90
  -6   0  12    0.30    4.90
  -6   0  12   12.40    8.30
  -5   0  12   -0.70    2.80
  -5   0  12   -1.40    3.30
  -5   0  12    3.10    5.00
  -4   0  12    6.40    4.10
  -4   0  12    4.20    5.80
  -4   0  12   20.50    9.60
  -3   0  12   45.20    9.20
  -3   0  12   29.10    9.30
  -3   0  12   57.79   15.00
  -2   0  12  128.39   15.30
  -2   0  12   68.99   10.70
  -2   0  12  125.69   17.50
  -1   0  12   33.80   11.80
  -1   0  12   18.50    7.60
  -1   0  12   10.30    6.80
   0   0 -12   -0.50    1.60
   0   0  12    1.70    4.90
   0   0  12    6.00    6.00
   0   0  12    0.10    3.20
   1   0  12  165.08   15.50
   1   0  12  181.58   21.10
   1   0  12  169.08   18.50
   2   0  12    3.20    3.30
   2   0  12   -3.80    3.60
   2   0  12   -5.40    2.90
   3   0  12  101.69   19.60
   3   0  12   96.29   19.50
   3   0  12   48.70   10.20
   4   0  12    5.30    5.70
   4   0  12   -2.90    3.40
   5   0  12    6.50    3.90
   5   0  12    9.10    8.60
   5   0  12    6.00    7.60
   6   0  12    5.30    6.40
   6   0  12    9.00    8.70
   6   0  12    5.40    3.80
   7   0  12   75.89    8.90
   7   0  12  123.89   19.20
   7   0  12   53.29   15.90
   8   0  12   36.50   14.50
   8   0  12   31.70   12.20
   9   0  12    7.10    8.10
   9   0  12    3.70    6.50
  10   0  12    0.10    6.80
  10   0  12   -3.40    6.20
 -10   1  12    6.90    7.40
 -10   1  12    0.20    6.40
  -9   1  12  253.17   26.30
  -9   1  12  189.78   21.70
  -8   1  12    7.10    6.80
  -7   1  12   15.70    8.60
  -7   1  12   16.50    9.20
  -6   1  12    2.80    6.10
  -6   1  12   17.50    8.20
  -5   1  12    1.80    5.70
  -5   1  12    3.50    5.70
  -4   1  12   25.50    5.30
  -4   1  12   28.50    9.80
  -4   1  12   25.80    5.50
  -4   1  12   47.70   13.10
  -3   1  12  152.38   18.80
  -3   1  12  120.69   11.60
  -3   1  12  153.88   17.50
  -2   1  12   23.20    8.30
  -2   1  12    9.30    5.20
  -2   1  12    8.60    7.30
  -1   1  12   31.90   11.50
  -1   1  12   36.00    9.80
  -1   1  12   31.50    8.70
   0   1  12  142.19   18.80
   0   1  12  166.88   17.10
   0   1  12  171.98   16.70
   1   1  12  137.59   16.40
   1   1  12  114.59   17.00
   1   1  12  109.09   13.40
   2   1  12   67.19   14.10
   2   1  12  101.29   16.10
   2   1  12   76.09   11.00
   3   1  12    1.70    5.50
   3   1  12   -0.30    4.70
   3   1  12    4.50    4.10
   4   1  12    8.20    5.20
   4   1  12   -6.30    3.60
   4   1  12    8.30    7.30
   5   1  12   22.40    7.30
   5   1  12   51.39   15.00
   5   1  12   50.39   14.30
   6   1  12   -5.70    8.50
   6   1  12   15.30    6.20
   6   1  12    4.50    6.70
   7   1  12   -0.50    3.40
   7   1  12    2.00    5.20
   7   1  12   -2.40    5.60
   8   1  12   30.90   12.30
   8   1  12    9.30    9.40
   9   1  12   16.50   11.60
   9   1  12   34.50   12.70
  10   1  12   14.80    9.60
  10   1  12   29.80   13.80
  11   1  12    3.30    7.50
  11   1  12   -8.00    6.50
 -10   2  12   -1.20    5.30
 -10   2  12   -1.00    5.60
  -9   2  12  163.38   21.60
  -9   2  12  173.58   27.90
  -8   2  12    0.20    4.10
  -8   2  12    1.50    4.70
  -8   2  12    0.00    4.50
  -7   2  12    5.50    6.10
  -7   2  12    2.50    5.30
  -6   2  12    7.10    7.40
  -6   2  12   -3.70    3.80
  -6   2  12    9.70    5.80
  -5   2  12    4.40    6.30
  -5   2  12    5.60    5.00
  -5   2  12    4.00    5.70
  -4   2  12  261.27   23.30
  -4   2  12  216.18   10.40
  -4   2  12  216.48   10.60
  -4   2  12  208.88   17.10
  -4   2  12  270.07   24.40
  -3   2  12   52.69    7.10
  -3   2  12   50.59    7.40
  -3   2  12   52.89   12.60
  -3   2  12   52.69   13.10
  -2   2  12   58.19   13.20
  -2   2  12   64.19   14.50
  -2   2  12   55.19   10.10
  -1   2  12   10.50    5.90
  -1   2  12    3.10    5.30
  -1   2  12   -2.30    3.30
   0   2  12   25.80    8.00
   0   2  12   21.90   10.20
   1   2  12  102.49   13.30
   1   2  12  112.49   17.00
   1   2  12  113.49   14.80
   2   2  12    8.80    6.70
   2   2  12   31.20   11.60
   2   2  12    6.40    5.10
   3   2  12    4.60    5.90
   3   2  12   -0.90    3.30
   3   2  12    4.00    5.20
   4   2  12   -4.90    3.10
   4   2  12   -4.80    3.00
   4   2  12   -0.70    3.00
   5   2  12   40.00   13.30
   5   2  12   33.50   12.90
   5   2  12   41.30   10.20
   6   2  12   76.59   18.80
   6   2  12   61.39   12.00
   6   2  12   13.60   12.40
   7   2  12    3.60    6.10
   7   2  12    7.00    4.90
   7   2  12   22.10   11.30
   8   2  12    4.60    8.70
   8   2  12   12.20    8.90
   8   2  12    0.60    3.30
   9   2  12   17.20    6.90
   9   2  12   14.50   10.40
   9   2  12   20.90   10.10
  10   2  12   23.70   12.10
  10   2  12   22.70   13.10
  11   2  12   19.80   14.30
  11   2  12   47.20   16.20
 -10   3  12  152.28   18.30
 -10   3  12  127.69   18.90
  -9   3  12   55.49   13.90
  -9   3  12   44.80   14.00
  -9   3  12   51.19   12.70
  -8   3  12    2.50    5.70
  -8   3  12    9.20    7.10
  -8   3  12    2.90    5.70
  -7   3  12    4.50    5.90
  -7   3  12    0.50    4.40
  -7   3  12   17.30    9.20
  -6   3  12   29.60    9.50
  -6   3  12   35.20   11.30
  -6   3  12   50.99   14.10
  -5   3  12   22.00    8.90
  -5   3  12   32.40   11.10
  -5   3  12   17.60    7.10
  -4   3  12   63.39   10.10
  -4   3  12   93.39   14.50
  -4   3  12   82.69   16.60
  -3   3  12   61.29   11.20
  -3   3  12   38.40    6.10
  -3   3  12   39.50   11.20
  -3   3  12   43.00    6.30
  -3   3  12   43.80   11.50
  -2   3  12    3.70    4.50
  -2   3  12    1.10    5.10
  -2   3  12   12.90    5.40
  -2   3  12    6.30    3.80
  -1   3  12  152.08   14.60
  -1   3  12  122.19   16.90
  -1   3  12  136.09   11.40
  -1   3  12  160.68   17.50
   0   3  12    4.60    5.50
   0   3  12   16.20    7.80
   0   3  12    2.90    4.70
   1   3  12   33.60   10.00
   1   3  12   50.59   13.60
   1   3  12   60.49   12.30
   2   3  12    5.90    5.10
   2   3  12   -1.30    4.70
   2   3  12    8.90    6.40
   3   3  12    8.20    8.10
   3   3  12   -1.70    2.80
   3   3  12    5.20    5.90
   4   3  12   68.69   13.40
   4   3  12   75.19   17.50
   4   3  12   73.69   16.60
   5   3  12   23.30    9.50
   5   3  12   27.60   10.90
   5   3  12   53.29   11.30
   6   3  12   10.70    6.00
   6   3  12    8.50    9.30
   6   3  12   21.20   10.90
   7   3  12   43.60   13.30
   7   3  12   69.49   17.90
   7   3  12   77.49   11.10
   8   3  12   -0.40    3.50
   8   3  12    9.80    7.50
   8   3  12    7.10    7.80
   9   3  12   15.70   10.30
   9   3  12   19.30    8.00
   9   3  12   34.40   14.30
  10   3  12   26.00   12.60
  10   3  12    1.30    4.70
  10   3  12   25.00   13.30
  11   3  12   15.80   11.00
 -10   4  12   91.99   19.40
 -10   4  12   92.89   27.60
  -9   4  12   54.99   15.40
  -9   4  12   63.59   13.40
  -9   4  12   47.30   13.00
  -8   4  12    4.40    5.90
  -8   4  12    3.60    6.40
  -8   4  12    8.30    7.20
  -7   4  12   -0.80    4.50
  -7   4  12   19.60    9.80
  -7   4  12   11.80    6.80
  -6   4  12    1.70    5.10
  -6   4  12    8.20    7.90
  -6   4  12   -3.20    3.20
  -5   4  12   39.20   10.20
  -5   4  12   19.60    8.90
  -5   4  12   40.40   11.40
  -4   4  12   36.20    9.00
  -4   4  12   52.69   14.00
  -4   4  12   77.89   16.10
  -3   4  12    3.30    3.00
  -3   4  12   14.10    5.80
  -3   4  12    6.70    2.90
  -3   4  12   22.80    9.80
  -3   4  12   17.40    8.00
  -2   4  12  146.09   13.30
  -2   4  12  127.39   11.80
  -2   4  12  123.89   16.60
  -2   4  12  150.88   17.70
  -1   4  12   46.60    8.40
  -1   4  12   24.60   10.30
  -1   4  12   26.60    7.70
  -1   4  12   31.70   10.00
   0   4  12  163.18   17.80
   0   4  12  169.18   16.10
   0   4  12  122.79   16.80
   0   4  12  164.78   11.70
   1   4  12   13.10    7.20
   1   4  12    1.80    4.10
   1   4  12   12.00    6.50
   1   4  12    6.90    3.10
   2   4  12    5.20    5.20
   2   4  12   -0.60    4.20
   2   4  12    3.70    5.60
   3   4  12   -0.30    3.30
   3   4  12   11.10    6.70
   3   4  12    6.60    6.00
   4   4  12   33.30    9.70
   4   4  12   47.60   14.00
   4   4  12   37.60   12.40
   5   4  12   90.49   12.70
   5   4  12  109.99   17.50
   5   4  12  137.89   19.20
   6   4  12   86.99   18.30
   6   4  12   70.79   11.60
   6   4  12  104.69   20.10
   7   4  12    5.10    5.20
   7   4  12   11.80    9.50
   7   4  12   11.40    8.70
   8   4  12   29.40   14.10
   8   4  12   31.40   14.00
   8   4  12   17.80    7.20
   9   4  12   69.69   18.80
   9   4  12   75.19   20.30
   9   4  12   63.79   12.90
  10   4  12    5.00    9.00
  10   4  12   -4.90    6.00
  10   4  12    2.80    4.90
  11   4  12   -1.10    3.90
  11   4  12    2.30    6.10
  -9   5  12   36.50   13.00
  -9   5  12   47.60   13.70
  -9   5  12   21.80   11.80
  -8   5  12  233.38   23.40
  -8   5  12  243.98   20.90
  -8   5  12  275.87   27.70
  -7   5  12    0.90    4.60
  -7   5  12   -0.10    4.40
  -7   5  12   -4.90    3.90
  -6   5  12   52.39   13.60
  -6   5  12   56.59   13.00
  -5   5  12   -1.90    3.20
  -5   5  12    2.00    5.20
  -5   5  12   -0.30    3.30
  -4   5  12   25.70    8.80
  -4   5  12   78.69   16.20
  -4   5  12   66.39   10.50
  -3   5  12   -1.90    3.50
  -3   5  12    4.30    4.40
  -3   5  12    6.00    4.90
  -3   5  12   14.90    7.80
  -2   5  12    2.70    6.10
  -2   5  12   10.70    5.10
  -2   5  12   18.80    8.70
  -2   5  12   11.20    5.20
  -2   5  12   20.80    9.60
  -1   5  12  116.89   15.70
  -1   5  12  117.09   16.10
  -1   5  12   95.09   11.40
  -1   5  12   96.69   10.30
   0   5  12  186.38   17.20
   0   5  12  194.58   19.60
   0   5  12  199.98   13.70
   0   5  12  176.68   19.90
   1   5  12    7.50    6.50
   1   5  12   17.60    7.80
   1   5  12    9.50    6.90
   1   5  12    7.20    3.30
   2   5  12   24.20   10.00
   2   5  12   23.60    9.00
   2   5  12   11.20    3.50
   2   5  12   31.50   10.00
   3   5  12    9.40    5.90
   3   5  12    7.20    6.00
   3   5  12   10.30    7.80
   4   5  12   47.30   13.70
   4   5  12   55.59   12.30
   4   5  12   41.70   12.40
   5   5  12   23.30   10.60
   5   5  12   51.49   11.90
   5   5  12   51.49   14.50
   6   5  12    3.70    5.20
   6   5  12    4.00    4.90
   6   5  12    0.80    6.10
   7   5  12   11.90    6.30
   7   5  12   18.40    9.90
   7   5  12   11.50    8.10
   8   5  12   40.50   11.20
   8   5  12   38.70   13.90
   8   5  12   53.39   15.60
   9   5  12   78.29   12.80
   9   5  12   95.09   22.10
   9   5  12  100.69   21.80
  10   5  12    4.60    8.60
  10   5  12    6.70    7.60
  10   5  12    1.50    6.30
  11   5  12   46.10   26.80
  -9   6  12    8.90    7.80
  -8   6  12   36.70   11.40
  -8   6  12   25.10   11.10
  -8   6  12   20.60    8.10
  -7   6  12  164.58   21.30
  -7   6  12  114.79   16.40
  -7   6  12  138.79   15.50
  -6   6  12   23.40    9.80
  -6   6  12   12.50    7.00
  -6   6  12   30.50   10.50
  -5   6  12   17.90    8.70
  -5   6  12    9.60    7.00
  -5   6  12    3.40    4.70
  -4   6  12   63.09   15.50
  -4   6  12   67.99   14.10
  -4   6  12   51.39   11.10
  -3   6  12   24.50    8.80
  -3   6  12   33.50    8.80
  -3   6  12   28.20   12.40
  -2   6  12    1.50    4.30
  -2   6  12    4.20    4.30
  -2   6  12    1.00    4.20
  -2   6  12    1.90    3.60
  -1   6  12  136.19   17.50
  -1   6  12   94.89   11.70
  -1   6  12   79.99   16.00
  -1   6  12   92.49   10.70
   0   6  12   23.20    9.00
   0   6  12   20.10    8.40
   0   6  12   24.00    9.20
   0   6  12   22.40    6.30
   1   6  12   -5.80    2.90
   1   6  12    4.70    5.20
   1   6  12   -0.90    2.00
   1   6  12    0.30    3.90
   2   6  12   87.69   16.80
   2   6  12   69.89   14.60
   2   6  12   61.89    6.80
   2   6  12   44.20   12.60
   3   6  12  148.29   19.40
   3   6  12  190.98   20.20
   3   6  12  151.78    9.00
   3   6  12  159.38   17.50
   4   6  12   10.20    6.70
   4   6  12   26.90   11.10
   4   6  12   16.70    8.70
   5   6  12   -3.50    4.00
   5   6  12    4.80    5.00
   6   6  12   -0.40    5.80
   6   6  12    4.00    5.20
   6   6  12   -5.00    4.50
   7   6  12   -0.40    6.60
   7   6  12   11.50    6.90
   7   6  12    1.20    6.40
   8   6  12   56.39   17.40
   8   6  12   65.49   18.60
   8   6  12   33.40   12.50
   9   6  12   51.49   16.10
   9   6  12   25.70    8.90
   9   6  12   55.79   17.60
  10   6  12   21.50    8.90
  10   6  12    2.40    7.80
  10   6  12    2.80    7.60
  11   6  12    0.20    5.30
  11   6  12   14.70   15.50
  11   6  12   15.30   12.90
  -8   7  12   40.60   12.40
  -8   7  12   37.30   14.60
  -7   7  12   32.70    9.30
  -7   7  12   39.10   11.60
  -7   7  12   26.80   11.30
  -6   7  12   13.30    6.80
  -6   7  12   11.10    7.00
  -6   7  12   14.90    9.20
  -5   7  12   -2.20    3.50
  -5   7  12   -2.10    4.80
  -5   7  12    5.80    5.70
  -4   7  12    7.30    6.40
  -4   7  12   13.80    7.10
  -4   7  12   16.90    7.40
  -3   7  12   22.60    5.10
  -3   7  12   47.60   10.40
  -3   7  12   34.90    9.80
  -3   7  12   30.90   11.40
  -2   7  12  108.49   11.10
  -2   7  12  130.99   16.50
  -2   7  12   81.09   17.20
  -2   7  12  109.99   12.60
  -1   7  12   -3.00    3.20
  -1   7  12    1.10    3.20
  -1   7  12    3.10    4.90
  -1   7  12   -0.30    3.30
   0   7  12   18.20    5.90
   0   7  12    7.20    7.00
   0   7  12   22.30    7.90
   0   7  12    7.70    5.80
   1   7  12   37.50   11.70
   1   7  12   39.60    7.60
   1   7  12   17.60    9.10
   1   7  12   15.80    7.10
   2   7  12  263.07   24.70
   2   7  12  237.78   14.80
   2   7  12  298.37   24.60
   2   7  12  231.58   22.00
   3   7  12   10.50    3.60
   3   7  12   24.20   10.10
   3   7  12   24.40   10.80
   3   7  12   21.90    8.90
   4   7  12   59.99   15.50
   4   7  12   87.29   18.40
   4   7  12   39.80    4.80
   4   7  12   61.79   14.80
   5   7  12    9.30    6.00
   5   7  12    7.20    6.60
   5   7  12    7.90    7.00
   6   7  12   19.90   14.10
   6   7  12    0.90    6.80
   6   7  12   14.30    9.30
   7   7  12   13.90   10.40
   7   7  12   12.00    7.70
   7   7  12    2.10    6.40
   8   7  12   19.20    8.50
   8   7  12   11.90    9.50
   8   7  12   22.70   11.90
   9   7  12    1.00    8.60
   9   7  12   25.40    9.40
   9   7  12    9.00    8.10
  10   7  12   -2.90    3.80
  10   7  12   -1.30    7.20
  10   7  12   -5.60    4.10
  11   7  12   -0.50    4.40
  11   7  12    8.50    9.60
  11   7  12   -4.70    5.10
  -8   8  12  103.29   24.60
  -8   8  12  107.09   31.60
  -7   8  12    7.10    7.40
  -7   8  12    2.80    6.20
  -6   8  12   16.40    8.40
  -6   8  12   23.50   11.60
  -6   8  12    4.40    5.20
  -5   8  12   16.70    7.40
  -5   8  12    7.10    7.40
  -5   8  12   18.10    8.40
  -4   8  12    6.70    5.20
  -4   8  12    0.50    5.80
  -3   8  12   46.90    6.50
  -3   8  12   64.09   15.20
  -3   8  12   56.19   13.00
  -3   8  12   47.70   10.80
  -2   8  12  114.39   13.40
  -2   8  12   99.99   16.10
  -2   8  12   73.59    9.70
  -2   8  12   93.79   14.10
  -1   8  12    3.40    3.80
  -1   8  12    0.40    4.60
  -1   8  12   -1.50    3.60
  -1   8  12    4.60    5.50
   0   8  12   14.50    8.10
   0   8  12   13.40    6.70
   0   8  12   19.50    6.60
   0   8  12   46.70   13.90
   1   8  12   31.00   10.40
   1   8  12   66.19   13.70
   1   8  12   46.10   14.00
   1   8  12   30.80    7.60
  -2  -8 -12   64.89   13.30
   2   8  12   50.09    7.40
   2   8  12   55.09   13.70
   2   8  12   21.20   11.20
   2   8  12   50.89   12.80
  -3  -8 -12   83.09   12.80
   3   8  12   76.29   17.40
   3   8  12   61.79   14.90
   3   8  12   51.89    7.30
   3   8  12   68.89   18.80
  -4  -8 -12   -0.10    3.90
   4   8  12    3.80    6.80
   4   8  12   -4.10    2.90
   4   8  12   -1.00    1.90
   4   8  12   24.00   17.20
  -5  -8 -12    6.70    6.50
   5   8  12   12.00    8.00
   5   8  12    4.80    2.70
   5   8  12    2.90    5.30
   5   8  12    5.40    7.20
  -6  -8 -12    2.70    5.80
   6   8  12    7.10    6.30
   6   8  12    6.60    7.40
   6   8  12    6.70    7.00
   7   8  12   78.69   19.00
   7   8  12   65.19   17.70
   7   8  12   69.19   14.90
   8   8  12   10.00   10.40
   8   8  12   -3.20    4.30
   8   8  12    9.50    7.80
   9   8  12    4.90    6.40
   9   8  12   12.70   10.90
   9   8  12    9.00    8.40
  10   8  12    8.30    7.00
  10   8  12   -2.70    6.00
  10   8  12    4.90   10.70
  -7   9  12    5.30    7.10
  -6   9  12    0.90    5.90
  -6   9  12   -2.60    4.30
  -5   9  12   22.90    7.90
  -5   9  12   38.10   13.60
  -5   9  12   14.30    8.20
  -4   9  12   -0.50    3.80
  -4   9  12    3.50    4.90
  -4   9  12    2.70    6.80
  -3   9  12   46.50   13.50
  -3   9  12   41.20   10.70
  -2   9  12   19.90    7.70
  -2   9  12   28.50   11.70
  -2   9  12   21.00    7.20
  -2   9  12   13.90    7.60
  -1   9  12    4.80    4.60
  -1   9  12    5.70    6.00
  -1   9  12   -0.80    4.50
  -1   9  12    4.10    4.20
   0  -9 -12   51.49   10.70
   0   9  12   41.00   12.00
   0   9  12   43.80    9.80
   0   9  12   49.10   13.70
  -1  -9 -12   12.30    5.90
   1   9  12    5.90    7.30
   1   9  12   33.60   10.50
   1   9  12   16.70    5.60
  -2  -9 -12   12.20    6.70
   2   9  12   13.00    8.30
   2   9  12    4.50    6.30
   2   9  12    6.20    4.30
  -3  -9 -12   12.10    6.20
   3   9  12   23.90   11.20
   3   9  12   32.60   11.50
   3   9  12   47.50    7.50
  -4  -9 -12   12.60    8.00
   4   9  12    7.50    7.00
   4   9  12    7.40    8.40
   4   9  12   -1.80    2.10
  -5  -9 -12   12.20    8.10
   5   9  12    2.60    2.70
   5   9  12    3.40    6.00
   5   9  12   -1.30    6.10
  -6  -9 -12   47.90   12.80
   6   9  12   41.60   13.60
   6   9  12   55.59   14.30
  -7  -9 -12    2.80    6.50
   7   9  12   14.40    9.20
   7   9  12   18.90   10.70
  -8  -9 -12   30.00   11.10
   8   9  12   41.60   14.80
   8   9  12   55.49   13.70
   8   9  12   50.29   16.40
   9   9  12    1.50    7.40
   9   9  12    3.40    6.30
   9   9  12    4.30    8.00
  10   9  12    5.50    6.50
  10   9  12    3.00    7.60
  10   9  12    1.80    7.90
  -6  10  12   12.80    7.90
  -5  10  12   -0.60    5.50
  -5  10  12   -0.40    5.50
  -4  10  12    2.00    5.00
  -4  10  12   10.00    8.50
  -4  10  12   20.90    8.10
  -3  10  12   87.89   18.70
  -3  10  12   38.20   10.40
  -3  10  12   56.79   13.20
  -2  10  12    7.80    6.00
  -2  10  12   18.30    7.50
  -2  10  12    8.70    7.40
  -2  10  12    7.10    6.00
   1 -10 -12   -1.60    3.00
  -1  10  12    2.60    4.80
  -1  10  12    4.60    6.20
  -1  10  12    3.70    6.60
   0 -10 -12   15.60    6.80
   0  10  12   28.10    9.50
   0  10  12   30.00   10.90
   0  10  12   36.30    9.60
  -1 -10 -12   74.99   12.10
   1  10  12  105.69   16.70
   1  10  12   93.59   18.50
   1  10  12  109.39   12.50
  -2 -10 -12   37.20   11.30
   2  10  12   30.20    8.00
   2  10  12   37.30   12.00
   2  10  12   48.40   13.10
  -3 -10 -12   11.80    6.80
   3  10  12   -5.00    3.70
   3  10  12    2.80    5.90
   3  10  12    9.80    4.90
  -4 -10 -12    4.60    5.20
   4  10  12    6.10    3.80
   4  10  12    2.40    4.60
   4  10  12    8.50    7.80
  -5 -10 -12   45.70   13.10
   5  10  12   21.60   10.00
   5  10  12   37.60    8.00
   5  10  12   33.90   11.70
  -6 -10 -12   29.20   11.50
   6  10  12   36.80   10.80
   6  10  12   31.20   12.60
   6  10  12   20.50    9.70
  -7 -10 -12   29.00   11.50
   7  10  12   37.70   14.80
   7  10  12   47.90   14.10
  -8 -10 -12   -1.10    4.80
   8  10  12    5.40    6.20
   8  10  12    7.30    7.90
  -9 -10 -12   -3.00    7.60
   9  10  12   -8.90    8.10
   9  10  12    8.20    7.20
   9  10  12   14.00   14.70
  -5  11  12   17.80   11.10
  -5  11  12   21.80    9.70
  -4  11  12    3.50    5.90
  -4  11  12   21.00   10.80
  -3  11  12   17.90   10.20
  -3  11  12    7.20    6.30
  -3  11  12   27.90    9.70
   2 -11 -12    3.20    5.20
  -2  11  12   -2.40    3.30
  -2  11  12   -0.60    6.10
  -2  11  12    0.80    5.00
   1 -11 -12   36.30    9.10
  -1  11  12   18.10    7.60
  -1  11  12   43.90   14.20
  -1  11  12   43.70   12.70
   0 -11 -12   11.10    6.50
   0  11  12    7.10    6.50
   0  11  12    2.40    5.10
   0  11  12   10.50    9.30
  -1 -11 -12   65.49   13.70
   1  11  12   53.99   10.90
   1  11  12   81.09   19.00
   1  11  12   27.30    9.70
  -2 -11 -12   -0.90    4.50
   2  11  12    0.70    3.50
   2  11  12    2.20    5.60
   2  11  12    5.70    6.60
  -3 -11 -12   -0.90    3.90
   3  11  12   -4.10    4.00
   3  11  12    1.60    5.30
   3  11  12    1.40    3.20
  -4 -11 -12   -2.90    3.70
   4  11  12    2.30    6.40
   4  11  12    7.10    4.50
   4  11  12    4.60    6.80
  -5 -11 -12   29.70   11.00
   5  11  12   71.59   17.80
   5  11  12   79.59   19.80
   5  11  12   57.79    9.00
  -6 -11 -12   24.70   10.20
   6  11  12   17.90    9.00
   6  11  12   21.40    7.00
   6  11  12   26.40   10.50
  -7 -11 -12   13.30    9.10
   7  11  12   39.00   13.10
   7  11  12   19.60   10.10
  -8 -11 -12   -4.60    5.00
   8  11  12    3.00    7.10
   8  11  12    2.50   10.40
  -3  12  12    4.00    5.60
  -3  12  12   -0.70   10.00
  -2  12  12   -2.80    4.40
  -2  12  12    9.50   11.70
  -2  12  12   -1.80    4.00
   1 -12 -12   99.89   13.30
  -1  12  12   67.69   13.70
  -1  12  12  113.69   22.60
  -1  12  12   90.09   14.40
   0 -12 -12   -1.50    4.20
   0  12  12    4.10    6.00
   0  12  12    3.80    4.50
   0  12  12    6.00    7.70
   1  12  12   41.10   14.50
   1  12  12   14.00    6.70
   1  12  12   -0.10    4.70
  -2 -12 -12   10.60    7.20
   2  12  12    3.80    6.80
   2  12  12    6.80    6.10
   2  12  12   -1.60    5.20
  -3 -12 -12   -0.30    4.40
   3  12  12   13.80    8.80
   3  12  12    1.50    3.80
   3  12  12    6.40    6.80
  -4 -12 -12   69.79   16.50
   4  12  12   66.59   17.10
   4  12  12   65.59   12.10
   4  12  12   68.19   17.20
  -5 -12 -12    3.60    6.80
   5  12  12   -1.50    3.40
   5  12  12   -0.20    6.00
   5  12  12    8.10    8.60
  -6 -12 -12   48.00   14.80
   6  12  12   29.00   12.30
   6  12  12   51.99   17.00
  -7 -12 -12    7.00    8.20
   7  12  12    7.40    7.60
   7  12  12   -3.60    5.20
  -1  13  12    0.10    4.60
  -1  13  12    0.40    5.50
   0 -13 -12   36.10   10.90
   0  13  12   30.80   14.20
   0  13  12   29.10   10.30
  -1 -13 -12   11.80    7.80
   1  13  12    1.70    5.70
   1  13  12    4.10    5.20
  -2 -13 -12    0.80    5.70
   2  13  12   -1.10    3.90
   2  13  12   -0.60    5.20
  -3 -13 -12    5.80    6.20
   3  13  12    5.70    6.00
   3  13  12    3.60   10.50
   3  13  12   19.40   10.00
  -4 -13 -12   33.70   12.30
   4  13  12   49.50   11.20
   4  13  12   58.89   15.60
   4  13  12   44.80   14.60
  -5 -13 -12   35.50   12.90
   5  13  12   18.20    7.20
   5  13  12   55.89   15.90
   5  13  12   23.90   11.60
  -2  -8  13   13.80   10.70
  -2  -8  13    6.70    8.50
  -1  -8  13    1.40    5.90
  -1  -8  13   -1.80    6.40
   0  -8  13   13.00   11.50
   0  -8  13    8.90    9.00
  -5  -7  13    4.00    6.40
  -5  -7  13   -1.10    4.40
  -5  -7  13    0.10    5.70
  -4  -7  13   13.60    9.30
  -4  -7  13   23.20    9.10
  -3  -7  13   -0.20    5.20
  -3  -7  13    5.90    7.60
  -3  -7  13    5.50    5.80
  -2  -7  13    4.00    6.70
  -2  -7  13   -1.70    3.80
  -2  -7  13   12.30    9.40
  -1  -7  13   12.50    9.80
  -1  -7  13   18.40   11.90
   0  -7  13   12.10    9.80
   0  -7  13   22.10   11.50
   1  -7  13   25.60   13.70
   1  -7  13   42.00   15.40
   2  -7  13    4.80    7.30
   2  -7  13    0.40    7.60
   3  -7  13    3.40   11.80
   3  -7  13    0.20    6.10
  -6  -6  13   47.10   12.60
  -6  -6  13   21.70    9.20
  -5  -6  13   10.20    9.70
  -5  -6  13    3.10    5.20
  -5  -6  13    2.30    6.50
  -4  -6  13    0.10    5.60
  -4  -6  13   12.70    7.50
  -3  -6  13    1.70    7.70
  -3  -6  13    6.90    6.20
  -2  -6  13   -3.60    4.60
  -2  -6  13   16.10   10.20
  -2  -6  13    3.60    5.00
  -1  -6  13   18.60    9.90
  -1  -6  13   21.90   11.60
  -1  -6  13   16.60    7.00
   0  -6  13   20.30    6.80
   0  -6  13   19.30   11.80
   0  -6  13   16.60   10.80
   1  -6  13   17.40   10.00
   1  -6  13    9.70    8.20
   2  -6  13   13.10   10.30
   2  -6  13   57.79   16.70
   3  -6  13   20.90   13.50
   3  -6  13   -0.70    5.10
   4  -6  13   17.90   10.10
   4  -6  13   26.50   14.70
   5  -6  13    5.70   10.00
   5  -6  13   -2.20    4.90
  -7  -5  13   37.10   12.80
  -7  -5  13   17.00   10.60
  -6  -5  13   59.59   12.40
  -6  -5  13   72.09   15.80
  -6  -5  13   40.70   13.40
  -5  -5  13   12.20    8.80
  -5  -5  13    9.60    6.80
  -5  -5  13    2.50    5.00
  -4  -5  13    3.80    6.00
  -4  -5  13    2.30    5.50
  -4  -5  13   16.90   11.30
  -3  -5  13    8.70    7.60
  -3  -5  13   27.40    9.20
  -3  -5  13    3.20    5.70
  -2  -5  13   14.70    6.50
  -2  -5  13    6.30    8.00
  -2  -5  13   21.20    9.90
  -1  -5  13    0.30    6.90
  -1  -5  13    3.90    4.20
  -1  -5  13    1.40    6.00
   0  -5  13   39.60   14.20
   0  -5  13   13.80    6.40
   0  -5  13   28.20   12.40
   1  -5  13   -2.30    4.30
   1  -5  13    7.20    9.20
   1  -5  13    0.60    3.80
   2  -5  13    6.30    7.80
   2  -5  13   -3.00    4.90
   3  -5  13   71.39   17.60
   3  -5  13  123.29   24.30
   4  -5  13   32.80   13.50
   4  -5  13   36.90   13.80
   5  -5  13    8.70    7.60
   5  -5  13   -4.30    5.70
   6  -5  13   -2.70    6.80
   6  -5  13    7.30    7.70
  -8  -4  13  155.58   23.50
  -8  -4  13   87.09   18.40
  -7  -4  13   12.90    9.20
  -7  -4  13   15.50    8.40
  -6  -4  13   40.10   15.30
  -6  -4  13   19.80    7.40
  -6  -4  13    8.80    7.30
  -5  -4  13    0.60    4.50
  -5  -4  13    5.10    8.30
  -5  -4  13    3.40    5.00
  -4  -4  13    1.00    4.30
  -4  -4  13   -2.30    5.10
  -4  -4  13    2.50    5.90
  -3  -4  13    7.80    6.70
  -3  -4  13   13.30    6.70
  -3  -4  13   -6.80    3.80
  -2  -4  13   -0.10    4.10
  -2  -4  13    2.50    5.60
  -2  -4  13    5.80    8.10
  -1  -4  13    9.60    8.90
  -1  -4  13   13.80    6.50
  -1  -4  13    1.20    5.70
   0  -4  13    8.20    7.90
   0  -4  13    9.60    8.60
   0  -4  13    8.70    5.20
   1  -4  13   10.00    8.40
   1  -4  13    2.70    6.90
   1  -4  13    0.80    3.60
   2  -4  13   43.10    8.40
   2  -4  13   44.10   14.80
   2  -4  13   20.60   10.90
   3  -4  13   20.60   10.10
   3  -4  13   24.60   11.00
   4  -4  13   33.30   12.70
   4  -4  13   46.30   15.50
   5  -4  13   24.30   10.80
   5  -4  13   19.60   12.60
   6  -4  13    4.70    8.30
   6  -4  13   14.20    9.30
   7  -4  13    7.60   10.60
   7  -4  13    1.30    6.10
  -8  -3  13   22.50   10.70
  -8  -3  13   19.20    9.50
  -7  -3  13   45.70   13.60
  -7  -3  13   75.59   18.90
  -6  -3  13    0.10    5.60
  -6  -3  13    4.20    6.50
  -5  -3  13   -3.00    4.00
  -5  -3  13    2.30    4.10
  -5  -3  13    0.00    5.70
  -4  -3  13   -3.20    3.80
  -4  -3  13    5.10    5.70
  -4  -3  13    4.20    6.00
  -3  -3  13   37.50   12.20
  -3  -3  13   34.50   10.70
  -3  -3  13   41.20   11.40
  -2  -3  13   39.40   10.90
  -2  -3  13   24.00    9.70
  -2  -3  13   25.60   12.40
  -1  -3  13   20.60    9.60
  -1  -3  13   10.80    5.70
  -1  -3  13   41.90   12.60
   0  -3  13    0.10    6.20
   0  -3  13   -1.70    5.60
   0  -3  13   -0.20    4.10
   1  -3  13    1.60    3.40
   1  -3  13    7.80    7.50
   1  -3  13   11.30    8.60
   2  -3  13   18.80    6.30
   2  -3  13   19.40   10.50
   2  -3  13    0.70   11.00
   3  -3  13   36.80   13.50
   3  -3  13   30.00   12.00
   3  -3  13   26.30    6.70
   4  -3  13   24.40   11.80
   4  -3  13   18.70   10.60
   5  -3  13   -4.40    4.40
   5  -3  13    1.50    4.90
   6  -3  13   32.70   14.20
   6  -3  13   15.40    9.10
   7  -3  13   30.10   14.00
   7  -3  13   12.80   10.80
   8  -3  13   39.60   15.80
   8  -3  13   43.90   16.80
  -9  -2  13   18.30   12.80
  -9  -2  13   37.90   13.70
  -8  -2  13   51.89   14.30
  -8  -2  13   65.49   16.90
  -7  -2  13   30.70   12.10
  -7  -2  13   70.59   17.30
  -6  -2  13   -3.00    4.80
  -6  -2  13   -3.50    3.90
  -5  -2  13   12.50   10.10
  -5  -2  13    5.20    6.70
  -5  -2  13    6.00    4.50
  -4  -2  13    5.50    7.00
  -4  -2  13   21.90   14.00
  -3  -2  13    9.50    8.20
  -3  -2  13   32.30    9.90
  -3  -2  13   46.00   11.00
  -2  -2  13   51.29   12.60
  -2  -2  13   52.39   16.30
  -2  -2  13   65.39   13.40
  -1  -2  13   -5.60    3.60
  -1  -2  13   -6.40    3.20
  -1  -2  13    4.20    4.90
   0  -2  13   -1.90    3.20
   0  -2  13   14.20    8.30
   0  -2  13   -3.20    3.80
   1  -2  13   20.50    9.70
   1  -2  13   20.30   10.90
   1  -2  13   22.70    7.60
   2  -2  13   72.69   16.30
   2  -2  13  110.09   18.00
   2  -2  13   99.79   11.80
   3  -2  13   33.70   12.90
   3  -2  13   34.70   19.70
   4  -2  13   -8.30    4.40
   4  -2  13   -0.70    4.80
   4  -2  13   -1.70    2.50
   5  -2  13   14.90    9.90
   5  -2  13   47.60   15.90
   6  -2  13   -0.70    4.70
   6  -2  13   -4.00    5.10
   7  -2  13   80.69   21.40
   7  -2  13   72.09   17.90
   8  -2  13   17.60    9.60
   8  -2  13   10.80   11.60
  -9  -1  13   12.70    8.60
  -8  -1  13  172.98   22.00
  -7  -1  13   -1.40    4.40
  -7  -1  13    3.50    5.70
  -6  -1  13    1.80    5.20
  -6  -1  13    4.10    6.30
  -5  -1  13   46.10   12.60
  -5  -1  13   36.10   11.80
  -5  -1  13   48.50    7.10
  -4  -1  13   17.30   10.10
  -4  -1  13   15.20   12.50
  -4  -1  13    8.80    4.90
  -3  -1  13   -1.60    3.90
  -3  -1  13    8.40    6.50
  -2  -1  13   23.90   11.00
  -2  -1  13   36.50    9.60
  -2  -1  13   33.40    9.70
  -1  -1  13   -0.20    3.50
  -1  -1  13   -1.00    3.70
  -1  -1  13    7.40    7.60
   0  -1  13    4.50    5.10
   0  -1  13    0.80    6.00
   0  -1  13    3.70    4.70
   1  -1  13  115.69   16.50
   1  -1  13  116.09   18.20
   1  -1  13  100.69   12.90
   2  -1  13   45.90   13.20
   2  -1  13   56.89   11.20
   2  -1  13   96.89   19.20
   3  -1  13    5.60    7.00
   3  -1  13   -2.50    3.60
   3  -1  13    9.10    5.20
   4  -1  13    4.90    8.00
   4  -1  13    4.40    4.60
   4  -1  13   19.10   10.30
   5  -1  13   11.20    9.50
   5  -1  13   12.20    5.00
   5  -1  13    1.70    6.00
   6  -1  13   62.29   20.10
   6  -1  13   64.19   17.60
   7  -1  13    1.20    5.70
   7  -1  13    1.40    8.80
   8  -1  13   16.30   10.70
   8  -1  13   -3.90    6.80
   9  -1  13    0.60    5.20
   9  -1  13   -3.20    7.20
  -9   0  13   54.99   16.00
  -8   0  13   50.89   14.20
  -8   0  13   59.69   15.80
  -7   0  13   -2.80    3.50
  -7   0  13    3.00    7.30
  -6   0  13    5.40    7.30
  -6   0  13    1.00    6.50
  -5   0  13   65.49   16.40
  -5   0  13   43.10   12.70
  -4   0  13   -3.00    4.00
  -4   0  13   -3.10    3.70
  -4   0  13    5.80    4.10
  -3   0  13   41.10   11.40
  -3   0  13   40.20    9.10
  -2   0  13   -2.00    3.80
  -2   0  13   -2.70    3.70
  -2   0  13    0.20    4.70
  -1   0  13   -4.90    3.00
  -1   0  13    0.20    4.70
  -1   0  13   -1.80    5.30
   0   0  13   28.20   10.70
   0   0  13   44.60   11.30
   0   0  13   39.10   10.20
   1   0  13   45.20   10.50
   1   0  13   53.79   19.40
   1   0  13   41.90   11.80
   2   0  13    6.90    7.60
   2   0  13   10.60    8.00
   2   0  13   17.90    6.60
   3   0  13    5.60    7.00
   3   0  13    0.50    3.30
   3   0  13    1.50    5.40
   4   0  13   21.40    6.90
   4   0  13   24.40   11.30
   4   0  13   15.70    8.70
   5   0  13    5.40    3.80
   5   0  13    9.50    7.80
   5   0  13   15.20   10.20
   6   0  13    5.90    6.80
   6   0  13    9.20    9.10
   7   0  13   16.00    8.90
   7   0  13    1.40    5.90
   7   0  13   22.90    7.90
   8   0  13    9.20    9.10
   8   0  13   20.00   12.20
   9   0  13    8.20   10.40
   9   0  13    4.80    7.80
  -9   1  13   70.99   24.20
  -9   1  13   75.49   17.10
  -8   1  13   12.60    7.80
  -8   1  13   24.00   10.40
  -7   1  13    5.10    6.40
  -7   1  13    8.40    7.60
  -6   1  13  103.29   17.00
  -6   1  13  122.59   18.20
  -5   1  13   60.19   23.70
  -5   1  13   41.20   12.90
  -4   1  13    6.20    6.50
  -4   1  13    6.10    3.60
  -4   1  13    0.00    5.40
  -3   1  13   24.70   10.50
  -3   1  13   17.10    8.40
  -3   1  13   16.50    5.90
  -2   1  13   18.10    9.60
  -2   1  13   14.60    6.10
  -2   1  13   12.00    7.20
  -1   1  13   40.10   10.90
  -1   1  13   44.20   13.60
  -1   1  13   30.90    8.80
   0   1  13  101.99   20.00
   0   1  13   81.69   12.50
   0   1  13   95.79   13.90
   1   1  13   60.39   12.40
   1   1  13   99.19   20.60
   1   1  13   67.69   15.20
   2   1  13   49.00   12.90
   2   1  13   40.00   16.10
   2   1  13   31.90    9.60
   3   1  13   14.20    9.40
   3   1  13   10.00    5.90
   3   1  13    2.90    5.70
   4   1  13   32.20    8.50
   4   1  13   25.30   10.20
   4   1  13   32.60   12.10
   5   1  13   42.70    9.70
   5   1  13   50.79   16.60
   5   1  13   39.60   12.60
   6   1  13    8.10    5.10
   6   1  13   17.10   10.50
   6   1  13    7.00    6.60
   7   1  13   10.50   10.40
   7   1  13   -4.00    4.80
   7   1  13    7.50    4.60
   8   1  13    1.50    7.50
   8   1  13    2.10    6.80
   8   1  13    2.50    4.50
   9   1  13   -1.60    6.40
   9   1  13   12.20   11.50
  10   1  13   71.19   20.90
  -9   2  13   15.80   14.80
  -9   2  13   32.00   12.10
  -8   2  13   11.80    8.20
  -8   2  13    2.60    6.10
  -7   2  13   46.40   13.30
  -7   2  13   59.09   14.50
  -6   2  13    3.60    5.60
  -5   2  13   45.40   12.70
  -5   2  13   53.49   13.80
  -4   2  13    5.10    7.70
  -4   2  13    7.90    2.80
  -4   2  13    6.20    6.30
  -3   2  13    5.30    3.80
  -3   2  13    5.80    6.70
  -3   2  13   14.10    8.00
  -2   2  13    4.20    4.30
  -2   2  13    8.40    6.70
  -2   2  13   11.40    7.70
  -1   2  13   27.90    9.70
  -1   2  13   25.60   11.60
   0   2  13    2.70    5.30
   0   2  13   -1.80    2.50
   0   2  13   -1.20    3.40
   1   2  13   49.70   12.70
   1   2  13  106.99   14.30
   1   2  13  113.49   15.60
   2   2  13    1.90    5.30
   2   2  13   -1.00    5.30
   2   2  13   14.70    7.20
   3   2  13    4.10    4.70
   3   2  13    7.80    6.90
   4   2  13   -3.80    4.70
   4   2  13    2.70    4.60
   4   2  13   22.70   11.20
   5   2  13   87.79   30.80
   5   2  13   73.19   18.40
   5   2  13   68.49   10.90
   6   2  13   28.80    8.80
   6   2  13   34.10   13.10
   6   2  13   61.49   16.80
   7   2  13   20.00   10.50
   7   2  13   20.00    7.60
   7   2  13   28.30   13.00
   8   2  13   14.60    6.80
   8   2  13    9.50   10.00
   8   2  13   -2.90    4.60
   9   2  13    1.10    7.20
   9   2  13   22.40   12.90
  10   2  13   51.79   20.00
  10   2  13  101.79   24.20
  -9   3  13   14.30    9.40
  -9   3  13    9.50    7.20
  -9   3  13    1.50    6.30
  -8   3  13   13.50    7.80
  -8   3  13    6.50    6.40
  -8   3  13   22.90   10.90
  -7   3  13   93.79   25.90
  -7   3  13   57.79   15.00
  -7   3  13   77.39   15.50
  -6   3  13   80.39   17.10
  -6   3  13   42.20   13.00
  -5   3  13   37.70   12.10
  -5   3  13   51.79   13.50
  -5   3  13   28.80    9.50
  -4   3  13    7.60    5.90
  -4   3  13   10.20    8.80
  -4   3  13    3.60    4.20
  -3   3  13   15.00    5.90
  -3   3  13   18.90    5.40
  -3   3  13   17.80    9.90
  -2   3  13   -1.60    3.60
  -2   3  13   -2.20    4.30
  -2   3  13    5.50    4.30
  -1   3  13   75.89   15.10
  -1   3  13   83.49   11.70
  -1   3  13  106.59   16.60
   0   3  13    5.50    5.30
   0   3  13   -6.50    2.80
   0   3  13   -4.40    3.30
   1   3  13   10.10    8.10
   1   3  13   13.20    6.80
   1   3  13    5.80    5.40
   2   3  13    1.80    5.70
   2   3  13   -0.80    3.90
   2   3  13    4.90    6.80
   3   3  13   63.79   13.20
   3   3  13   46.90   13.40
   4   3  13  145.49   19.30
   4   3  13  105.29   13.90
   4   3  13  125.69   19.50
   5   3  13   79.59   19.00
   5   3  13   56.89   16.50
   6   3  13   25.20    8.50
   6   3  13   33.00   12.20
   6   3  13   29.60   12.20
   7   3  13   30.90   13.10
   7   3  13   17.80   11.40
   7   3  13    7.40    5.50
   8   3  13    1.60    7.50
   8   3  13   -1.20    7.50
   8   3  13    8.40    6.80
   9   3  13   14.10    7.00
   9   3  13   14.50   10.10
   9   3  13   30.30   13.20
  10   3  13   -0.60    5.60
  -9   4  13    5.30    7.20
  -9   4  13    1.90    6.90
  -9   4  13   11.30    9.40
  -8   4  13   -0.10    7.00
  -8   4  13   -6.20    4.00
  -8   4  13    0.30    4.80
  -7   4  13    1.70    5.00
  -7   4  13   15.40    9.50
  -7   4  13    6.20    6.40
  -6   4  13   25.70    9.90
  -6   4  13   79.89   17.80
  -6   4  13   40.00   10.80
  -5   4  13    9.10    7.10
  -5   4  13   -1.60    3.70
  -5   4  13    3.20    6.90
  -4   4  13   20.60    9.40
  -4   4  13    6.90    5.40
  -4   4  13   19.00    9.20
  -3   4  13    1.80    2.60
  -3   4  13    7.00    7.10
  -3   4  13    9.30    4.60
  -3   4  13    8.10    7.00
  -2   4  13  221.18   22.80
  -2   4  13  205.08   24.20
  -2   4  13  178.38   14.80
  -2   4  13  172.88   14.40
  -1   4  13   53.89    7.80
  -1   4  13   35.30    8.90
  -1   4  13   23.10    9.70
  -1   4  13   40.10   12.50
   0   4  13   33.40   11.00
   0   4  13   32.90   11.40
   0   4  13   15.60    6.60
   1   4  13   13.10    7.30
   1   4  13    0.20    4.70
   1   4  13    0.60    5.60
   2   4  13   -2.60    4.20
   2   4  13    5.20    5.70
   2   4  13   -1.60    3.60
   3   4  13   91.09   13.90
   3   4  13   99.49   15.80
   3   4  13   91.69   24.80
   4   4  13  144.09   20.10
   4   4  13  132.99   16.00
   4   4  13  163.18   20.50
   5   4  13   22.30    9.30
   5   4  13   18.60    9.20
   5   4  13   42.90   11.40
   6   4  13   -0.30    3.70
   6   4  13    0.20    4.50
   6   4  13   -2.40    5.50
   7   4  13   -0.50    7.00
   7   4  13   17.50    7.50
   7   4  13    0.90    5.60
   8   4  13   91.09   21.80
   8   4  13  107.39   14.10
   8   4  13  163.68   23.60
   9   4  13    6.50    8.30
   9   4  13   -0.20    4.00
   9   4  13   -1.30    6.60
  10   4  13    4.10    8.40
  -8   5  13   68.59   19.40
  -8   5  13   66.39   14.20
  -8   5  13   63.59   15.10
  -7   5  13    3.70    7.20
  -7   5  13    6.80    6.00
  -7   5  13   12.40    7.90
  -6   5  13   30.60   10.20
  -6   5  13   14.30    8.90
  -6   5  13   16.80    8.00
  -5   5  13   -4.50    3.50
  -5   5  13   12.90    9.20
  -5   5  13   -0.60    3.40
  -4   5  13   22.70    9.10
  -4   5  13    5.70    5.40
  -4   5  13    2.60    6.00
  -3   5  13   31.70   11.30
  -3   5  13   33.70    8.60
  -3   5  13   35.40   12.50
  -2   5  13   30.50    7.20
  -2   5  13   16.20    8.40
  -2   5  13   33.60   11.10
  -2   5  13   36.00    8.50
  -1   5  13  138.49   14.40
  -1   5  13  156.08   19.70
  -1   5  13  202.68   27.80
   0   5  13   14.00    7.00
   0   5  13   12.30    8.10
   0   5  13    0.40    2.70
   0   5  13    1.90    5.60
   1   5  13    1.90    2.50
   1   5  13   -2.60    4.50
   1   5  13    4.20    5.60
   1   5  13    8.10    6.40
   2   5  13   90.09   18.40
   2   5  13   78.89   15.20
   2   5  13   71.59   15.20
   3   5  13   10.30    6.30
   3   5  13    9.10    7.20
   4   5  13   71.19   15.70
   4   5  13   43.20   13.80
   4   5  13   47.40   13.10
   5   5  13   -3.00    4.80
   5   5  13    4.90    7.00
   5   5  13   -1.00    3.70
   6   5  13   38.20   10.40
   6   5  13   53.29   15.70
   6   5  13   14.90   10.50
   7   5  13   37.10   14.20
   7   5  13   -1.80    5.40
   7   5  13   22.40    8.40
   8   5  13   30.40   14.90
   8   5  13   12.50   10.00
   9   5  13   51.89   18.80
   9   5  13   22.60   12.00
   9   5  13   11.90    6.30
  10   5  13    6.00    6.60
  -8   6  13   28.20   12.60
  -8   6  13   63.59   15.00
  -7   6  13  205.18   25.00
  -7   6  13  170.18   18.50
  -7   6  13  201.88   21.20
  -6   6  13    3.30    6.40
  -6   6  13    0.70    4.50
  -6   6  13   -2.50    4.60
  -5   6  13   -2.50    4.20
  -5   6  13    0.00    4.80
  -5   6  13   -0.60    3.80
  -4   6  13   46.50   10.90
  -4   6  13   61.19   17.00
  -4   6  13   43.10   12.20
  -3   6  13   10.60    7.30
  -3   6  13   13.00    6.40
  -3   6  13    3.10    6.40
  -2   6  13   15.60    8.80
  -2   6  13    7.50    4.40
  -2   6  13    4.80    6.20
  -2   6  13   12.10    5.70
  -1   6  13   18.50    8.40
  -1   6  13   26.70    7.80
  -1   6  13   39.20   13.20
  -1   6  13   29.20    7.40
   0   6  13   31.80    7.30
   0   6  13   21.10   10.90
   0   6  13   44.40   13.40
   0   6  13   70.29   11.50
   1   6  13   27.40    6.00
   1   6  13   21.00   10.50
   1   6  13   27.80    9.80
   1   6  13    7.30    8.30
   2   6  13  121.39   17.00
   2   6  13   98.89    8.00
   2   6  13   97.09   15.50
   2   6  13  118.49   18.10
   3   6  13   56.09   14.00
   3   6  13   55.09   15.00
   3   6  13   37.20   13.60
   4   6  13   17.20    8.00
   4   6  13   13.60    9.10
   4   6  13    4.70    7.10
   5   6  13    6.00    7.20
   5   6  13    0.80    5.70
   6   6  13   13.20    8.80
   6   6  13   37.40   13.50
   6   6  13   24.10   12.30
   7   6  13   23.30    9.30
   7   6  13   41.30   14.80
   7   6  13   77.09   20.30
   8   6  13   24.10    9.50
   8   6  13   19.10   10.80
   8   6  13   22.10   12.50
   9   6  13    1.30    5.30
   9   6  13   -1.30    6.90
   9   6  13   13.90   10.80
  10   6  13    7.20   13.20
  10   6  13    1.40    5.30
  10   6  13    1.80    6.80
  -7   7  13   59.89   22.10
  -7   7  13   22.10    9.30
  -6   7  13   -2.20    4.30
  -6   7  13   -3.60    4.70
  -6   7  13    6.90    6.80
  -5   7  13   44.10   11.80
  -5   7  13   53.09   16.40
  -5   7  13   42.80   11.10
  -4   7  13   68.59   16.70
  -4   7  13   49.20   13.00
  -4   7  13   43.70   13.20
  -3   7  13   -0.60    3.10
  -3   7  13    7.60    6.50
  -3   7  13    1.40    4.80
  -2   7  13   74.29   11.10
  -2   7  13   54.39    8.50
  -2   7  13   72.39   15.50
  -2   7  13   45.20   13.80
  -1   7  13    8.30    5.40
  -1   7  13   -1.80    5.70
  -1   7  13    9.80    7.10
  -1   7  13    5.70    4.20
   0   7  13   20.00    9.10
   0   7  13   19.50    6.50
   0   7  13   36.40   10.40
   0   7  13   19.20   10.00
   1   7  13   92.59   14.00
   1   7  13   73.59    8.90
   1   7  13   77.49   16.60
   1   7  13   74.69   16.70
   2   7  13   87.89   17.00
   2   7  13   68.89    7.80
   2   7  13   91.29   14.90
   3   7  13   12.20    9.20
   3   7  13    3.30    2.50
   3   7  13   -1.70    4.60
   3   7  13   19.40    9.60
   4   7  13    5.30    5.80
   4   7  13   10.40    7.50
   4   7  13   -2.40    5.50
   5   7  13   22.60   11.60
   5   7  13   21.20    9.20
   5   7  13   10.20    7.90
   6   7  13   -5.20    4.40
   6   7  13   -0.70    3.80
   6   7  13   -2.70    5.50
   7   7  13    8.70    9.80
   7   7  13    5.50    8.40
   7   7  13   10.50    7.10
   8   7  13   26.20   13.00
   8   7  13   11.20    6.80
   8   7  13   41.00   14.70
   9   7  13   12.40   10.40
   9   7  13   -1.10    7.20
   9   7  13    1.30    5.30
  10   7  13    1.40    5.30
  10   7  13    1.40    9.10
  10   7  13   12.40   10.70
  -6   8  13    1.50    5.90
  -6   8  13   -0.10    5.50
  -5   8  13   65.29   14.10
  -5   8  13   83.39   18.30
  -5   8  13   63.59   13.40
  -4   8  13   16.60    9.40
  -4   8  13   32.10   10.80
  -4   8  13   59.29   13.20
  -3   8  13   17.80    8.50
  -3   8  13    6.20    4.80
  -3   8  13   18.20    9.50
  -2   8  13    0.00    3.40
  -2   8  13   -2.20    3.30
  -2   8  13    6.20    7.50
  -2   8  13   -1.50    4.50
  -1   8  13    1.00    7.30
  -1   8  13    2.50    4.50
  -1   8  13   -1.70    4.40
  -1   8  13    8.30    7.10
   0   8  13   13.70    8.30
   0   8  13    3.50    3.70
   0   8  13    1.40    4.80
   0   8  13    3.50    5.00
   1   8  13   23.30   10.80
   1   8  13    6.60    7.60
   1   8  13   10.50    4.80
   1   8  13    9.10    6.10
   2   8  13   64.39    8.40
   2   8  13   62.89   16.00
   2   8  13   61.99   15.10
   2   8  13   71.79   16.40
   3   8  13   15.90    9.20
   3   8  13   41.20   13.10
   3   8  13   16.20    8.90
   3   8  13   13.60    4.50
   4   8  13   -0.50    4.90
   4   8  13   -3.10    4.60
   4   8  13   -3.20    3.50
   5   8  13   35.70   12.00
   5   8  13   33.60   13.20
   5   8  13   42.90   13.60
   6   8  13   72.09   18.60
   6   8  13   37.80   13.80
   6   8  13   52.69   13.30
   7   8  13   13.70   11.00
   7   8  13   16.90   11.40
   7   8  13    6.10    6.70
   8   8  13   15.40    8.40
   8   8  13   10.10    9.80
   8   8  13    8.10    8.70
   9   8  13   -0.50    6.90
   9   8  13    0.90    9.80
   9   8  13    2.20    5.30
  -6   9  13    2.30    6.70
  -6   9  13    3.20    8.30
  -5   9  13   27.60   10.50
  -5   9  13   34.40   12.70
  -4   9  13   30.30   12.10
  -4   9  13   32.40   10.30
  -4   9  13   12.80    7.20
  -3   9  13   20.00   10.90
  -3   9  13    2.50    6.50
  -3   9  13    7.20    6.50
  -2   9  13   -2.20    3.70
  -2   9  13   -0.40    6.50
  -2   9  13    1.30    4.80
  -2   9  13   -1.40    3.20
  -1   9  13    7.10    5.50
  -1   9  13    6.50    5.70
  -1   9  13   21.50    9.30
  -1   9  13   14.90    9.80
   0   9  13  164.18   21.20
   0   9  13  174.28   15.90
   0   9  13  146.79   19.20
   0   9  13  158.08   17.40
   1   9  13   -1.70    4.40
   1   9  13   -0.50    3.10
   1   9  13   -4.20    3.80
   1   9  13    4.40    6.60
   2   9  13   22.60    9.80
   2   9  13   23.00    6.70
   2   9  13   13.60    7.80
   2   9  13   32.90   11.90
   3   9  13   12.30    9.50
   3   9  13    6.80    7.30
   3   9  13    9.20    7.40
   4   9  13    3.90    6.80
   4   9  13    2.20    5.40
   4   9  13   -0.20    2.70
   4   9  13   -4.20    5.20
   5   9  13   50.19   15.00
   5   9  13   45.10   13.10
   5   9  13   42.70   14.20
   6   9  13    6.50    6.30
   6   9  13   18.20   10.80
   6   9  13   18.50   10.10
   7   9  13    1.60    6.30
   7   9  13   24.90   12.40
   7   9  13    2.10    7.50
   8   9  13   -3.90    4.60
   8   9  13    5.30    8.00
   8   9  13    1.50    6.30
   9   9  13    3.20    7.20
   9   9  13    2.30    8.90
   9   9  13   -0.70    5.50
  -5  10  13    0.20    5.40
  -4  10  13   37.10   11.30
  -4  10  13   72.29   20.80
  -3  10  13    7.30    7.10
  -3  10  13    4.20    7.80
  -3  10  13    7.00    5.70
  -2  10  13    5.70    7.00
  -2  10  13    5.10    6.30
  -2  10  13    5.50    5.40
  -1  10  13   67.09   15.90
  -1  10  13   85.69   13.20
  -1  10  13   74.39   16.10
   0  10  13   47.50   11.90
   0  10  13   60.39   11.50
   0  10  13   59.09   15.40
  -1 -10 -13   21.80    8.50
   1  10  13    5.20    5.90
   1  10  13    8.10    7.90
   1  10  13   12.00    8.10
   1  10  13   20.60    7.10
  -2 -10 -13    4.50    5.60
   2  10  13    7.00    7.50
   2  10  13   -2.40    2.70
   2  10  13    5.20    7.50
  -3 -10 -13   -0.40    4.40
   3  10  13   -3.50    5.00
   3  10  13    5.50    7.50
   3  10  13    0.30    3.00
  -4 -10 -13   12.90    8.40
   4  10  13   24.60    6.40
   4  10  13   12.10    8.90
   4  10  13   12.80    8.80
  -5 -10 -13   44.10   12.50
   5  10  13   59.29   16.00
   5  10  13   70.79   18.30
  -6 -10 -13   16.50    9.10
   6  10  13   10.30    8.80
   6  10  13    0.10    6.80
   6  10  13    8.20    8.00
  -7 -10 -13    3.20    6.20
   7  10  13   13.90   10.70
   7  10  13   12.20    8.20
   7  10  13    5.90    7.30
   8  10  13   18.90   19.60
   8  10  13    6.20    9.00
   8  10  13   17.10   10.90
  -3  11  13   10.30    7.30
  -3  11  13    1.80    7.70
  -2  11  13    4.70    7.90
  -2  11  13   18.10    8.50
  -2  11  13    9.90    7.90
  -1  11  13   17.20    8.00
  -1  11  13   30.50   11.90
  -1  11  13   29.80   10.20
  -1  11  13   26.00   11.50
   0 -11 -13   30.20    9.50
   0  11  13   39.80   10.80
   0  11  13   20.50    9.60
   0  11  13   30.40   12.00
  -1 -11 -13    5.70    5.90
   1  11  13    3.80    5.60
   1  11  13   14.50    8.90
   1  11  13    2.60    4.20
  -2 -11 -13   -1.50    3.70
   2  11  13    3.10    4.40
   2  11  13   -2.50    3.80
   2  11  13    5.70    6.90
  -3 -11 -13   15.60    8.10
   3  11  13    1.50    6.20
   3  11  13   10.00    5.60
   3  11  13   -5.00    3.60
  -4 -11 -13   14.60    8.70
   4  11  13    4.70    6.60
   4  11  13   16.00    6.50
   4  11  13   25.20   10.90
  -5 -11 -13   69.69   17.10
   5  11  13   84.49   18.10
   5  11  13   61.29   18.10
  -6 -11 -13    8.90    7.70
   6  11  13   25.70   11.10
   6  11  13   14.20    9.30
  -7 -11 -13    3.80    7.40
   7  11  13    7.60    7.70
   7  11  13   -4.30    7.70
  -1  12  13   37.90   13.00
  -1  12  13    8.60    6.20
  -1  12  13    8.90   10.00
   0 -12 -13   34.10   10.60
   0  12  13   28.60   12.90
   0  12  13    9.20    6.20
   0  12  13   17.30    8.90
  -1 -12 -13   -1.00    4.30
   1  12  13   -1.10    4.60
   1  12  13   -1.00    4.20
  -2 -12 -13   14.50    8.40
   2  12  13   -0.60    4.00
   2  12  13    1.10    5.60
  -3 -12 -13   35.80   12.50
   3  12  13   30.30   12.60
   3  12  13   21.00    8.90
  -4 -12 -13    7.00    6.90
   4  12  13    6.50    7.70
   4  12  13   22.60   12.50
  -5 -12 -13   17.60    9.20
   5  12  13    0.70    6.10
   5  12  13    8.80    7.60
  -4  -6  14    3.40    8.40
  -4  -6  14    3.80    7.10
  -3  -6  14   14.20    8.00
  -3  -6  14    3.00    7.20
  -3  -6  14    4.80    6.90
  -2  -6  14   -2.70    5.60
  -2  -6  14    3.30    6.00
  -2  -6  14   21.20   10.00
  -1  -6  14   49.40   26.60
   0  -6  14    6.90    9.20
   0  -6  14   -1.80    6.30
   1  -6  14    8.90   17.00
   1  -6  14    7.30   10.60
   2  -6  14   14.70   11.30
  -5  -5  14    4.80    7.60
  -5  -5  14   -1.30    4.50
  -5  -5  14    1.60    6.10
  -4  -5  14   -1.10    5.90
  -4  -5  14    1.30    5.00
  -4  -5  14    4.10   10.60
  -3  -5  14    3.30    5.80
  -3  -5  14    9.60    7.00
  -3  -5  14   -1.10    4.60
  -2  -5  14    8.90    8.40
  -2  -5  14    3.30    6.90
  -1  -5  14   -4.90    5.40
  -1  -5  14    8.50    7.90
  -1  -5  14    5.50    5.00
   0  -5  14   -3.40    5.90
   0  -5  14   -4.40    4.60
   0  -5  14   -0.90    3.70
   1  -5  14   13.00    9.50
   1  -5  14   35.30   14.30
   2  -5  14    5.90    6.90
   2  -5  14   13.50   11.10
   3  -5  14   44.40   15.70
   3  -5  14   51.79   17.30
   4  -5  14   26.00   20.30
   4  -5  14    7.80    9.00
  -6  -4  14    7.30    7.70
  -5  -4  14    5.50    5.60
  -5  -4  14   11.90    8.10
  -5  -4  14   17.90   11.10
  -4  -4  14   24.70    9.50
  -4  -4  14   69.09   18.10
  -4  -4  14   67.99   14.40
  -3  -4  14    4.40    7.10
  -3  -4  14    3.10    5.00
  -3  -4  14   11.20    8.10
  -2  -4  14    2.40    6.60
  -2  -4  14    4.60    7.20
  -2  -4  14   -1.00    5.80
  -1  -4  14    1.60    7.40
  -1  -4  14    3.00    7.50
  -1  -4  14    6.00    5.20
   0  -4  14    4.70    7.90
   0  -4  14   12.90    9.90
   0  -4  14   20.70    7.90
   1  -4  14    2.00    3.80
   1  -4  14   26.20   13.50
   1  -4  14    7.60    7.40
   2  -4  14   98.19   21.40
   2  -4  14  111.19   22.80
   3  -4  14   11.10    9.40
   3  -4  14    4.70    6.70
   4  -4  14   27.90   12.90
   4  -4  14   32.20   14.40
   5  -4  14    4.90    8.90
   5  -4  14   20.00   11.80
  -7  -3  14   41.70   21.40
  -7  -3  14   29.10   12.60
  -6  -3  14   -1.70    5.60
  -6  -3  14   -0.50    4.60
  -5  -3  14   -1.70    5.10
  -5  -3  14    7.90    7.60
  -4  -3  14  154.18   22.80
  -4  -3  14  175.08   20.00
  -4  -3  14  126.09   15.80
  -3  -3  14   41.00   13.00
  -3  -3  14   17.70    8.10
  -3  -3  14   17.60    8.50
  -2  -3  14    9.80    7.10
  -2  -3  14    9.50    8.00
  -2  -3  14    5.10    6.40
  -1  -3  14    3.60    6.40
  -1  -3  14    9.80    9.10
  -1  -3  14    1.60    4.70
   0  -3  14    1.30    5.70
   0  -3  14   14.90    6.80
   1  -3  14   30.50    8.80
   1  -3  14   20.40   11.10
   1  -3  14   12.50   10.20
   2  -3  14    8.50    7.80
   2  -3  14   22.30   11.40
   2  -3  14   18.00    6.80
   3  -3  14   17.30   10.00
   3  -3  14   12.00   10.10
   4  -3  14   23.90   11.80
   4  -3  14    7.50    8.80
   5  -3  14   39.20   14.60
   5  -3  14   38.00   14.30
   6  -3  14   42.30   14.20
   6  -3  14   36.00   18.30
  -7  -2  14   12.40   10.00
  -7  -2  14    0.50    5.70
  -6  -2  14    7.60    9.60
  -6  -2  14   -3.80    4.70
  -5  -2  14   13.20    8.50
  -5  -2  14   -1.30    5.80
  -4  -2  14   14.10    8.20
  -4  -2  14    7.20    5.70
  -4  -2  14   18.50   10.20
  -3  -2  14   15.20    8.30
  -3  -2  14   14.60    7.70
  -3  -2  14   11.60    8.00
  -2  -2  14   16.70    8.50
  -2  -2  14    2.20    6.40
  -2  -2  14   14.00    8.20
  -1  -2  14   16.70    8.20
  -1  -2  14    2.50    4.50
  -1  -2  14    1.40    6.90
   0  -2  14   18.40    7.70
   0  -2  14   22.50   11.30
   0  -2  14   22.30   12.00
   1  -2  14   34.50   13.80
   1  -2  14   25.80   11.50
   1  -2  14   31.20    8.70
   2  -2  14   20.10    7.80
   2  -2  14   17.60   10.20
   2  -2  14   39.00   13.80
   3  -2  14    2.00    7.30
   3  -2  14   -1.80    3.00
   3  -2  14    3.40    6.80
   4  -2  14   19.00   10.70
   4  -2  14   -4.40    4.50
   5  -2  14   17.40   10.80
   5  -2  14   14.70   10.60
   6  -2  14   26.00   13.30
   6  -2  14   23.00   11.90
   7  -2  14   19.50   10.30
   7  -2  14   26.70   23.40
  -8  -1  14   20.10   10.20
  -8  -1  14   15.70   10.00
  -7  -1  14    0.70    5.80
  -7  -1  14   11.60    8.50
  -6  -1  14   20.70   11.30
  -6  -1  14   13.00    8.60
  -5  -1  14  112.79   22.30
  -5  -1  14  110.99   17.10
  -4  -1  14   19.70    7.00
  -4  -1  14   12.40    8.20
  -4  -1  14   11.90    9.50
  -3  -1  14    2.10    5.20
  -3  -1  14    5.20    6.70
  -3  -1  14    2.70    4.70
  -2  -1  14   -3.70    4.10
  -2  -1  14   10.50    8.40
  -2  -1  14   13.80    8.00
  -1  -1  14   18.00    8.40
  -1  -1  14    6.90    7.60
  -1  -1  14   10.20    7.00
   0  -1  14   94.49   19.90
   0  -1  14  162.38   17.10
   0  -1  14   99.39   15.70
   1  -1  14   12.70    6.10
   1  -1  14    2.40    6.40
   1  -1  14   34.00   12.20
   2  -1  14   43.80   14.50
   2  -1  14   23.60    7.40
   2  -1  14   17.70   12.00
   3  -1  14    0.90    6.50
   3  -1  14    1.20    3.70
   3  -1  14   -1.00    5.70
   4  -1  14    0.50    3.10
   4  -1  14    4.70    8.20
   4  -1  14   -5.70    4.60
   5  -1  14   36.30   14.10
   5  -1  14   14.40    8.80
   5  -1  14   39.70   16.70
   6  -1  14    2.40    6.50
   6  -1  14   17.30   11.30
   7  -1  14    5.50    7.40
   7  -1  14    8.20   11.00
   8  -1  14   -4.70    7.00
  -8   0  14    1.90    5.90
  -8   0  14   10.30    8.20
  -7   0  14    7.40    7.90
  -7   0  14   13.90    9.70
  -6   0  14   34.80   13.50
  -6   0  14   27.10   11.10
  -5   0  14   17.90    9.50
  -5   0  14   26.80   11.20
  -4   0  14   36.90    7.90
  -4   0  14   26.50   11.40
  -4   0  14   27.90    9.80
  -3   0  14   26.50   12.80
  -3   0  14    1.50    5.40
  -3   0  14   19.00    9.90
  -2   0  14    4.40    5.40
  -2   0  14    1.50    6.20
  -1   0  14   23.50   10.90
  -1   0  14   27.90   10.50
  -1   0  14   45.30   11.90
   0   0  14  173.88   19.30
   0   0  14  142.99   16.90
   0   0  14  214.88   24.50
   1   0  14    5.90    5.50
   1   0  14   19.40   11.10
   1   0  14    5.60    5.90
   2   0  14   10.00    6.30
   2   0  14    7.60    7.20
   2   0  14    0.50    5.20
   3   0  14   49.50   16.60
   3   0  14   82.19   20.80
   3   0  14   41.40   10.10
   4   0  14   10.20    9.60
   4   0  14    1.80    7.10
   4   0  14    1.80    3.80
   5   0  14   15.30   10.00
   5   0  14   24.60    7.70
   5   0  14   13.30    9.30
   6   0  14   15.20   10.20
   6   0  14    6.70    5.80
   6   0  14   25.60   12.80
   7   0  14    6.10    7.70
   7   0  14    8.40    9.40
   8   0  14   -1.20    7.40
  -8   1  14   -2.90    4.60
  -8   1  14   -4.60    4.50
  -7   1  14   19.40   10.40
  -7   1  14   15.80    9.50
  -6   1  14   72.09   18.20
  -6   1  14   51.69   14.00
  -5   1  14   33.60   12.30
  -5   1  14   19.20    9.90
  -4   1  14    9.10    7.00
  -4   1  14   13.10    8.10
  -3   1  14   68.59   15.20
  -3   1  14   32.20    7.70
  -3   1  14   44.20   13.80
  -2   1  14   13.20    7.90
  -2   1  14   11.20    6.80
  -2   1  14    9.80    7.70
  -1   1  14   60.99   13.60
  -1   1  14   64.69   13.10
  -1   1  14   81.69   18.90
   0   1  14   38.30   10.70
   0   1  14   34.60   10.70
   0   1  14   33.00   12.50
   1   1  14   11.50    6.50
   1   1  14   20.90    8.80
   1   1  14   10.90    9.60
   2   1  14   -0.50    3.60
   2   1  14    7.30    7.50
   2   1  14    9.70    8.40
   3   1  14   -1.40    5.00
   3   1  14    7.70    8.90
   3   1  14   -0.10    3.30
   4   1  14   44.00   10.30
   4   1  14   41.40   13.70
   4   1  14   21.10   10.50
   5   1  14   67.99   17.90
   5   1  14   72.29   18.50
   5   1  14   65.89   10.70
   6   1  14    5.60    8.80
   6   1  14    2.70    7.10
   6   1  14    5.90    4.70
   7   1  14   -4.70    6.50
   7   1  14    1.90    5.00
   7   1  14    0.00    6.40
   8   1  14   21.80   13.70
   8   1  14   50.49   18.80
  -8   2  14    3.40    6.90
  -8   2  14    8.30    8.40
  -7   2  14   68.29   15.90
  -7   2  14   76.79   17.50
  -6   2  14   10.90    7.60
  -6   2  14    4.50    6.00
  -5   2  14   26.00   10.90
  -5   2  14   36.40   12.30
  -4   2  14   16.80    9.90
  -4   2  14    5.80    7.00
  -3   2  14    0.80    3.70
  -3   2  14    0.10    3.90
  -3   2  14   11.20    7.60
  -2   2  14   57.79   14.60
  -2   2  14   35.20    9.50
  -2   2  14   54.49   13.40
  -1   2  14   -1.50    4.70
  -1   2  14    7.70    5.80
  -1   2  14   14.10    9.40
   0   2  14   42.10   11.60
   0   2  14   54.49   13.00
   0   2  14   76.29   17.40
   1   2  14    7.50    6.00
   1   2  14   17.00    8.20
   1   2  14    0.70    5.70
   2   2  14    6.20    8.00
   2   2  14   16.70   10.40
   2   2  14    3.10    4.90
   3   2  14   29.20    9.40
   3   2  14   17.70   10.10
   3   2  14   10.20    8.50
   4   2  14    7.70    6.00
   4   2  14    6.60    7.40
   4   2  14   27.40   12.70
   5   2  14   71.99   18.80
   5   2  14   57.29   12.50
   5   2  14   20.20   11.10
   6   2  14   10.50    7.70
   6   2  14    8.30    5.90
   6   2  14   15.80   10.70
   7   2  14   11.40   10.10
   7   2  14    0.30    4.10
   7   2  14    7.30    8.30
   8   2  14   15.10   10.00
   8   2  14   13.30   11.10
   9   2  14   20.30   12.40
   9   2  14   41.90   16.40
  -8   3  14    8.70    7.40
  -8   3  14   28.10   11.10
  -7   3  14   41.30   12.80
  -7   3  14   60.99   16.80
  -6   3  14   21.30   10.00
  -6   3  14   29.20   12.40
  -5   3  14    3.30    5.60
  -5   3  14    8.80    8.30
  -4   3  14    7.40    8.30
  -4   3  14    9.90    7.30
  -3   3  14  108.29   16.60
  -3   3  14   81.99    9.20
  -3   3  14  110.39   17.90
  -2   3  14   -0.80    5.50
  -2   3  14    0.50    4.30
  -2   3  14    6.90    4.90
  -1   3  14   43.80   13.40
  -1   3  14   49.10   12.70
  -1   3  14   49.40   11.20
   0   3  14   31.10   11.50
   0   3  14   35.70   11.90
   0   3  14   29.50    9.60
   1   3  14   34.60   12.70
   1   3  14   30.00   10.20
   1   3  14   27.80   10.30
   2   3  14   43.60   14.30
   2   3  14   44.40   12.10
   2   3  14   42.70   12.60
   3   3  14  159.48   20.70
   3   3  14  143.39   17.00
   3   3  14  163.28   21.90
   4   3  14   -2.00    5.30
   4   3  14   10.40    7.10
   5   3  14   45.60   11.30
   5   3  14   14.10    8.50
   5   3  14   39.60   14.00
   6   3  14    2.00    4.00
   6   3  14   16.30   10.50
   6   3  14   -2.40    5.40
   7   3  14   62.49   19.70
   7   3  14   58.99   12.40
   7   3  14   89.49   21.10
   8   3  14    0.10    7.70
   8   3  14    1.90    5.20
   8   3  14   -0.80    5.90
   9   3  14   18.90   13.40
   9   3  14    8.30   11.10
  -7   4  14   22.10    8.80
  -7   4  14   27.30   14.40
  -7   4  14    3.40    6.50
  -6   4  14   32.80   12.40
  -6   4  14    4.70    6.10
  -6   4  14   17.80    9.20
  -5   4  14    8.50    7.40
  -5   4  14    8.00    7.80
  -4   4  14   12.60    8.40
  -4   4  14    5.20    7.40
  -4   4  14    4.10    4.30
  -3   4  14   97.19   15.80
  -3   4  14   78.19   17.20
  -3   4  14   74.19   10.90
  -2   4  14   62.19   15.20
  -2   4  14   83.59   10.30
  -2   4  14   52.19   14.70
  -1   4  14   22.30    9.10
  -1   4  14   38.30   12.60
  -1   4  14    2.40    4.70
   0   4  14    0.60    4.30
   0   4  14   -0.20    5.60
   0   4  14    7.00    6.10
   1   4  14    7.00    7.00
   1   4  14    4.80    6.50
   2   4  14   33.00   11.50
   2   4  14   34.70   11.20
   2   4  14   25.60   12.40
   3   4  14   72.89   16.60
   3   4  14   32.00   11.90
   3   4  14   66.89   13.90
   4   4  14   -1.40    5.00
   4   4  14    3.20    4.70
   5   4  14    2.30    6.40
   5   4  14    3.10    5.70
   5   4  14    1.50    6.30
   6   4  14   17.00    7.90
   6   4  14    8.80    7.90
   6   4  14   10.10    7.60
   7   4  14   -1.20    7.10
   7   4  14    1.40    5.60
   7   4  14    9.90    9.30
   8   4  14   75.39   20.50
   8   4  14   61.89   16.30
   8   4  14   39.70   15.30
   9   4  14    6.30    6.10
   9   4  14   -1.30    6.20
   9   4  14    2.20   10.20
  -7   5  14   46.40   14.00
  -7   5  14   36.40   11.60
  -7   5  14   19.50    9.00
  -6   5  14    1.80    6.20
  -6   5  14    9.50    6.80
  -6   5  14   12.70    7.90
  -5   5  14    1.50    6.10
  -5   5  14    4.10    5.50
  -5   5  14   -2.40    4.30
  -4   5  14  104.29   17.10
  -4   5  14  101.09   13.40
  -4   5  14  152.28   20.20
  -3   5  14   67.19   16.20
  -3   5  14   43.70   13.90
  -3   5  14   60.29   11.60
  -2   5  14   -1.10    4.50
  -2   5  14    6.40    6.30
  -2   5  14   11.90    6.20
  -2   5  14    8.40    4.50
  -1   5  14   12.80    5.50
  -1   5  14   -0.20    5.10
  -1   5  14   13.60    8.60
   0   5  14    2.10    3.10
   0   5  14    9.20    7.10
   0   5  14    0.10    5.30
   0   5  14    7.50    6.40
   1   5  14   47.10   12.60
   1   5  14   44.50   12.60
   1   5  14   80.49   17.30
   2   5  14   22.20    9.30
   2   5  14   25.90    9.30
   2   5  14   28.00   11.90
   3   5  14    2.60    5.10
   3   5  14    8.70    7.40
   3   5  14   -2.20    3.00
   4   5  14    0.20    4.80
   4   5  14   -2.00    3.50
   5   5  14    2.20    5.90
   5   5  14   -2.60    3.50
   5   5  14    8.30    8.80
   6   5  14   66.69   19.50
   6   5  14   55.39   13.60
   6   5  14   60.99   18.60
   7   5  14   -0.40    5.10
   7   5  14   10.00   10.70
   7   5  14   10.00   10.00
   8   5  14    3.70    5.60
   8   5  14    8.60    8.50
   8   5  14   -4.10    6.20
   9   5  14   14.50    7.20
   9   5  14    6.60   10.30
   9   5  14   -5.50    8.40
  -7   6  14   12.90    8.20
  -7   6  14   17.50   10.60
  -6   6  14    5.80    8.40
  -6   6  14    2.10    8.00
  -6   6  14    1.80    5.30
  -5   6  14   15.00    8.50
  -5   6  14    2.90    6.20
  -5   6  14    2.90    8.00
  -4   6  14   26.50   10.40
  -4   6  14   26.30   11.00
  -4   6  14   34.20   17.70
  -3   6  14   32.90    8.50
  -3   6  14   25.50   13.50
  -3   6  14   23.20   10.60
  -2   6  14   13.00    5.50
  -2   6  14    5.80    8.00
  -2   6  14    5.30    4.40
  -2   6  14    3.80    5.60
  -1   6  14   17.70    6.30
  -1   6  14   10.50    7.70
  -1   6  14    5.90    7.40
   0   6  14   70.69   16.30
   0   6  14   24.20    7.10
   0   6  14   26.50    8.70
   0   6  14   30.60   11.20
   1   6  14  130.09   16.70
   1   6  14  130.79   10.30
   1   6  14   90.09   18.30
   1   6  14  128.49   19.40
   2   6  14    2.40    5.90
   2   6  14   15.30    8.10
   2   6  14    8.20    7.00
   3   6  14   -0.20    4.80
   3   6  14   15.40    9.20
   3   6  14   21.40   10.80
   4   6  14    9.80    7.60
   4   6  14    4.30    8.20
   4   6  14    6.70    6.50
   5   6  14    3.50    7.40
   5   6  14   -7.10    3.40
   5   6  14   -5.80    4.80
   6   6  14   25.60    9.70
   6   6  14   22.70   12.50
   6   6  14   16.60   10.90
   7   6  14   42.10   16.50
   7   6  14   38.60   12.20
   7   6  14   25.70   13.30
   8   6  14    4.80    9.40
   8   6  14    9.30    7.60
   8   6  14   18.60   12.60
   9   6  14    1.70    6.20
   9   6  14   10.70   11.10
   9   6  14   -3.90    6.90
  -6   7  14   59.69   14.10
  -6   7  14   82.89   16.40
  -6   7  14   57.89   15.80
  -5   7  14   36.10   13.60
  -5   7  14   29.20   12.50
  -5   7  14   24.40    9.60
  -4   7  14    2.60    4.50
  -4   7  14   13.40    9.60
  -3   7  14    4.10    8.40
  -3   7  14   15.50    7.40
  -2   7  14    1.40    5.80
  -2   7  14    1.90    5.60
  -2   7  14    1.80    4.40
  -1   7  14    4.20    4.10
  -1   7  14   -0.40    5.10
  -1   7  14    0.10    5.60
  -1   7  14   -3.00    3.80
   0   7  14   26.60    9.90
   0   7  14   11.00    6.90
   0   7  14   30.00   11.30
   0   7  14   14.30    5.60
   1   7  14  132.89   17.40
   1   7  14  186.88   21.40
   1   7  14  139.69   11.80
   1   7  14  153.28   21.00
   2   7  14    9.50    8.10
   2   7  14    7.00    7.10
   2   7  14   12.00    8.70
   3   7  14    6.80    7.00
   3   7  14    3.60    7.00
   3   7  14    4.40    8.10
   4   7  14   27.00   11.00
   4   7  14   30.60   12.60
   4   7  14    6.10    8.80
   5   7  14   25.20   11.10
   5   7  14   26.60   12.30
   5   7  14    3.00    5.00
   6   7  14   48.70   16.80
   6   7  14   37.60   11.50
   6   7  14   57.79   17.60
   7   7  14    4.80    8.90
   7   7  14    6.10    5.90
   7   7  14   15.40   11.20
   8   7  14    0.60   14.20
   8   7  14    1.90    5.60
   8   7  14    9.20   11.20
  -5   8  14   48.00   12.30
  -5   8  14   48.50   16.90
  -5   8  14   67.69   14.60
  -4   8  14   18.60   10.90
  -4   8  14   19.60    8.10
  -4   8  14   33.00   13.00
  -3   8  14   21.10   16.00
  -3   8  14    5.50    7.90
  -3   8  14    7.30    6.30
  -2   8  14   -1.90    3.60
  -2   8  14   -1.10    4.40
  -2   8  14    2.20    6.10
  -1   8  14    9.50    7.90
  -1   8  14   11.50    6.10
  -1   8  14    2.20    4.70
  -1   8  14   -2.40    4.10
   0   8  14   14.90    8.30
   0   8  14   20.60    9.90
   0   8  14   16.10    8.10
   0   8  14   29.70    8.40
   1   8  14   28.70   10.50
   1   8  14   14.70    9.80
   1   8  14   35.70    8.00
   1   8  14   26.00   11.70
   2   8  14   15.40    8.70
   2   8  14   10.10    6.50
   2   8  14   -2.30    4.60
   2   8  14    2.40    6.20
   3   8  14   13.40    7.80
   3   8  14   15.20    8.50
   3   8  14   33.10   17.60
   4   8  14   25.30   10.80
   4   8  14   28.20   11.30
   4   8  14   36.50   13.60
   5   8  14    5.40    8.00
   5   8  14    4.70    6.50
   5   8  14   -5.80    5.10
   6   8  14   25.70   13.00
   6   8  14   25.70   12.70
   6   8  14   24.00   10.30
   7   8  14   -3.40    7.30
   7   8  14   13.80    9.10
   7   8  14    3.00    7.70
   8   8  14    4.70    6.10
   8   8  14    0.10    7.90
   8   8  14   12.30   13.80
  -4   9  14    9.80    7.20
  -4   9  14   40.60   15.10
  -4   9  14   27.70   10.70
  -3   9  14    9.70    9.60
  -3   9  14   -4.80    7.80
  -3   9  14    0.10    4.40
  -2   9  14   10.70    8.20
  -2   9  14   21.50   10.70
  -2   9  14    6.50    6.30
  -1   9  14   38.90   12.90
  -1   9  14   18.40   10.00
  -1   9  14   19.20    7.70
  -1   9  14   49.99   13.70
   0   9  14   46.70   10.40
   0   9  14   46.10   12.10
   0   9  14   39.20   12.00
   0   9  14   29.60   12.20
   1   9  14    7.30    5.10
   1   9  14   15.90    9.90
   1   9  14    7.10    7.20
   1   9  14   29.80   12.00
   2   9  14    1.30    3.80
   2   9  14   16.30    8.60
   2   9  14    4.60    6.60
   2   9  14    6.80    7.40
   3   9  14   30.60   11.30
   3   9  14   20.00   10.10
   3   9  14   24.60   11.40
   4   9  14   52.59   15.60
   4   9  14   44.90   14.30
   4   9  14   14.50    9.40
   5   9  14    7.30    9.30
   5   9  14   -3.00    5.60
   5   9  14    6.00    6.80
   6   9  14    6.60    8.20
   6   9  14   -4.50    6.60
   6   9  14    3.90    6.60
   7   9  14   11.90   11.20
   7   9  14    5.50    6.60
   7   9  14    2.40    8.10
  -3  10  14    9.50    9.90
  -3  10  14    9.40    9.60
  -3  10  14   11.60    7.40
  -2  10  14   33.90   15.50
  -2  10  14   28.40    8.90
  -2  10  14   15.40    8.40
  -1  10  14   46.00   11.40
  -1  10  14   27.30   13.40
  -1  10  14   24.00   10.70
   0  10  14    3.20    6.30
   0  10  14   14.30    9.10
   0  10  14   17.80    7.70
   0  10  14    1.20    5.30
   1  10  14   15.30    6.90
   1  10  14   31.10   12.40
   1  10  14    6.40    7.80
   1  10  14   11.50    8.50
   2  10  14    4.00    7.30
   2  10  14    8.90    7.80
   2  10  14    5.90    5.50
   2  10  14    9.40    8.00
   3  10  14    2.60    6.70
   3  10  14   -4.90    4.10
   3  10  14    2.10    7.20
   4  10  14   81.69   17.20
   4  10  14  100.69   21.80
   4  10  14   51.19   15.90
   5  10  14   10.80    7.90
   5  10  14   -4.30    5.00
   5  10  14   13.90   10.60
   6  10  14   24.30   12.50
  -1  11  14    8.60    6.80
  -1  11  14    1.80    6.80
  -1  11  14   14.30   10.30
   0  11  14   18.50    9.80
   0  11  14   18.90    7.80
   0  11  14    0.80    5.50
   1  11  14    0.90    6.80
   1  11  14    5.60    7.30
   1  11  14    2.00    6.40
   1  11  14    0.40    6.30
   2  11  14   29.20   11.60
   2  11  14    9.50    9.40
   2  11  14   22.30   11.60
   2  11  14   19.40   10.80
   3  11  14    8.70    7.70
   3  11  14   11.70    9.90
   3  11  14   16.90   10.80
   4  11  14    1.60    6.10
   4  11  14    1.40    9.80
   4  11  14   -2.70    4.80
  -3  -4  15   27.10   14.10
  -3  -4  15    5.90    5.80
  -3  -4  15    8.40    7.90
  -2  -4  15   -0.50    6.50
  -2  -4  15   -1.70    4.20
  -2  -4  15    0.10    5.90
  -1  -4  15   -2.50    3.70
  -1  -4  15   12.90   15.40
  -1  -4  15    5.80    7.90
   0  -4  15    0.40    6.50
   0  -4  15    6.70    6.20
   1  -4  15   49.90   20.40
   1  -4  15   30.50   13.80
   2  -4  15   75.39   18.70
   2  -4  15   23.20   12.60
  -5  -3  15   71.29   16.60
  -5  -3  15   33.10   14.50
  -4  -3  15  114.49   17.00
  -4  -3  15   45.60   24.60
  -3  -3  15   23.00   13.80
  -3  -3  15   17.80    9.00
  -3  -3  15   14.50    8.50
  -2  -3  15   -2.40    4.10
  -2  -3  15    2.40    7.70
  -2  -3  15   -3.10    8.90
  -1  -3  15    3.00    6.10
  -1  -3  15   -0.60    5.60
  -1  -3  15   -1.90    4.20
   0  -3  15    6.80    8.00
   0  -3  15    3.30    5.00
   0  -3  15    0.70    6.60
   1  -3  15   48.90   11.40
   1  -3  15   47.70   15.10
   1  -3  15   52.99   16.10
   2  -3  15   -1.00    6.70
   2  -3  15    7.70    8.30
   3  -3  15   -4.10    6.70
   3  -3  15   -2.00    6.40
   4  -3  15   16.60   10.80
   4  -3  15   28.60   14.40
  -5  -2  15   19.10    9.40
  -5  -2  15   11.40   12.30
  -4  -2  15    6.30    7.10
  -4  -2  15   -7.20    4.70
  -3  -2  15    7.00    6.50
  -3  -2  15   -2.90    5.90
  -3  -2  15    2.50    5.10
  -2  -2  15   17.50    7.60
  -2  -2  15   14.90    9.40
  -2  -2  15    4.70    6.70
  -1  -2  15   29.80   11.50
  -1  -2  15    6.60    5.90
  -1  -2  15   19.40   10.80
   0  -2  15    7.10    5.70
   0  -2  15    2.30    6.80
   0  -2  15    5.40    7.10
   1  -2  15   23.00   11.60
   1  -2  15   26.70    8.90
   1  -2  15   47.20   15.50
   2  -2  15   14.90   11.20
   2  -2  15   13.40   10.20
   2  -2  15    1.60    4.30
   3  -2  15   -2.60    6.40
   3  -2  15    1.40    7.00
   4  -2  15   30.10   13.30
   4  -2  15   47.90   15.10
   5  -2  15    1.50    7.20
   5  -2  15    1.40    8.80
  -6  -1  15   66.49   19.00
  -6  -1  15   94.49   23.20
  -5  -1  15    0.40    5.40
  -5  -1  15    3.50    7.20
  -4  -1  15   -1.70    5.50
  -4  -1  15    1.90    4.80
  -3  -1  15    0.70    5.20
  -3  -1  15    6.80    6.20
  -3  -1  15    5.90    8.00
  -2  -1  15   99.09   15.40
  -2  -1  15   73.99   15.00
  -2  -1  15   88.39   19.40
  -1  -1  15   26.90    9.40
  -1  -1  15   41.20   12.00
  -1  -1  15   25.60   12.40
   0  -1  15   39.00   14.40
   0  -1  15   42.20   13.10
   1  -1  15    6.50    6.30
   1  -1  15    9.40    8.20
   1  -1  15   11.50    8.70
   2  -1  15    8.40    5.60
   2  -1  15    2.00    6.20
   2  -1  15   11.60    8.50
   3  -1  15   44.80   14.80
   3  -1  15   24.50    9.20
   3  -1  15    7.20    8.60
   4  -1  15    2.80    7.40
   4  -1  15   -0.50    5.50
   5  -1  15   -4.40    5.30
   5  -1  15    7.70    8.80
   6  -1  15   13.60   10.80
   6  -1  15    9.70   16.00
  -6   0  15    4.90    7.10
  -6   0  15   18.80   11.00
  -5   0  15   16.60    9.20
  -5   0  15   17.90   10.30
  -4   0  15    9.70    8.40
  -4   0  15    6.50    6.40
  -3   0  15   11.20    7.60
  -3   0  15    4.60    5.10
  -3   0  15    0.50    6.20
  -2   0  15    1.10    6.60
  -2   0  15    2.10    5.90
  -2   0  15    3.10    5.80
  -1   0  15   62.29   14.00
  -1   0  15   48.10   12.00
  -1   0  15   85.09   19.40
   0   0  15   18.50    9.20
   0   0  15   10.00   10.00
   0   0  15   15.00    8.00
   1   0  15   15.70    9.50
   1   0  15   -3.20    4.20
   1   0  15    8.00    5.90
   2   0  15    6.20    7.70
   2   0  15   13.20    9.50
   2   0  15    6.10    5.40
   3   0  15    9.10    6.10
   3   0  15    9.80    8.60
   3   0  15   14.70   10.30
   4   0  15   20.80    8.20
   4   0  15   19.60   10.90
   4   0  15   14.10    9.60
   5   0  15   -2.10    6.40
   5   0  15   -5.40    5.80
   6   0  15    5.80   12.50
   6   0  15    9.40    9.60
  -6   1  15   46.60   15.50
  -6   1  15   28.50   12.50
  -5   1  15    0.70    5.50
  -5   1  15   11.30    8.90
  -4   1  15   -3.70    3.80
  -4   1  15   11.70   10.20
  -3   1  15   37.00   15.40
  -3   1  15   27.60   11.10
  -2   1  15   23.30    8.80
  -2   1  15   15.20    9.40
  -2   1  15   16.20    8.90
  -1   1  15   13.40    7.30
  -1   1  15    2.60    6.20
  -1   1  15    0.20    6.60
   0   1  15    2.80    6.60
   0   1  15    4.10    5.10
   0   1  15   10.60    7.50
   1   1  15   -5.60    3.80
   1   1  15   -2.40    4.10
   2   1  15   26.10   14.10
   2   1  15   64.99   19.70
   2   1  15   31.40    9.50
   3   1  15   18.10    9.80
   3   1  15   -1.60    6.20
   3   1  15   11.40    6.70
   4   1  15   64.79   17.40
   4   1  15   76.59   12.10
   4   1  15   63.99   17.30
   5   1  15    5.30    8.10
   5   1  15    0.70    3.80
   5   1  15   -0.50    6.20
   6   1  15    2.80    8.50
   6   1  15   11.20   11.50
   7   1  15    6.30   10.60
  -6   2  15   31.00   12.60
  -6   2  15    5.50    7.90
  -5   2  15    1.60    6.30
  -5   2  15    5.30    6.70
  -4   2  15   -3.40    5.20
  -4   2  15   -0.40    5.40
  -3   2  15   21.40   10.30
  -3   2  15   31.20   13.70
  -2   2  15   71.89   11.60
  -2   2  15   95.29   20.00
  -2   2  15   55.29   14.30
  -1   2  15    6.20    6.00
  -1   2  15    5.20    8.10
  -1   2  15    1.80    4.30
   0   2  15    6.40    8.00
   0   2  15    1.40    5.10
   0   2  15   13.30    8.50
   1   2  15   -0.80    5.40
   1   2  15    4.20    5.00
   1   2  15    0.20    5.60
   2   2  15   31.60   13.10
   2   2  15   22.60    9.70
   3   2  15   74.89   18.50
   3   2  15   88.99   14.10
   3   2  15   51.99   14.30
   4   2  15   -6.20    4.80
   4   2  15   13.00    7.60
   4   2  15   15.90   10.50
   5   2  15   18.10    9.90
   5   2  15   15.40   10.70
   5   2  15   12.70    7.30
   6   2  15    7.70    8.30
   6   2  15   -3.30    6.00
   6   2  15   -3.70    3.70
   7   2  15    8.30   11.50
   7   2  15   14.10   10.70
  -6   3  15   30.10   12.30
  -6   3  15   19.40   14.60
  -5   3  15   14.20   10.00
  -5   3  15    7.50    8.20
  -4   3  15   50.79   15.30
  -4   3  15   40.80   14.90
  -3   3  15   54.59   16.10
  -3   3  15   47.70   13.50
  -2   3  15   -3.30    4.80
  -2   3  15   16.30    6.90
  -2   3  15    7.90    7.40
  -1   3  15    0.20    6.80
  -1   3  15    1.70    4.40
  -1   3  15   11.60    7.70
   0   3  15    1.40    5.70
   0   3  15    8.00    8.30
   0   3  15   -2.60    4.10
   1   3  15   26.30    9.50
   1   3  15   11.60    8.50
   1   3  15   38.60   11.80
   2   3  15   46.00   14.00
   2   3  15   52.79   12.90
   2   3  15   85.39   21.40
   3   3  15   16.40   12.10
   3   3  15   15.60    7.60
   3   3  15   15.40   11.00
   4   3  15    9.10    6.90
   4   3  15   -0.30    5.70
   4   3  15    0.60    5.90
   5   3  15   28.00   11.50
   5   3  15   44.70   15.70
   5   3  15   41.50   15.20
   6   3  15   10.60   11.20
   6   3  15   14.10   11.40
   6   3  15   13.80    9.30
   7   3  15   47.80   25.40
   7   3  15   16.00   10.30
   7   3  15   28.20   14.20
  -6   4  15    2.10    6.90
  -6   4  15   -2.90    4.90
  -5   4  15   21.10   10.50
  -5   4  15   13.70    9.50
  -4   4  15   26.50   11.10
  -4   4  15   48.00   14.00
  -3   4  15   31.60   12.40
  -3   4  15   17.20    8.90
  -2   4  15   21.00    9.90
  -2   4  15   27.80   12.10
  -1   4  15    6.70    7.60
  -1   4  15   -1.40    6.30
  -1   4  15   -3.00    4.00
   0   4  15   18.80    8.70
   0   4  15   27.80   10.70
   0   4  15   32.50   13.50
   1   4  15   12.80    8.30
   1   4  15   -2.10    3.80
   1   4  15   -4.10    4.80
   2   4  15   53.99   15.90
   2   4  15   46.10   12.60
   2   4  15   76.09   17.40
   3   4  15    8.30    8.60
   3   4  15    0.00    5.10
   3   4  15    5.80    5.90
   4   4  15    0.10    7.10
   4   4  15    0.40    4.20
   4   4  15   11.00   10.10
   5   4  15   44.80   12.50
   5   4  15   67.59   18.50
   5   4  15   51.09   16.00
   6   4  15    4.60    8.80
   6   4  15    7.50    8.40
   6   4  15   15.20    8.50
   7   4  15    8.80    6.20
   7   4  15    7.80   10.20
   7   4  15    3.50   10.10
  -5   5  15   53.39   12.80
  -5   5  15   35.60   13.30
  -4   5  15   95.69   20.90
  -4   5  15   81.59   18.30
  -3   5  15   15.20    9.50
  -3   5  15    7.90    5.70
  -3   5  15   22.60   10.80
  -2   5  15   -8.30    4.20
  -2   5  15   -3.50    4.20
  -1   5  15   31.50    8.70
  -1   5  15   32.40   12.00
  -1   5  15   34.00   12.00
   0   5  15    1.90    5.90
   0   5  15    2.10    5.30
   0   5  15   -2.40    5.10
   1   5  15   46.50   15.10
   1   5  15   28.10   10.00
   1   5  15   28.70   10.20
   2   5  15   -1.30    5.60
   2   5  15    0.60    5.20
   2   5  15   21.00   10.70
   3   5  15   -2.40    5.30
   3   5  15    1.00    5.00
   3   5  15   -3.00    5.00
   4   5  15   29.70   12.60
   4   5  15   15.10    8.60
   4   5  15   39.30   14.00
   5   5  15   52.09   12.50
   5   5  15   50.99   15.70
   5   5  15   42.00   14.90
   6   5  15    1.00    8.40
   6   5  15    0.60    4.70
   6   5  15   -1.80    7.20
   7   5  15    7.00    9.00
   7   5  15    9.80   10.10
   7   5  15    7.60    6.40
  -5   6  15   38.60   13.50
  -5   6  15   49.80   12.70
  -5   6  15   61.19   17.00
  -4   6  15   14.40    9.40
  -4   6  15    5.20    7.70
  -4   6  15    6.40    6.30
  -3   6  15    9.20    6.10
  -3   6  15    6.30    7.60
  -3   6  15    3.80    6.90
  -2   6  15    6.80    7.90
  -2   6  15    2.30    4.40
  -2   6  15    4.40    6.70
  -1   6  15    8.00    4.80
  -1   6  15    9.70    8.60
  -1   6  15    4.00    5.00
  -1   6  15    7.90    7.00
   0   6  15   19.60    9.40
   0   6  15   15.10   10.00
   0   6  15   14.70    7.60
   1   6  15   47.70   14.90
   1   6  15   30.20   10.70
   1   6  15   35.60   11.90
   2   6  15   10.10    9.50
   2   6  15    5.60    6.70
   2   6  15    2.20    6.70
   3   6  15    0.60    5.80
   3   6  15   -3.60    5.00
   3   6  15    0.20    4.80
   4   6  15   12.50   10.00
   4   6  15   11.60    9.40
   4   6  15   15.10    8.40
   5   6  15  102.49   16.40
   5   6  15   99.09   21.90
   5   6  15   57.09   16.90
   6   6  15    1.50    5.40
   6   6  15    7.70   10.50
   6   6  15   -2.10    6.50
   7   6  15   15.40   11.70
   7   6  15   -1.20    4.90
   7   6  15   12.20    9.60
  -4   7  15    9.90    7.30
  -4   7  15   12.70    8.70
  -4   7  15   37.80   13.80
  -3   7  15   -5.30    4.70
  -3   7  15   -0.10    6.00
  -3   7  15    4.90    5.50
  -2   7  15   10.10    7.80
  -2   7  15   21.10    7.90
  -2   7  15   20.30   10.80
  -1   7  15   -3.60    4.50
  -1   7  15    0.10    4.10
  -1   7  15    0.10    6.10
   0   7  15   66.89   16.90
   0   7  15   84.09   13.90
   0   7  15   77.89   19.20
   1   7  15    3.50    7.10
   1   7  15    8.50    8.00
   1   7  15   15.00    8.20
   2   7  15    6.30    6.60
   2   7  15    8.50    8.00
   2   7  15    4.90    7.10
   3   7  15    1.00    6.30
   3   7  15    5.90    6.70
   3   7  15    5.10    7.40
   4   7  15   22.90   12.50
   4   7  15    2.20    6.10
   4   7  15   12.30    8.90
   5   7  15    4.10    6.50
   5   7  15   11.00    8.00
   5   7  15   13.00   10.60
   6   7  15   12.30   11.40
   6   7  15    8.90    7.60
  -3   8  15    2.10    5.40
  -3   8  15   -1.50    5.60
  -3   8  15   -3.10    4.70
  -2   8  15   17.20   10.30
  -2   8  15    8.80   10.60
  -1   8  15   37.50   13.50
  -1   8  15   38.10    8.90
  -1   8  15   33.90   12.40
   0   8  15    0.50    4.90
   0   8  15   10.10    8.60
   0   8  15    4.50    7.10
   1   8  15    1.50    6.10
   1   8  15    7.70    8.00
   1   8  15    6.80    7.40
   2   8  15   16.80    9.70
   2   8  15   -1.90    5.50
   3   8  15   30.30   11.80
   3   8  15   34.70   13.20
   3   8  15   31.90   13.70
   4   8  15   14.10    9.90
   4   8  15   10.50    9.50
   4   8  15    0.10    6.80
   5   8  15   27.40   14.10
   5   8  15   10.70    7.90
   5   8  15   34.00   14.70
   6   8  15    5.30    7.10
   6   8  15   14.00   10.50
   6   8  15    8.50    9.90
  -2   9  15   14.60    7.60
  -2   9  15    8.50    8.50
  -2   9  15   15.60    9.20
  -1   9  15   40.10   15.30
  -1   9  15   16.20    9.20
   0   9  15    7.90    7.80
   1   9  15    7.50    9.40
   1   9  15   11.60    8.40
   1   9  15    9.80    9.50
   2   9  15   29.10   11.80
   2   9  15   32.50   13.90
   2   9  15   32.00   12.20
   3   9  15   37.60   12.70
   3   9  15   38.70   14.70
   3   9  15   12.90    9.30
   4   9  15   29.10   13.00
   4   9  15   41.10   14.80
   4   9  15   21.70   11.70
   5   9  15    9.80   10.50
   5   9  15   -3.10    6.10
  -1  -2  16    6.60    7.90
  -1  -2  16    2.70    7.50
  -1  -2  16    7.20    6.70
   0  -2  16    5.70    5.40
   0  -2  16    5.90    8.60
   0  -2  16    9.20   10.40
   1  -2  16   -0.50    4.90
   1  -2  16   -5.50    5.40
   1  -2  16    3.80    8.10
  -3  -1  16    7.00    8.90
  -3  -1  16   16.40    8.80
  -2  -1  16   53.09   20.30
  -2  -1  16   70.99   15.20
  -2  -1  16   34.60   11.80
  -1  -1  16   20.60   12.90
  -1  -1  16   -0.10    4.90
   0  -1  16    4.70    6.60
   0  -1  16   -2.90    5.50
   0  -1  16   -6.80    7.00
   1  -1  16    4.80    8.00
   1  -1  16    2.70    8.50
   1  -1  16    1.50    5.20
   2  -1  16    2.10    6.70
   2  -1  16    2.20    6.80
   2  -1  16    0.60    6.60
   3  -1  16   -1.70    7.10
   3  -1  16   10.00    9.40
  -3   0  16   -3.40    7.60
  -3   0  16   20.80   10.30
  -2   0  16    6.30    7.50
  -2   0  16   22.30    9.90
  -1   0  16   19.90    9.30
  -1   0  16   14.50    8.60
  -1   0  16   21.30   12.00
   0   0  16   -0.50    6.10
   0   0  16    7.10    8.60
   0   0  16   -0.30    4.80
   1   0  16   -2.60    5.20
   1   0  16    0.20    7.40
   1   0  16    1.10    4.90
   2   0  16    9.60   15.70
   2   0  16   -1.40    4.10
   2   0  16    5.20    8.10
   3   0  16   30.50   15.60
   3   0  16    0.60    6.70
   4   0  16    9.10    9.00
   4   0  16    7.40   10.60
  -4   1  16   19.80    9.80
  -4   1  16   17.00   10.60
  -3   1  16   16.80    9.10
  -3   1  16   30.80   12.70
  -2   1  16   14.90    8.90
  -2   1  16   -1.40    6.70
  -1   1  16    5.70    7.00
  -1   1  16    0.20    4.70
  -1   1  16    4.70    7.70
   0   1  16    7.30    6.40
   0   1  16    4.60    8.50
   0   1  16   -0.30    5.60
   1   1  16   18.30    9.50
   1   1  16   37.30   11.80
   1   1  16   18.90   11.00
   2   1  16    4.20    5.30
   2   1  16    7.90    8.80
   2   1  16    7.30    7.50
   3   1  16   14.80   17.40
   3   1  16    9.70    8.80
   3   1  16    6.50    5.80
   4   1  16    7.80    6.80
   4   1  16   20.20   12.30
   4   1  16    7.00    9.60
  -4   2  16    0.20    6.30
  -4   2  16   -3.40    5.10
  -3   2  16   36.50   14.30
  -3   2  16   56.89   15.00
  -2   2  16   -1.60    4.80
  -2   2  16    1.90    7.00
  -1   2  16   12.80   10.40
  -1   2  16   13.10    7.40
  -1   2  16    0.50    5.00
   0   2  16    6.20    6.30
   0   2  16    2.20    7.10
   0   2  16    3.80    6.10
   1   2  16   12.60   10.70
   1   2  16   17.20   10.20
   1   2  16   32.30   11.10
   2   2  16    0.70    5.40
   2   2  16   22.90   10.40
   2   2  16   25.20   13.00
   3   2  16    3.90    8.30
   3   2  16   23.50    8.40
   3   2  16   15.70   12.10
   4   2  16    2.30    5.00
   4   2  16    3.60    8.20
   4   2  16   -4.80    8.20
   5   2  16   10.00    7.00
   5   2  16    3.70    7.60
   5   2  16   14.20   11.40
  -4   3  16   28.10   12.60
  -4   3  16    4.20   13.80
  -3   3  16   28.40   12.10
  -3   3  16   24.30   12.40
  -2   3  16   20.60    9.90
  -2   3  16    0.80    6.30
  -1   3  16   12.30   10.60
  -1   3  16   33.20   11.70
  -1   3  16    4.70    6.30
   0   3  16   -1.00    5.20
   0   3  16   -5.50    4.90
   0   3  16    2.60    4.90
   1   3  16    4.10    6.10
   1   3  16   19.60    9.70
   1   3  16    0.10    6.20
   2   3  16   35.20   12.60
   2   3  16   39.90   12.50
   2   3  16   59.39   18.40
   3   3  16   -3.60    7.00
   3   3  16    3.10    7.00
   3   3  16   11.10    6.90
   4   3  16    0.20    5.10
   4   3  16    1.90    7.80
   5   3  16    6.60    9.80
   5   3  16   14.60   11.10
   5   3  16    8.70    6.50
  -4   4  16    6.70    8.20
  -4   4  16   10.70    8.70
  -3   4  16   -0.60    6.00
  -3   4  16   19.20   11.00
  -2   4  16    0.90    5.50
  -2   4  16   20.40   11.30
  -1   4  16    4.10    5.70
  -1   4  16    2.90    7.00
   0   4  16   39.00   13.70
   0   4  16   50.59   14.80
   0   4  16   46.70   12.20
   1   4  16    3.60    6.30
   1   4  16   -3.50    4.70
   1   4  16    1.60    4.90
   2   4  16   11.90    8.80
   2   4  16    2.10    5.30
   2   4  16    4.00    6.20
   3   4  16   -2.70    6.50
   3   4  16    6.20    7.10
   3   4  16   -4.00    5.90
   4   4  16    3.70    8.50
   4   4  16    8.30    6.90
   5   4  16   21.10   11.50
   5   4  16   19.80   12.80
   5   4  16   14.10    8.90
  -3   5  16   13.50   10.00
  -3   5  16   -0.40    6.30
  -2   5  16    6.40    7.60
  -2   5  16   -4.10    5.40
  -1   5  16   24.70   11.40
  -1   5  16   23.50   10.60
   0   5  16   -1.40    5.10
   0   5  16    2.10    5.20
   0   5  16    3.60    6.40
   1   5  16   25.70   10.30
   1   5  16   25.30   11.50
   1   5  16   16.40   10.60
   2   5  16    1.20    6.50
   2   5  16    1.10    5.80
   2   5  16    2.90    7.30
   3   5  16   10.50    7.90
   3   5  16   -2.20    5.10
   3   5  16   12.60   10.30
   4   5  16   41.70   13.40
   4   5  16   16.50   10.40
   5   5  16   11.10    8.10
   5   5  16   35.00   14.20
   5   5  16   14.50   10.90
  -2   6  16   15.90   10.80
  -2   6  16    7.30   12.00
  -1   6  16   13.90    8.90
  -1   6  16   19.30   10.40
   0   6  16   42.60   13.60
   0   6  16   42.40   14.40
   0   6  16   51.49   16.50
   1   6  16   -1.20    4.70
   1   6  16   -3.80    5.40
   1   6  16   -2.40    5.90
   2   6  16   -5.70    4.20
   2   6  16    1.50    6.90
   2   6  16    3.20    7.00
   3   6  16   26.60   11.70
   3   6  16    4.10    7.90
   3   6  16    6.60    7.50
   4   6  16   -0.40    6.60
   4   6  16   10.60   11.80
   4   6  16   -1.70    5.00
  -1   7  16   12.40   10.20
  -1   7  16   13.70    9.50
   0   7  16   16.20   14.90
   0   7  16   10.10    8.60
   1   7  16    7.10    8.60
   1   7  16    8.50    7.90
   1   7  16   -1.00    6.30
   2   7  16   14.70    9.10
   2   7  16    5.70    8.10
   2   7  16   11.30    9.30
   3   7  16   18.30   17.00
   3   7  16    7.10    8.00
   3   7  16    7.40    8.30
   0   0   0    0.00    0.00

_computing_structure_solution     'SHELXT 2018/2 (Sheldrick, 2018)'
;
_shelx_hkl_checksum    4336

