 
data_pvl1140_a
 
_audit_creation_method            'SHELXL-2018/3'
_shelx_SHELXL_version_number      '2018/3'
_chemical_name_systematic         ?
_chemical_name_common             ?
_chemical_melting_point           ?
_chemical_formula_moiety          ?
_chemical_formula_sum
 'C H N O S Zn' 
_chemical_formula_weight          140.46

loop_
 _atom_type_symbol
 _atom_type_description
 _atom_type_scat_dispersion_real
 _atom_type_scat_dispersion_imag
 _atom_type_scat_source
 'C'  'C'   0.0033   0.0016
 'International Tables Vol C Tables 4.2.6.8 and 6.1.1.4'
 'H'  'H'   0.0000   0.0000
 'International Tables Vol C Tables 4.2.6.8 and 6.1.1.4'
 'N'  'N'   0.0061   0.0033
 'International Tables Vol C Tables 4.2.6.8 and 6.1.1.4'
 'O'  'O'   0.0106   0.0060
 'International Tables Vol C Tables 4.2.6.8 and 6.1.1.4'
 'S'  'S'   0.1246   0.1234
 'International Tables Vol C Tables 4.2.6.8 and 6.1.1.4'
 'Zn'  'Zn'   0.2839   1.4301
 'International Tables Vol C Tables 4.2.6.8 and 6.1.1.4'
 
_space_group_crystal_system       triclinic
_space_group_IT_number            2
_space_group_name_H-M_alt         'P -1'
_space_group_name_Hall            '-P 1'
 
_shelx_space_group_comment
;
The symmetry employed for this shelxl refinement is uniquely defined
by the following loop, which should always be used as a source of
symmetry information in preference to the above space-group names.
They are only intended as comments.
;
 
loop_
 _space_group_symop_operation_xyz
 'x, y, z'
 '-x, -y, -z'
 
_cell_length_a                    9.884(2)
_cell_length_b                    18.476(4)
_cell_length_c                    19.530(4)
_cell_angle_alpha                 113.229(5)
_cell_angle_beta                  90.418(7)
_cell_angle_gamma                 94.136(6)
_cell_volume                      3266.2(13)
_cell_formula_units_Z             30
_cell_measurement_temperature     150(2)
_cell_measurement_reflns_used     ?
_cell_measurement_theta_min       ?
_cell_measurement_theta_max       ?
 
_exptl_crystal_description        ?
_exptl_crystal_colour             ?
_exptl_crystal_density_meas       ?
_exptl_crystal_density_method     ?
_exptl_crystal_density_diffrn     2.142          
_exptl_crystal_F_000              2040
_exptl_transmission_factor_min    ?
_exptl_transmission_factor_max    ?
_exptl_crystal_size_max           ?
_exptl_crystal_size_mid           ?
_exptl_crystal_size_min           ?
_exptl_absorpt_coefficient_mu     5.930
_shelx_estimated_absorpt_T_min    ?
_shelx_estimated_absorpt_T_max    ?
_exptl_absorpt_correction_type    ?
_exptl_absorpt_correction_T_min   ?
_exptl_absorpt_correction_T_max   ?
_exptl_absorpt_process_details    ?
_exptl_absorpt_special_details    ?
_diffrn_ambient_temperature       150(2)
_diffrn_radiation_wavelength      0.71073
_diffrn_radiation_type            MoK\a
_diffrn_source                    ?
_diffrn_measurement_device_type   ?
_diffrn_measurement_method        ?
_diffrn_detector_area_resol_mean  ?
_diffrn_reflns_number             22314
_diffrn_reflns_av_unetI/netI      0.1365
_diffrn_reflns_av_R_equivalents   0.0929
_diffrn_reflns_limit_h_min        -10
_diffrn_reflns_limit_h_max        10
_diffrn_reflns_limit_k_min        -20
_diffrn_reflns_limit_k_max        20
_diffrn_reflns_limit_l_min        -21
_diffrn_reflns_limit_l_max        21
_diffrn_reflns_theta_min          1.955
_diffrn_reflns_theta_max          23.319
_diffrn_reflns_theta_full         23.319
_diffrn_measured_fraction_theta_max   0.954
_diffrn_measured_fraction_theta_full  0.954
_diffrn_reflns_Laue_measured_fraction_max    0.954
_diffrn_reflns_Laue_measured_fraction_full   0.954
_diffrn_reflns_point_group_measured_fraction_max   0.954
_diffrn_reflns_point_group_measured_fraction_full  0.954
_reflns_number_total              9003
_reflns_number_gt                 5626
_reflns_threshold_expression      'I > 2\s(I)'
_reflns_Friedel_coverage          0.000
_reflns_Friedel_fraction_max      .
_reflns_Friedel_fraction_full     .
 
_reflns_special_details
;
 Reflections were merged by SHELXL according to the crystal
 class for the calculation of statistics and refinement.
 
 _reflns_Friedel_fraction is defined as the number of unique
 Friedel pairs measured divided by the number that would be
 possible theoretically, ignoring centric projections and
 systematic absences.
;
 
_computing_data_collection        ?
_computing_cell_refinement        ?
_computing_data_reduction         ?
_computing_structure_solution     'SHELXT 2018/2 (Sheldrick, 2018)'
_computing_structure_refinement 'SHELXL-2018/3 (Sheldrick, 2018)'
_computing_molecular_graphics     ?
_computing_publication_material   ?
_refine_special_details           ?
_refine_ls_structure_factor_coef  Fsqd
_refine_ls_matrix_type            full
_refine_ls_weighting_scheme       calc
_refine_ls_weighting_details
'w=1/[\s^2^(Fo^2^)+(0.1000P)^2^] where P=(Fo^2^+2Fc^2^)/3'
_atom_sites_solution_primary      ?
_atom_sites_solution_secondary    ?
_atom_sites_solution_hydrogens    geom
_refine_ls_hydrogen_treatment     constr
_refine_ls_extinction_method      none
_refine_ls_extinction_coef        .
_refine_ls_number_reflns          9003
_refine_ls_number_parameters      666
_refine_ls_number_restraints      0
_refine_ls_R_factor_all           0.1786
_refine_ls_R_factor_gt            0.1231
_refine_ls_wR_factor_ref          0.3539
_refine_ls_wR_factor_gt           0.3369
_refine_ls_goodness_of_fit_ref    1.874
_refine_ls_restrained_S_all       1.874
_refine_ls_shift/su_max           0.251
_refine_ls_shift/su_mean          0.007
 
loop_
 _atom_site_label
 _atom_site_type_symbol
 _atom_site_fract_x
 _atom_site_fract_y
 _atom_site_fract_z
 _atom_site_U_iso_or_equiv
 _atom_site_adp_type
 _atom_site_occupancy
 _atom_site_site_symmetry_order  
 _atom_site_calc_flag
 _atom_site_refinement_flags_posn
 _atom_site_refinement_flags_adp
 _atom_site_refinement_flags_occupancy
 _atom_site_disorder_assembly
 _atom_site_disorder_group
Zn01 Zn 0.000000 1.000000 0.000000 0.0225(6) Uani 1 2 d S . P . .
Zn02 Zn 0.500000 0.500000 0.000000 0.0241(7) Uani 1 2 d S . P . .
Zn03 Zn 0.03396(18) 0.93834(10) 0.82220(9) 0.0256(5) Uani 1 1 d . . . . .
Zn04 Zn 0.56038(18) 0.58421(10) 0.17862(9) 0.0250(5) Uani 1 1 d . . . . .
S1 S 0.3845(12) 0.9420(5) 0.4268(4) 0.155(5) Uani 1 1 d . . . . .
O006 O 0.4271(11) 0.6081(6) 0.0400(6) 0.035(3) Uani 1 1 d . . . . .
O007 O 0.0800(10) 0.9240(6) 0.0382(6) 0.028(3) Uani 1 1 d . . . . .
O008 O 0.1330(10) 0.0932(6) 0.0720(6) 0.029(2) Uani 1 1 d . . . . .
O009 O 0.1450(9) 0.9757(6) 0.9155(5) 0.024(2) Uani 1 1 d . . . . .
O00A O 0.6575(10) 0.5475(6) 0.0877(5) 0.028(2) Uani 1 1 d . . . . .
O00B O 0.0851(11) 0.9758(6) 0.1634(5) 0.031(3) Uani 1 1 d . . . . .
O00C O 0.3766(10) 0.4624(6) 0.0678(6) 0.032(3) Uani 1 1 d . . . . .
O00D O 0.4408(11) 0.6584(6) 0.1641(6) 0.036(3) Uani 1 1 d . . . . .
O00E O 0.0701(11) 0.1601(6) 0.1869(6) 0.035(3) Uani 1 1 d . . . . .
O00F O 0.4536(11) 0.4940(6) 0.1837(6) 0.035(3) Uani 1 1 d . . . . .
O00G O 0.2781(11) 0.8912(7) 0.8419(6) 0.040(3) Uani 1 1 d . . . . .
O00H O 0.8102(11) 0.5329(8) 0.1616(6) 0.051(3) Uani 1 1 d . . . . .
O2 O 0.406(3) 0.7117(15) 0.6887(13) 0.173(11) Uani 1 1 d . . . . .
N00J N 0.1053(13) 0.9297(7) 0.7259(7) 0.032(3) Uani 1 1 d . . . . .
N00K N 0.2185(15) 0.8960(8) 0.6232(7) 0.041(4) Uani 1 1 d . . . . .
C00L C 0.3805(15) 0.4515(9) 0.1260(9) 0.026(4) Uani 1 1 d . . . . .
C00M C 0.3976(15) 0.6569(9) 0.1020(9) 0.027(4) Uani 1 1 d . . . . .
N00N N 0.5716(14) 0.7206(8) 0.3996(7) 0.039(4) Uani 1 1 d . . . . .
N2 N 0.308(2) 0.9410(11) 0.4976(10) 0.105(9) Uani 1 1 d . . . . .
N3 N 0.6156(13) 0.6478(7) 0.2849(7) 0.032(3) Uani 1 1 d . . . . .
N4 N 0.335(2) 1.1150(11) 0.3133(10) 0.073(5) Uani 1 1 d . . . . .
N5 N 0.2836(18) 1.1472(10) 0.7855(11) 0.063(5) Uani 1 1 d . . . . .
N6 N 0.310(2) 0.6518(11) 0.7566(10) 0.077(6) Uani 1 1 d . . . . .
C00O C 0.1188(15) 0.9264(9) 0.1012(10) 0.030(4) Uani 1 1 d . . . . .
C00P C 0.1348(16) 0.1531(8) 0.1290(9) 0.028(4) Uani 1 1 d . . . . .
C1 C 0.3623(15) 0.9709(9) 0.9674(8) 0.030(4) Uani 1 1 d . . . . .
H1 H 0.313578 0.978309 1.014074 0.037 Uiso 1 1 calc R U . . .
C00S C 0.4919(18) 0.7684(10) 0.4578(9) 0.040(4) Uani 1 1 d . . . . .
C00T C 0.2863(16) 0.3836(8) 0.1290(9) 0.032(4) Uani 1 1 d . . . . .
H00T H 0.191019 0.398456 0.128918 0.038 Uiso 1 1 calc R U . . .
C00U C 0.5720(15) 0.9471(9) 1.0239(9) 0.031(4) Uani 1 1 d . . . . .
H00A H 0.643766 0.910163 1.015604 0.037 Uiso 1 1 calc R U . . .
H00B H 0.527609 0.952043 1.070653 0.037 Uiso 1 1 calc R U . . .
C00V C 0.2536(15) 0.9406(9) 0.9015(8) 0.025(4) Uani 1 1 d . . . . .
C00W C 0.8705(15) 0.5010(9) 0.0338(9) 0.029(4) Uani 1 1 d . . . . .
H00W H 0.813389 0.469834 -0.012397 0.035 Uiso 1 1 calc R U . . .
C00X C 0.9748(16) 0.4483(9) 0.0407(9) 0.034(4) Uani 1 1 d . . . . .
H00C H 0.928099 0.400241 0.043309 0.041 Uiso 1 1 calc R U . . .
H00D H 1.030166 0.476404 0.087447 0.041 Uiso 1 1 calc R U . . .
C00Y C 0.2091(18) 0.8921(10) 0.6918(8) 0.040(5) Uani 1 1 d . . . . .
H00Y H 0.268286 0.866159 0.711514 0.048 Uiso 1 1 calc R U . . .
C00Z C 0.4679(15) 0.9135(9) 0.9595(9) 0.030(4) Uani 1 1 d . . . . .
H00E H 0.423221 0.863283 0.958365 0.036 Uiso 1 1 calc R U . . .
H00F H 0.513867 0.902040 0.911956 0.036 Uiso 1 1 calc R U . . .
C2 C 0.9326(16) 0.5755(10) 0.0254(9) 0.033(4) Uani 1 1 d . . . . .
H2A H 0.985432 0.609822 0.071546 0.040 Uiso 1 1 calc R U . . .
H2B H 0.859534 0.605582 0.017399 0.040 Uiso 1 1 calc R U . . .
C010 C 0.2257(17) 0.2252(9) 0.1312(9) 0.034(4) Uani 1 1 d . . . . .
H010 H 0.321862 0.211419 0.130468 0.041 Uiso 1 1 calc R U . . .
C011 C 0.4607(18) 0.7468(10) 0.5165(8) 0.041(5) Uani 1 1 d . . . . .
H011 H 0.497066 0.701863 0.519506 0.050 Uiso 1 1 calc R U . . .
C012 C 0.7750(16) 0.5257(9) 0.0997(9) 0.030(4) Uani 1 1 d . . . . .
C013 C 0.1995(19) 0.7904(9) 0.0352(9) 0.040(5) Uani 1 1 d . . . . .
H01A H 0.207475 0.801548 -0.010267 0.049 Uiso 1 1 calc R U . . .
H01B H 0.107323 0.764936 0.033939 0.049 Uiso 1 1 calc R U . . .
C014 C 0.3026(17) 0.7195(9) 0.1056(9) 0.035(4) Uani 1 1 d . . . . .
H014 H 0.209408 0.695141 0.106766 0.042 Uiso 1 1 calc R U . . .
C015 C 0.1993(17) 0.2396(9) 0.0603(8) 0.034(4) Uani 1 1 d . . . . .
H01C H 0.212121 0.191108 0.015724 0.041 Uiso 1 1 calc R U . . .
H01D H 0.104690 0.253244 0.058446 0.041 Uiso 1 1 calc R U . . .
C016 C 0.2982(18) 0.3075(9) 0.0605(9) 0.037(4) Uani 1 1 d . . . . .
H01E H 0.280025 0.317306 0.015095 0.045 Uiso 1 1 calc R U . . .
H01F H 0.392164 0.291799 0.058877 0.045 Uiso 1 1 calc R U . . .
C017 C 0.5382(17) 0.7001(9) 0.3268(8) 0.036(4) Uani 1 1 d . . . . .
H017 H 0.467581 0.720992 0.308792 0.043 Uiso 1 1 calc R U . . .
C018 C 0.303(2) 0.7339(10) 0.0343(9) 0.047(5) Uani 1 1 d . . . . .
H01G H 0.282061 0.683053 -0.008872 0.056 Uiso 1 1 calc R U . . .
H01H H 0.394063 0.755872 0.028305 0.056 Uiso 1 1 calc R U . . .
C019 C 0.2168(17) 0.8686(9) 0.1040(9) 0.033(4) Uani 1 1 d . . . . .
H019 H 0.309613 0.892949 0.101990 0.040 Uiso 1 1 calc R U . . .
O01A O 0.2931(17) 1.0869(9) 0.4177(9) 0.085(5) Uani 1 1 d . . . . .
C01B C 0.3161(19) 0.7923(10) 0.1727(10) 0.047(5) Uani 1 1 d . . . . .
H01I H 0.409845 0.816902 0.176776 0.056 Uiso 1 1 calc R U . . .
H01J H 0.302999 0.778818 0.216592 0.056 Uiso 1 1 calc R U . . .
C01D C 0.2170(18) 0.8529(9) 0.1754(9) 0.040(4) Uani 1 1 d . . . . .
H01K H 0.242208 0.903073 0.218646 0.048 Uiso 1 1 calc R U . . .
H01L H 0.124426 0.833479 0.182486 0.048 Uiso 1 1 calc R U . . .
C01E C 0.3140(18) 0.8549(11) 0.5685(8) 0.045(5) Uani 1 1 d . . . . .
C01F C 0.3758(18) 0.7911(10) 0.5709(9) 0.046(5) Uani 1 1 d . . . . .
H01M H 0.359368 0.776777 0.611944 0.055 Uiso 1 1 calc R U . . .
C01H C 0.3088(17) 0.3670(9) 0.1994(8) 0.034(4) Uani 1 1 d . . . . .
H01N H 0.403609 0.353874 0.201798 0.041 Uiso 1 1 calc R U . . .
H01O H 0.295479 0.415348 0.244057 0.041 Uiso 1 1 calc R U . . .
C01I C 0.2143(19) 0.3007(9) 0.2004(9) 0.041(4) Uani 1 1 d . . . . .
H01P H 0.235312 0.290646 0.245369 0.049 Uiso 1 1 calc R U . . .
H01Q H 0.119890 0.315938 0.203214 0.049 Uiso 1 1 calc R U . . .
C01J C 0.351(2) 0.8800(11) 0.5093(10) 0.054(5) Uani 1 1 d . . . . .
C01K C 0.7145(19) 0.6409(10) 0.3329(9) 0.045(5) Uani 1 1 d . . . . .
H01R H 0.790250 0.610245 0.317435 0.054 Uiso 1 1 calc R U . . .
O01L O 0.409(2) 1.0571(12) 0.7166(9) 0.111(7) Uani 1 1 d . . . . .
C01M C 0.441(2) 0.8359(11) 0.4550(10) 0.062(6) Uani 1 1 d . . . . .
C01O C 0.0460(19) 0.9549(12) 0.6764(10) 0.053(5) Uani 1 1 d . . . . .
H01S H -0.033602 0.982678 0.685125 0.064 Uiso 1 1 calc R U . . .
C01P C 0.688(2) 0.6823(12) 0.4015(10) 0.055(6) Uani 1 1 d . . . . .
H01T H 0.738069 0.685964 0.444681 0.066 Uiso 1 1 calc R U . . .
C01Q C 0.117(2) 0.9348(13) 0.6134(11) 0.075(8) Uani 1 1 d . . . . .
H01U H 0.098046 0.945987 0.570936 0.090 Uiso 1 1 calc R U . . .
C01S C 0.401(2) 1.0951(15) 0.2442(12) 0.081(8) Uani 1 1 d . . . . .
H01V H 0.454485 1.050855 0.226704 0.097 Uiso 1 1 calc R U . . .
H01W H 0.392417 1.126003 0.215671 0.097 Uiso 1 1 calc R U . . .
C01U C 0.346(3) 1.0713(15) 0.3571(13) 0.086(8) Uani 1 1 d . . . . .
H01X H 0.397017 1.026374 0.338885 0.103 Uiso 1 1 calc R U . . .
C01V C 0.352(3) 0.7159(16) 0.7489(16) 0.101(9) Uani 1 1 d . . . . .
H01Y H 0.342633 0.765966 0.787963 0.121 Uiso 1 1 calc R U . . .
C01W C 0.268(3) 1.1862(14) 0.3412(13) 0.086(8) Uani 1 1 d . . . . .
H01Z H 0.328082 1.229576 0.338507 0.129 Uiso 1 1 calc R U . . .
H012 H 0.245573 1.198654 0.393236 0.129 Uiso 1 1 calc R U . . .
H013 H 0.184706 1.179415 0.311198 0.129 Uiso 1 1 calc R U . . .
C01X C 0.348(3) 1.1192(18) 0.7304(15) 0.089(8) Uani 1 1 d . . . . .
H015 H 0.353493 1.144324 0.696284 0.106 Uiso 1 1 calc R U . . .
C01Z C 0.281(3) 1.1193(15) 0.8433(13) 0.092(8) Uani 1 1 d . . . . .
H016 H 0.187132 1.106841 0.852763 0.138 Uiso 1 1 calc R U . . .
H018 H 0.324789 1.160133 0.888714 0.138 Uiso 1 1 calc R U . . .
H020 H 0.330653 1.071606 0.828400 0.138 Uiso 1 1 calc R U . . .
C4 C 0.320(3) 0.5704(13) 0.7036(15) 0.107(10) Uani 1 1 d . . . . .
H4A H 0.229441 0.545600 0.684200 0.160 Uiso 1 1 calc R U . . .
H4B H 0.362677 0.540696 0.728725 0.160 Uiso 1 1 calc R U . . .
H4C H 0.375982 0.570426 0.662216 0.160 Uiso 1 1 calc R U . . .
N1 N 0.462(2) 0.8634(9) 0.4039(9) 0.099(8) Uani 1 1 d . . . . .
C023 C 0.217(3) 1.222(2) 0.800(3) 0.19(2) Uani 1 1 d . . . . .
H02F H 0.195329 1.225837 0.752324 0.291 Uiso 1 1 calc R U . . .
H02G H 0.279059 1.267786 0.830265 0.291 Uiso 1 1 calc R U . . .
H02H H 0.133384 1.222258 0.826511 0.291 Uiso 1 1 calc R U . . .
C025 C 0.258(4) 0.6630(19) 0.8311(19) 0.175(18) Uani 1 1 d . . . . .
H02I H 0.158814 0.653775 0.827309 0.262 Uiso 1 1 calc R U . . .
H02J H 0.284204 0.717061 0.866586 0.262 Uiso 1 1 calc R U . . .
H02K H 0.296618 0.625458 0.848319 0.262 Uiso 1 1 calc R U . . .
 
loop_
 _atom_site_aniso_label
 _atom_site_aniso_U_11
 _atom_site_aniso_U_22
 _atom_site_aniso_U_33
 _atom_site_aniso_U_23
 _atom_site_aniso_U_13
 _atom_site_aniso_U_12
Zn01 0.0228(15) 0.0215(13) 0.0287(14) 0.0148(12) 0.0067(11) 0.0065(11)
Zn02 0.0242(16) 0.0287(14) 0.0251(14) 0.0155(12) 0.0105(11) 0.0098(11)
Zn03 0.0299(12) 0.0236(10) 0.0276(10) 0.0134(8) 0.0103(8) 0.0091(8)
Zn04 0.0270(11) 0.0256(10) 0.0258(10) 0.0127(8) 0.0058(8) 0.0090(8)
S1 0.316(13) 0.107(6) 0.108(6) 0.089(5) 0.145(8) 0.140(8)
O006 0.058(8) 0.022(6) 0.027(7) 0.010(5) 0.000(5) 0.016(5)
O007 0.020(6) 0.031(6) 0.045(7) 0.025(6) 0.007(5) 0.013(5)
O008 0.033(7) 0.019(6) 0.032(6) 0.010(5) -0.001(5) -0.002(5)
O009 0.010(6) 0.038(6) 0.030(6) 0.020(5) 0.000(4) 0.006(5)
O00A 0.014(6) 0.031(6) 0.041(7) 0.016(5) 0.004(5) 0.009(5)
O00B 0.049(8) 0.017(6) 0.027(6) 0.010(5) 0.007(5) 0.012(5)
O00C 0.038(7) 0.034(6) 0.030(7) 0.020(6) 0.004(5) 0.003(5)
O00D 0.037(7) 0.040(7) 0.039(7) 0.022(6) 0.010(5) 0.016(5)
O00E 0.046(8) 0.031(6) 0.029(6) 0.013(5) 0.006(5) 0.009(5)
O00F 0.031(7) 0.040(7) 0.034(7) 0.015(6) 0.001(5) 0.004(5)
O00G 0.032(7) 0.050(7) 0.032(7) 0.008(6) 0.003(5) 0.017(6)
O00H 0.033(8) 0.096(11) 0.028(7) 0.027(7) 0.009(5) 0.020(7)
O2 0.28(3) 0.16(2) 0.13(2) 0.116(19) -0.006(19) 0.00(2)
N00J 0.036(9) 0.028(8) 0.030(8) 0.010(6) 0.008(6) 0.007(6)
N00K 0.062(11) 0.036(8) 0.035(8) 0.019(7) 0.018(7) 0.021(8)
C00L 0.023(10) 0.027(9) 0.027(10) 0.009(8) 0.003(7) 0.007(7)
C00M 0.025(10) 0.033(10) 0.026(10) 0.015(8) -0.003(7) -0.002(7)
N00N 0.037(9) 0.057(10) 0.023(8) 0.015(7) 0.007(6) 0.007(7)
N2 0.20(2) 0.082(14) 0.080(14) 0.062(12) 0.092(15) 0.098(16)
N3 0.037(9) 0.031(8) 0.026(7) 0.006(6) 0.011(6) 0.020(7)
N4 0.096(15) 0.070(13) 0.067(13) 0.043(11) -0.015(11) 0.001(11)
N5 0.065(13) 0.062(12) 0.083(14) 0.050(11) 0.019(10) 0.013(10)
N6 0.111(17) 0.064(13) 0.070(13) 0.039(12) 0.001(11) 0.016(11)
C00O 0.020(10) 0.024(9) 0.050(11) 0.018(9) 0.010(8) 0.007(7)
C00P 0.042(11) 0.011(8) 0.034(10) 0.009(8) 0.001(8) 0.012(7)
C1 0.028(10) 0.034(10) 0.031(9) 0.011(8) 0.012(7) 0.020(8)
C00S 0.047(12) 0.034(10) 0.040(11) 0.015(9) 0.006(9) 0.000(9)
C00T 0.034(10) 0.021(9) 0.042(10) 0.014(8) 0.011(8) 0.002(7)
C00U 0.029(10) 0.029(9) 0.045(10) 0.024(8) 0.008(8) 0.016(8)
C00V 0.020(10) 0.041(10) 0.028(10) 0.026(9) 0.008(7) 0.006(8)
C00W 0.020(9) 0.032(9) 0.034(9) 0.009(8) 0.007(7) 0.010(7)
C00X 0.032(10) 0.029(9) 0.046(10) 0.017(8) 0.019(8) 0.012(8)
C00Y 0.068(13) 0.042(11) 0.017(9) 0.015(8) 0.025(9) 0.028(10)
C00Z 0.018(9) 0.037(10) 0.041(10) 0.023(8) -0.002(7) 0.003(7)
C2 0.027(10) 0.042(10) 0.038(10) 0.022(8) 0.009(7) 0.013(8)
C010 0.033(10) 0.036(10) 0.042(10) 0.026(9) 0.006(8) 0.004(8)
C011 0.068(13) 0.042(11) 0.020(9) 0.017(8) -0.001(8) 0.019(9)
C012 0.017(10) 0.043(10) 0.029(10) 0.013(8) 0.006(7) -0.003(8)
C013 0.067(13) 0.032(10) 0.031(10) 0.019(8) 0.012(9) 0.022(9)
C014 0.037(11) 0.032(10) 0.040(10) 0.015(9) -0.001(8) 0.015(8)
C015 0.049(12) 0.029(9) 0.030(9) 0.019(8) -0.006(8) -0.006(8)
C016 0.055(12) 0.030(9) 0.039(10) 0.025(9) 0.013(8) 0.005(8)
C017 0.051(12) 0.039(10) 0.021(9) 0.013(8) 0.005(8) 0.019(9)
C018 0.067(14) 0.044(11) 0.032(10) 0.011(9) 0.010(9) 0.044(10)
C019 0.032(10) 0.033(9) 0.043(10) 0.022(9) 0.002(8) 0.011(8)
O01A 0.118(14) 0.082(11) 0.071(11) 0.042(10) 0.031(10) 0.032(10)
C01B 0.047(12) 0.051(12) 0.057(12) 0.031(10) 0.012(9) 0.035(10)
C01D 0.056(13) 0.032(10) 0.038(10) 0.020(9) -0.005(8) 0.015(9)
C01E 0.057(13) 0.057(12) 0.019(9) 0.012(9) 0.024(8) 0.009(10)
C01F 0.059(13) 0.044(11) 0.042(11) 0.022(9) 0.017(9) 0.029(10)
C01H 0.053(12) 0.030(9) 0.020(9) 0.013(8) -0.002(8) -0.010(8)
C01I 0.061(13) 0.027(10) 0.025(9) 0.004(8) -0.005(8) -0.009(9)
C01J 0.077(15) 0.042(12) 0.059(13) 0.033(11) 0.029(11) 0.019(10)
C01K 0.054(13) 0.054(12) 0.039(11) 0.026(10) 0.011(9) 0.035(10)
O01L 0.146(19) 0.089(14) 0.068(12) 0.005(10) 0.019(11) -0.024(13)
C01M 0.127(19) 0.033(11) 0.039(11) 0.022(10) 0.049(12) 0.026(12)
C01O 0.041(12) 0.089(16) 0.047(12) 0.043(12) 0.006(9) 0.028(11)
C01P 0.066(15) 0.077(15) 0.030(11) 0.025(11) 0.008(9) 0.038(12)
C01Q 0.107(19) 0.102(18) 0.044(13) 0.048(13) 0.030(12) 0.072(16)
C01S 0.064(16) 0.13(2) 0.081(18) 0.073(17) 0.020(13) 0.025(15)
C01U 0.12(2) 0.082(18) 0.055(16) 0.023(14) -0.001(14) -0.007(15)
C01V 0.16(3) 0.070(17) 0.09(2) 0.060(18) -0.032(18) -0.015(17)
C01W 0.11(2) 0.082(18) 0.079(18) 0.047(15) -0.019(15) -0.001(16)
C01X 0.10(2) 0.09(2) 0.08(2) 0.037(17) 0.034(17) 0.005(17)
C01Z 0.11(2) 0.10(2) 0.080(18) 0.055(17) -0.001(15) -0.008(16)
C4 0.15(3) 0.049(15) 0.11(2) 0.021(16) -0.037(19) 0.019(16)
N1 0.22(2) 0.038(10) 0.058(12) 0.031(10) 0.078(14) 0.049(13)
C023 0.11(3) 0.20(4) 0.38(6) 0.24(4) 0.03(3) -0.01(3)
C025 0.27(5) 0.11(3) 0.15(3) 0.06(3) 0.11(3) 0.03(3)
 
_geom_special_details
;
 All esds (except the esd in the dihedral angle between two l.s. planes)
 are estimated using the full covariance matrix.  The cell esds are taken
 into account individually in the estimation of esds in distances, angles
 and torsion angles; correlations between esds in cell parameters are only
 used when they are defined by crystal symmetry.  An approximate (isotropic)
 treatment of cell esds is used for estimating esds involving l.s. planes.
;
 
loop_
 _geom_bond_atom_site_label_1
 _geom_bond_atom_site_label_2
 _geom_bond_distance
 _geom_bond_site_symmetry_2
 _geom_bond_publ_flag
Zn01 O007 2.032(9) . ?
Zn01 O007 2.032(9) 2_575 ?
Zn01 O008 2.099(10) 2_565 ?
Zn01 O008 2.099(10) 1_565 ?
Zn01 O009 2.125(9) 2_576 ?
Zn01 O009 2.125(9) 1_554 ?
Zn02 O006 2.026(9) 2_665 ?
Zn02 O006 2.026(9) . ?
Zn02 O00C 2.086(10) 2_665 ?
Zn02 O00C 2.086(10) . ?
Zn02 O00A 2.169(10) . ?
Zn02 O00A 2.169(10) 2_665 ?
Zn03 N00J 1.965(12) . ?
Zn03 O009 1.968(9) . ?
Zn03 O00E 1.968(11) 2_566 ?
Zn03 O00B 1.976(9) 2_576 ?
Zn04 O00A 1.925(9) . ?
Zn04 O00F 1.944(11) . ?
Zn04 O00D 1.973(10) . ?
Zn04 N3 1.988(13) . ?
S1 N1 1.597(17) . ?
S1 N2 1.586(16) . ?
O006 C00M 1.243(17) . ?
O007 C00O 1.270(18) . ?
O008 C00P 1.219(16) . ?
O009 C00V 1.270(16) . ?
O00A C012 1.306(17) . ?
O00B C00O 1.262(17) . ?
O00C C00L 1.231(16) . ?
O00D C00M 1.272(17) . ?
O00E C00P 1.269(17) . ?
O00F C00L 1.270(17) . ?
O00G C00V 1.203(17) . ?
O00H C012 1.207(17) . ?
O2 C01V 1.27(3) . ?
N00J C00Y 1.314(18) . ?
N00J C01O 1.37(2) . ?
N00K C01Q 1.33(2) . ?
N00K C00Y 1.373(18) . ?
N00K C01E 1.445(19) . ?
C00L C00T 1.53(2) . ?
C00M C014 1.52(2) . ?
N00N C017 1.350(19) . ?
N00N C01P 1.40(2) . ?
N00N C00S 1.419(19) . ?
N2 C01J 1.33(2) . ?
N3 C017 1.296(17) . ?
N3 C01K 1.40(2) . ?
N4 C01U 1.40(3) . ?
N4 C01S 1.43(3) . ?
N4 C01W 1.43(3) . ?
N5 C01X 1.20(3) . ?
N5 C01Z 1.41(2) . ?
N5 C023 1.50(3) . ?
N6 C01V 1.29(3) . ?
N6 C4 1.46(3) . ?
N6 C025 1.49(3) . ?
C00O C019 1.51(2) . ?
C00P C010 1.54(2) . ?
C1 C00U 1.55(2) 2_677 ?
C1 C00Z 1.508(19) . ?
C1 C00V 1.56(2) . ?
C00S C011 1.38(2) . ?
C00S C01M 1.40(2) . ?
C00T C016 1.52(2) . ?
C00T C01H 1.54(2) . ?
C00U C00Z 1.52(2) . ?
C00W C00X 1.51(2) . ?
C00W C2 1.53(2) . ?
C00W C012 1.54(2) . ?
C00X C2 1.525(19) 2_765 ?
C010 C01I 1.52(2) . ?
C010 C015 1.53(2) . ?
C011 C01F 1.39(2) . ?
C013 C019 1.54(2) . ?
C013 C018 1.51(2) . ?
C014 C01B 1.46(2) . ?
C014 C018 1.52(2) . ?
C015 C016 1.53(2) . ?
C019 C01D 1.53(2) . ?
O01A C01U 1.23(2) . ?
C01B C01D 1.53(2) . ?
C01E C01F 1.38(2) . ?
C01E C01J 1.45(2) . ?
C01H C01I 1.49(2) . ?
C01J C01M 1.42(2) . ?
C01K C01P 1.29(2) . ?
O01L C01X 1.27(3) . ?
C01M N1 1.30(2) . ?
C01O C01Q 1.35(2) . ?
 
loop_
 _geom_angle_atom_site_label_1
 _geom_angle_atom_site_label_2
 _geom_angle_atom_site_label_3
 _geom_angle
 _geom_angle_site_symmetry_1
 _geom_angle_site_symmetry_3
 _geom_angle_publ_flag
O007 Zn01 O007 180.0 . 2_575 ?
O007 Zn01 O008 89.5(4) . 2_565 ?
O007 Zn01 O008 90.5(4) 2_575 2_565 ?
O007 Zn01 O008 90.5(4) . 1_565 ?
O007 Zn01 O008 89.5(4) 2_575 1_565 ?
O008 Zn01 O008 180.0(6) 2_565 1_565 ?
O007 Zn01 O009 89.0(4) . 2_576 ?
O007 Zn01 O009 91.0(4) 2_575 2_576 ?
O008 Zn01 O009 89.7(4) 2_565 2_576 ?
O008 Zn01 O009 90.3(4) 1_565 2_576 ?
O007 Zn01 O009 91.0(4) . 1_554 ?
O007 Zn01 O009 89.0(4) 2_575 1_554 ?
O008 Zn01 O009 90.3(4) 2_565 1_554 ?
O008 Zn01 O009 89.7(4) 1_565 1_554 ?
O009 Zn01 O009 180.0 2_576 1_554 ?
O006 Zn02 O006 180.0 2_665 . ?
O006 Zn02 O00C 92.0(4) 2_665 2_665 ?
O006 Zn02 O00C 88.0(4) . 2_665 ?
O006 Zn02 O00C 88.0(4) 2_665 . ?
O006 Zn02 O00C 92.0(4) . . ?
O00C Zn02 O00C 180.0 2_665 . ?
O006 Zn02 O00A 92.2(4) 2_665 . ?
O006 Zn02 O00A 87.8(4) . . ?
O00C Zn02 O00A 89.0(4) 2_665 . ?
O00C Zn02 O00A 91.0(4) . . ?
O006 Zn02 O00A 87.8(4) 2_665 2_665 ?
O006 Zn02 O00A 92.2(4) . 2_665 ?
O00C Zn02 O00A 91.0(4) 2_665 2_665 ?
O00C Zn02 O00A 89.0(4) . 2_665 ?
O00A Zn02 O00A 180.0 . 2_665 ?
N00J Zn03 O009 123.9(5) . . ?
N00J Zn03 O00E 111.2(5) . 2_566 ?
O009 Zn03 O00E 107.1(4) . 2_566 ?
N00J Zn03 O00B 97.8(5) . 2_576 ?
O009 Zn03 O00B 104.2(4) . 2_576 ?
O00E Zn03 O00B 111.9(4) 2_566 2_576 ?
O00A Zn04 O00F 107.9(4) . . ?
O00A Zn04 O00D 102.8(4) . . ?
O00F Zn04 O00D 110.5(4) . . ?
O00A Zn04 N3 133.7(5) . . ?
O00F Zn04 N3 102.6(5) . . ?
O00D Zn04 N3 98.0(5) . . ?
N1 S1 N2 100.8(8) . . ?
C00M O006 Zn02 136.3(10) . . ?
C00O O007 Zn01 136.0(10) . . ?
C00P O008 Zn01 141.6(10) . 1_545 ?
C00V O009 Zn03 107.7(9) . . ?
C00V O009 Zn01 135.6(8) . 1_556 ?
Zn03 O009 Zn01 104.0(4) . 1_556 ?
C012 O00A Zn04 109.7(9) . . ?
C012 O00A Zn02 135.0(9) . . ?
Zn04 O00A Zn02 104.5(4) . . ?
C00O O00B Zn03 125.5(10) . 2_576 ?
C00L O00C Zn02 141.4(10) . . ?
C00M O00D Zn04 126.5(10) . . ?
C00P O00E Zn03 112.9(9) . 2_566 ?
C00L O00F Zn04 116.3(9) . . ?
C00Y N00J C01O 105.6(13) . . ?
C00Y N00J Zn03 128.1(10) . . ?
C01O N00J Zn03 125.9(11) . . ?
C01Q N00K C00Y 108.9(14) . . ?
C01Q N00K C01E 126.9(15) . . ?
C00Y N00K C01E 123.8(14) . . ?
O00C C00L O00F 124.7(14) . . ?
O00C C00L C00T 116.7(14) . . ?
O00F C00L C00T 118.5(13) . . ?
O006 C00M O00D 124.6(14) . . ?
O006 C00M C014 119.0(13) . . ?
O00D C00M C014 116.4(13) . . ?
C017 N00N C01P 106.2(13) . . ?
C017 N00N C00S 122.6(14) . . ?
C01P N00N C00S 131.1(14) . . ?
C01J N2 S1 105.6(12) . . ?
C017 N3 C01K 105.8(13) . . ?
C017 N3 Zn04 119.8(11) . . ?
C01K N3 Zn04 133.3(10) . . ?
C01U N4 C01S 122(2) . . ?
C01U N4 C01W 119(2) . . ?
C01S N4 C01W 118.2(19) . . ?
C01X N5 C01Z 123(2) . . ?
C01X N5 C023 119(3) . . ?
C01Z N5 C023 117(2) . . ?
C01V N6 C4 127(2) . . ?
C01V N6 C025 115(2) . . ?
C4 N6 C025 117(2) . . ?
O007 C00O O00B 124.9(13) . . ?
O007 C00O C019 119.0(13) . . ?
O00B C00O C019 116.1(14) . . ?
O008 C00P O00E 125.4(14) . . ?
O008 C00P C010 117.1(14) . . ?
O00E C00P C010 117.5(13) . . ?
C00U C1 C00Z 111.5(13) 2_677 . ?
C00U C1 C00V 109.6(11) 2_677 . ?
C00Z C1 C00V 113.3(12) . . ?
C011 C00S N00N 119.9(15) . . ?
C011 C00S C01M 119.7(15) . . ?
N00N C00S C01M 120.3(14) . . ?
C016 C00T C00L 111.5(12) . . ?
C016 C00T C01H 108.8(12) . . ?
C00L C00T C01H 113.9(13) . . ?
C00Z C00U C1 112.1(12) . 2_677 ?
O00G C00V O009 124.6(14) . . ?
O00G C00V C1 120.7(13) . . ?
O009 C00V C1 114.6(13) . . ?
C00X C00W C2 113.6(13) . . ?
C00X C00W C012 112.3(13) . . ?
C2 C00W C012 108.9(12) . . ?
C00W C00X C2 111.1(13) . 2_765 ?
N00J C00Y N00K 109.4(14) . . ?
C00U C00Z C1 110.7(13) . . ?
C00W C2 C00X 109.3(12) . 2_765 ?
C01I C010 C00P 115.0(13) . . ?
C01I C010 C015 110.6(13) . . ?
C00P C010 C015 109.8(13) . . ?
C00S C011 C01F 119.6(15) . . ?
O00H C012 O00A 120.7(13) . . ?
O00H C012 C00W 122.7(14) . . ?
O00A C012 C00W 116.2(14) . . ?
C019 C013 C018 112.9(14) . . ?
C01B C014 C00M 116.1(13) . . ?
C01B C014 C018 113.1(14) . . ?
C00M C014 C018 111.4(12) . . ?
C016 C015 C010 109.2(13) . . ?
C015 C016 C00T 112.4(12) . . ?
N3 C017 N00N 110.7(14) . . ?
C014 C018 C013 111.4(13) . . ?
C00O C019 C013 112.0(13) . . ?
C00O C019 C01D 115.4(13) . . ?
C013 C019 C01D 110.3(12) . . ?
C014 C01B C01D 114.8(14) . . ?
C01B C01D C019 112.0(13) . . ?
C01F C01E N00K 122.0(14) . . ?
C01F C01E C01J 117.0(15) . . ?
N00K C01E C01J 120.9(16) . . ?
C01E C01F C011 123.6(15) . . ?
C01I C01H C00T 112.2(13) . . ?
C010 C01I C01H 111.7(13) . . ?
N2 C01J C01M 113.5(16) . . ?
N2 C01J C01E 127.5(16) . . ?
C01M C01J C01E 119.0(15) . . ?
C01P C01K N3 110.3(15) . . ?
N1 C01M C01J 112.6(16) . . ?
N1 C01M C00S 126.5(16) . . ?
C01J C01M C00S 120.8(15) . . ?
C01Q C01O N00J 110.5(16) . . ?
C01K C01P N00N 106.5(15) . . ?
N00K C01Q C01O 105.6(16) . . ?
O01A C01U N4 125(2) . . ?
O2 C01V N6 120(3) . . ?
O01L C01X N5 122(3) . . ?
C01M N1 S1 107.2(13) . . ?
 
_refine_diff_density_max    2.554
_refine_diff_density_min   -1.012
_refine_diff_density_rms    0.226

_shelx_res_file
;
TITL pvl1140_a.res in P-1
    pvl1140_a.res
    created by SHELXL-2018/3 at 11:33:18 on 31-Aug-2023
REM Old TITL pvl1140 in P-1
REM SHELXT solution in P-1: R1 0.212, Rweak 0.027, Alpha 0.154
REM <I/s>   0.000 for    0 systematic absences,  Orientation as input
REM Formula found by SHELXT:  C52 N5 O17 Zn3
CELL  0.71073   9.8836  18.4761  19.5298  113.229   90.418   94.136
ZERR   30.000   0.0024   0.0039   0.0040    0.005    0.007    0.006
LATT  1
SFAC C H N O S Zn
UNIT 30 30 30 30 30 30
ACTA
TEMP -123.150
L.S. 10
BOND
LIST 6
FMAP 2
PLAN 20
WGHT    0.100000
FVAR       0.35005
ZN01  6    0.000000    1.000000    0.000000    10.50000    0.02281    0.02146 =
         0.02874    0.01484    0.00669    0.00650
ZN02  6    0.500000    0.500000    0.000000    10.50000    0.02424    0.02867 =
         0.02513    0.01547    0.01054    0.00976
ZN03  6    0.033958    0.938341    0.822204    11.00000    0.02988    0.02364 =
         0.02755    0.01336    0.01035    0.00906
ZN04  6    0.560383    0.584213    0.178623    11.00000    0.02700    0.02563 =
         0.02584    0.01272    0.00579    0.00896
S1    5    0.384467    0.942029    0.426831    11.00000    0.31557    0.10686 =
         0.10849    0.08924    0.14490    0.13987
O006  4    0.427100    0.608104    0.039987    11.00000    0.05842    0.02223 =
         0.02738    0.01001   -0.00021    0.01574
O007  4    0.080049    0.924049    0.038191    11.00000    0.02014    0.03054 =
         0.04477    0.02539    0.00683    0.01263
O008  4    0.132972    0.093207    0.072039    11.00000    0.03347    0.01881 =
         0.03222    0.00970   -0.00085   -0.00193
O009  4    0.144954    0.975682    0.915549    11.00000    0.01002    0.03801 =
         0.03019    0.02031   -0.00024    0.00647
O00A  4    0.657499    0.547537    0.087668    11.00000    0.01444    0.03097 =
         0.04073    0.01614    0.00354    0.00950
O00B  4    0.085055    0.975769    0.163382    11.00000    0.04928    0.01746 =
         0.02746    0.00960    0.00741    0.01227
O00C  4    0.376569    0.462395    0.067810    11.00000    0.03793    0.03412 =
         0.02966    0.01987    0.00446    0.00329
O00D  4    0.440812    0.658388    0.164085    11.00000    0.03716    0.03990 =
         0.03919    0.02156    0.01032    0.01604
O00E  4    0.070078    0.160137    0.186856    11.00000    0.04618    0.03086 =
         0.02919    0.01340    0.00629    0.00914
O00F  4    0.453606    0.493983    0.183683    11.00000    0.03118    0.03967 =
         0.03397    0.01517    0.00122    0.00351
O00G  4    0.278135    0.891153    0.841893    11.00000    0.03153    0.05018 =
         0.03218    0.00817    0.00272    0.01694
O00H  4    0.810233    0.532873    0.161557    11.00000    0.03266    0.09615 =
         0.02795    0.02652    0.00888    0.02003
O2    4    0.406125    0.711738    0.688731    11.00000    0.27793    0.16132 =
         0.13061    0.11566   -0.00625   -0.00208
N00J  3    0.105328    0.929723    0.725890    11.00000    0.03569    0.02826 =
         0.03026    0.00963    0.00839    0.00731
N00K  3    0.218518    0.896033    0.623238    11.00000    0.06157    0.03550 =
         0.03508    0.01920    0.01819    0.02052
C00L  1    0.380541    0.451547    0.126043    11.00000    0.02263    0.02716 =
         0.02714    0.00861    0.00309    0.00655
C00M  1    0.397602    0.656866    0.102009    11.00000    0.02492    0.03295 =
         0.02601    0.01494   -0.00324   -0.00180
N00N  3    0.571635    0.720642    0.399580    11.00000    0.03702    0.05662 =
         0.02348    0.01465    0.00695    0.00674
N2    3    0.307838    0.941030    0.497585    11.00000    0.19667    0.08211 =
         0.07952    0.06195    0.09178    0.09780
N3    3    0.615579    0.647795    0.284853    11.00000    0.03675    0.03088 =
         0.02621    0.00551    0.01145    0.01979
N4    3    0.335400    1.114992    0.313286    11.00000    0.09613    0.07014 =
         0.06693    0.04274   -0.01533    0.00120
N5    3    0.283635    1.147215    0.785480    11.00000    0.06471    0.06154 =
         0.08344    0.04958    0.01944    0.01297
N6    3    0.310153    0.651769    0.756614    11.00000    0.11142    0.06426 =
         0.06992    0.03924    0.00080    0.01629
C00O  1    0.118830    0.926392    0.101229    11.00000    0.02047    0.02422 =
         0.04971    0.01848    0.00990    0.00705
C00P  1    0.134824    0.153056    0.128959    11.00000    0.04175    0.01056 =
         0.03424    0.00902    0.00060    0.01189
C1    1    0.362269    0.970944    0.967371    11.00000    0.02810    0.03383 =
         0.03102    0.01137    0.01168    0.02008
AFIX  13
H1    2    0.313578    0.978309    1.014074    11.00000   -1.20000
AFIX   0
C00S  1    0.491932    0.768422    0.457812    11.00000    0.04673    0.03429 =
         0.03987    0.01538    0.00607   -0.00011
C00T  1    0.286299    0.383591    0.129026    11.00000    0.03380    0.02110 =
         0.04154    0.01354    0.01149    0.00219
AFIX  13
H00T  2    0.191019    0.398456    0.128918    11.00000   -1.20000
AFIX   0
C00U  1    0.572012    0.947139    1.023921    11.00000    0.02929    0.02942 =
         0.04531    0.02423    0.00752    0.01558
AFIX  23
H00A  2    0.643766    0.910163    1.015604    11.00000   -1.20000
H00B  2    0.527609    0.952043    1.070653    11.00000   -1.20000
AFIX   0
C00V  1    0.253584    0.940559    0.901539    11.00000    0.01980    0.04071 =
         0.02780    0.02629    0.00812    0.00571
C00W  1    0.870532    0.501023    0.033779    11.00000    0.01993    0.03201 =
         0.03377    0.00904    0.00714    0.00950
AFIX  13
H00W  2    0.813389    0.469834   -0.012397    11.00000   -1.20000
AFIX   0
C00X  1    0.974805    0.448276    0.040711    11.00000    0.03192    0.02942 =
         0.04551    0.01665    0.01879    0.01159
AFIX  23
H00C  2    0.928099    0.400241    0.043309    11.00000   -1.20000
H00D  2    1.030166    0.476404    0.087447    11.00000   -1.20000
AFIX   0
C00Y  1    0.209066    0.892073    0.691805    11.00000    0.06796    0.04242 =
         0.01652    0.01467    0.02453    0.02841
AFIX  43
H00Y  2    0.268286    0.866159    0.711514    11.00000   -1.20000
AFIX   0
C00Z  1    0.467854    0.913504    0.959541    11.00000    0.01847    0.03728 =
         0.04053    0.02344   -0.00232    0.00253
AFIX  23
H00E  2    0.423221    0.863283    0.958365    11.00000   -1.20000
H00F  2    0.513867    0.902040    0.911956    11.00000   -1.20000
AFIX   0
C2    1    0.932624    0.575519    0.025442    11.00000    0.02702    0.04243 =
         0.03798    0.02248    0.00914    0.01271
AFIX  23
H2A   2    0.985432    0.609822    0.071546    11.00000   -1.20000
H2B   2    0.859534    0.605582    0.017399    11.00000   -1.20000
AFIX   0
C010  1    0.225749    0.225226    0.131181    11.00000    0.03324    0.03600 =
         0.04216    0.02554    0.00595    0.00359
AFIX  13
H010  2    0.321862    0.211419    0.130468    11.00000   -1.20000
AFIX   0
C011  1    0.460678    0.746768    0.516486    11.00000    0.06813    0.04250 =
         0.02006    0.01664   -0.00107    0.01874
AFIX  43
H011  2    0.497066    0.701863    0.519506    11.00000   -1.20000
AFIX   0
C012  1    0.774952    0.525691    0.099746    11.00000    0.01717    0.04267 =
         0.02904    0.01344    0.00637   -0.00267
C013  1    0.199491    0.790365    0.035182    11.00000    0.06738    0.03188 =
         0.03103    0.01880    0.01186    0.02169
AFIX  23
H01A  2    0.207475    0.801548   -0.010267    11.00000   -1.20000
H01B  2    0.107323    0.764936    0.033939    11.00000   -1.20000
AFIX   0
C014  1    0.302590    0.719533    0.105640    11.00000    0.03674    0.03207 =
         0.04021    0.01531   -0.00093    0.01469
AFIX  13
H014  2    0.209408    0.695141    0.106766    11.00000   -1.20000
AFIX   0
C015  1    0.199341    0.239649    0.060293    11.00000    0.04941    0.02923 =
         0.02950    0.01882   -0.00600   -0.00550
AFIX  23
H01C  2    0.212121    0.191108    0.015724    11.00000   -1.20000
H01D  2    0.104690    0.253244    0.058446    11.00000   -1.20000
AFIX   0
C016  1    0.298177    0.307496    0.060488    11.00000    0.05487    0.02957 =
         0.03926    0.02525    0.01264    0.00541
AFIX  23
H01E  2    0.280025    0.317306    0.015095    11.00000   -1.20000
H01F  2    0.392164    0.291799    0.058877    11.00000   -1.20000
AFIX   0
C017  1    0.538163    0.700055    0.326792    11.00000    0.05068    0.03941 =
         0.02091    0.01267    0.00548    0.01860
AFIX  43
H017  2    0.467581    0.720992    0.308792    11.00000   -1.20000
AFIX   0
C018  1    0.302670    0.733919    0.034282    11.00000    0.06727    0.04405 =
         0.03205    0.01108    0.01043    0.04363
AFIX  23
H01G  2    0.282061    0.683053   -0.008872    11.00000   -1.20000
H01H  2    0.394063    0.755872    0.028305    11.00000   -1.20000
AFIX   0
C019  1    0.216807    0.868644    0.104050    11.00000    0.03166    0.03287 =
         0.04297    0.02207    0.00166    0.01097
AFIX  13
H019  2    0.309613    0.892949    0.101990    11.00000   -1.20000
AFIX   0
O01A  4    0.293071    1.086869    0.417694    11.00000    0.11783    0.08178 =
         0.07144    0.04206    0.03091    0.03232
C01B  1    0.316141    0.792312    0.172680    11.00000    0.04668    0.05149 =
         0.05661    0.03068    0.01239    0.03489
AFIX  23
H01I  2    0.409845    0.816902    0.176776    11.00000   -1.20000
H01J  2    0.302999    0.778818    0.216592    11.00000   -1.20000
AFIX   0
C01D  1    0.217043    0.852936    0.175386    11.00000    0.05636    0.03211 =
         0.03778    0.01986   -0.00536    0.01495
AFIX  23
H01K  2    0.242208    0.903073    0.218646    11.00000   -1.20000
H01L  2    0.124426    0.833479    0.182486    11.00000   -1.20000
AFIX   0
C01E  1    0.314016    0.854878    0.568534    11.00000    0.05740    0.05743 =
         0.01895    0.01174    0.02365    0.00930
C01F  1    0.375832    0.791083    0.570877    11.00000    0.05901    0.04421 =
         0.04201    0.02173    0.01745    0.02900
AFIX  43
H01M  2    0.359368    0.776777    0.611944    11.00000   -1.20000
AFIX   0
C01H  1    0.308818    0.367015    0.199385    11.00000    0.05322    0.03043 =
         0.02007    0.01274   -0.00225   -0.01011
AFIX  23
H01N  2    0.403609    0.353874    0.201798    11.00000   -1.20000
H01O  2    0.295479    0.415348    0.244057    11.00000   -1.20000
AFIX   0
C01I  1    0.214311    0.300659    0.200388    11.00000    0.06117    0.02741 =
         0.02514    0.00392   -0.00509   -0.00852
AFIX  23
H01P  2    0.235312    0.290646    0.245369    11.00000   -1.20000
H01Q  2    0.119890    0.315938    0.203214    11.00000   -1.20000
AFIX   0
C01J  1    0.350761    0.879979    0.509318    11.00000    0.07733    0.04208 =
         0.05884    0.03319    0.02913    0.01888
C01K  1    0.714506    0.640923    0.332926    11.00000    0.05443    0.05391 =
         0.03913    0.02556    0.01088    0.03501
AFIX  43
H01R  2    0.790250    0.610245    0.317435    11.00000   -1.20000
AFIX   0
O01L  4    0.409134    1.057127    0.716611    11.00000    0.14615    0.08919 =
         0.06751    0.00513    0.01933   -0.02372
C01M  1    0.440813    0.835863    0.454977    11.00000    0.12652    0.03301 =
         0.03918    0.02225    0.04862    0.02571
C01O  1    0.046044    0.954946    0.676402    11.00000    0.04115    0.08901 =
         0.04709    0.04265    0.00646    0.02770
AFIX  43
H01S  2   -0.033602    0.982678    0.685125    11.00000   -1.20000
AFIX   0
C01P  1    0.688243    0.682270    0.401485    11.00000    0.06612    0.07690 =
         0.03015    0.02495    0.00819    0.03788
AFIX  43
H01T  2    0.738069    0.685964    0.444681    11.00000   -1.20000
AFIX   0
C01Q  1    0.116943    0.934783    0.613352    11.00000    0.10721    0.10221 =
         0.04399    0.04787    0.02967    0.07190
AFIX  43
H01U  2    0.098046    0.945987    0.570936    11.00000   -1.20000
AFIX   0
C01S  1    0.401473    1.095059    0.244175    11.00000    0.06402    0.12972 =
         0.08130    0.07317    0.02032    0.02513
AFIX  93
H01V  2    0.454485    1.050855    0.226704    11.00000   -1.20000
H01W  2    0.392417    1.126003    0.215671    11.00000   -1.20000
AFIX   0
C01U  1    0.345736    1.071287    0.357110    11.00000    0.11572    0.08188 =
         0.05488    0.02328   -0.00114   -0.00712
AFIX  43
H01X  2    0.397017    1.026374    0.338885    11.00000   -1.20000
AFIX   0
C01V  1    0.352125    0.715949    0.748882    11.00000    0.16325    0.07031 =
         0.09011    0.05952   -0.03197   -0.01528
AFIX  43
H01Y  2    0.342633    0.765966    0.787963    11.00000   -1.20000
AFIX   0
C01W  1    0.268174    1.186241    0.341247    11.00000    0.10908    0.08221 =
         0.07900    0.04695   -0.01949   -0.00065
AFIX 137
H01Z  2    0.328082    1.229576    0.338507    11.00000   -1.50000
H012  2    0.245573    1.198654    0.393236    11.00000   -1.50000
H013  2    0.184706    1.179415    0.311198    11.00000   -1.50000
AFIX   0
C01X  1    0.348125    1.119220    0.730397    11.00000    0.09737    0.08804 =
         0.08347    0.03720    0.03370    0.00532
AFIX  43
H015  2    0.353493    1.144324    0.696284    11.00000   -1.20000
AFIX   0
C01Z  1    0.281380    1.119310    0.843270    11.00000    0.10603    0.10418 =
         0.08031    0.05468   -0.00101   -0.00773
AFIX 137
H016  2    0.187132    1.106841    0.852763    11.00000   -1.50000
H018  2    0.324789    1.160133    0.888714    11.00000   -1.50000
H020  2    0.330653    1.071606    0.828400    11.00000   -1.50000
AFIX   0
C4    1    0.320409    0.570415    0.703565    11.00000    0.14979    0.04889 =
         0.11285    0.02095   -0.03741    0.01886
AFIX 137
H4A   2    0.229441    0.545600    0.684200    11.00000   -1.50000
H4B   2    0.362677    0.540696    0.728725    11.00000   -1.50000
H4C   2    0.375982    0.570426    0.662216    11.00000   -1.50000
AFIX   0
N1    3    0.462004    0.863423    0.403888    11.00000    0.21878    0.03818 =
         0.05774    0.03115    0.07835    0.04887
C023  1    0.217047    1.222322    0.799902    11.00000    0.11452    0.19934 =
         0.37903    0.23524    0.02995   -0.00949
AFIX 137
H02F  2    0.195329    1.225837    0.752324    11.00000   -1.50000
H02G  2    0.279059    1.267786    0.830265    11.00000   -1.50000
H02H  2    0.133384    1.222258    0.826511    11.00000   -1.50000
AFIX   0
C025  1    0.258002    0.662970    0.831051    11.00000    0.27456    0.11012 =
         0.15280    0.06275    0.11336    0.02866
AFIX 137
H02I  2    0.158814    0.653775    0.827309    11.00000   -1.50000
H02J  2    0.284204    0.717061    0.866586    11.00000   -1.50000
H02K  2    0.296618    0.625458    0.848319    11.00000   -1.50000
AFIX   0
HKLF 4




REM  pvl1140_a.res in P-1
REM wR2 = 0.3539, GooF = S = 1.874, Restrained GooF = 1.874 for all data
REM R1 = 0.1231 for 5626 Fo > 4sig(Fo) and 0.1786 for all 9003 data
REM 666 parameters refined using 0 restraints

END

WGHT      0.1590     68.5533

REM Highest difference peak  2.554,  deepest hole -1.012,  1-sigma level  0.226
Q1    1   0.1449  0.5704  0.2910  11.00000  0.05    2.55
Q2    1  -0.1072  0.8941  0.4585  11.00000  0.05    2.30
Q3    1   1.1520  0.6131  0.2469  11.00000  0.05    2.11
Q4    1   0.2562  0.5839  0.3450  11.00000  0.05    2.04
Q5    1  -0.0533  1.3152  0.3561  11.00000  0.05    1.97
Q6    1   0.5528  0.5152  0.1646  11.00000  0.05    1.90
Q7    1  -0.0281  0.5166  0.6728  11.00000  0.05    1.76
Q8    1   0.0145  0.8548  0.4120  11.00000  0.05    1.75
Q9    1  -0.0373  0.1350  0.1977  11.00000  0.05    1.72
Q10   1   0.0030  1.0770  0.0263  11.00000  0.05    1.66
Q11   1   0.4987  0.5666  0.0227  11.00000  0.05    1.66
Q12   1  -0.0406  0.4847  0.7183  11.00000  0.05    1.62
Q13   1  -0.0363  0.9864  0.1516  11.00000  0.05    1.51
Q14   1   0.0728  0.7910  0.4198  11.00000  0.05    1.47
Q15   1   1.1283  0.6640  0.3126  11.00000  0.05    1.42
Q16   1   0.0212  1.3344  0.4196  11.00000  0.05    1.42
Q17   1   0.1644  0.7671  0.3933  11.00000  0.05    1.27
Q18   1   0.9953  0.6841  0.5232  11.00000  0.05    1.18
Q19   1   0.7673  0.6218  0.5339  11.00000  0.05    1.18
Q20   1  -0.0438  1.1153  0.6379  11.00000  0.05    1.12
;
_shelx_res_checksum   45936

_shelx_hkl_file
;
  -1   0   0  642.14   39.90
   1   0   0  526.15   38.90
  -2   0   0  525.95   40.70
  -2   0   0  585.94   43.40
   2   0   0  585.04   42.60
   2   0   0  534.25   41.10
  -3   0   0  981.90   68.59
  -3   0   0  947.11   66.19
   3   0   0  878.91   66.99
   3   0   0  918.41   67.99
  -4   0   0  245.48   27.00
  -4   0   0  214.38   29.20
   4   0   0  194.98   26.80
   4   0   0  211.88   28.10
  -5   0   0   -5.00   22.10
  -5   0   0   32.70   15.70
   5   0   0   30.70   19.20
   5   0   0    4.00   18.50
  -6   0   0   14.90   15.80
  -6   0   0   -6.80   22.30
   6   0   0    5.90   19.70
   6   0   0  -29.10   19.90
  -7   0   0   -0.30   57.29
   7   0   0  178.08   36.30
  -8   0   0   32.30   34.10
   8   0   0    3.20   30.10
  -9   0   0  107.59   42.20
   9   0   0   99.19   38.00
 -10   0   0   -2.50   40.70
  10   0   0  -40.20   35.80
  10  -1   0  -35.30   33.70
 -10   1   0  -53.09   41.50
   9  -1   0   17.40   33.70
  -9   1   0   68.39   40.40
   8  -1   0   49.30   31.70
  -8   1   0   82.29   35.90
   7  -1   0  -23.90   39.30
   6  -1   0   32.90   22.50
   6  -1   0   29.60   21.80
  -6   1   0   32.50   25.30
  -6   1   0   56.69   17.40
   5  -1   0   35.90   20.10
   5  -1   0   39.30   18.80
  -5   1   0   23.10   15.30
  -5   1   0    4.00   21.00
   4  -1   0  121.09   22.10
   4  -1   0   71.49   19.30
  -4   1   0  104.09   18.60
  -4   1   0   87.19   20.80
   3  -1   0  708.33   54.29
   2  -1   0  201.48   20.30
   2  -1   0  128.69   19.40
  -2   1   0  156.58   23.10
  -2   1   0  140.99   16.80
   1  -1   0 4475.65  287.57
  -1   1   0 4523.75  288.07
  -1  -1   0 5902.61  367.66
  -1  -1   0 5474.55  367.26
   1   1   0 5866.81  367.26
  -2  -1   0   79.29   13.40
  -2  -1   0  109.69   19.40
   2   1   0   86.09   15.50
   2   1   0   45.90   14.40
  -3  -1   0 1625.84  109.79
  -3  -1   0 1651.43  111.89
   3   1   0 1569.54  110.79
   3   1   0 1682.53  111.59
  -4  -1   0   79.39   21.10
  -4  -1   0   53.09   16.30
   4   1   0  113.49   21.10
   4   1   0   88.89   20.40
  -5  -1   0  -13.50   13.60
  -5  -1   0  -15.60   20.80
   5   1   0    6.20   20.20
   5   1   0   16.00   19.20
  -6  -1   0  104.69   30.40
  -6  -1   0  143.99   24.20
   6   1   0  110.39   27.70
   6   1   0   90.69   26.70
   7   1   0   36.20   29.10
  -8  -1   0  184.08   41.20
   8   1   0  152.28   40.20
  -9  -1   0    1.70   38.10
   9   1   0   40.50   35.50
 -10  -1   0    5.40   43.90
  10   1   0  -23.80   37.30
  10  -2   0   25.00   36.70
 -10   2   0    7.00   40.50
   9  -2   0  -11.20   33.90
  -9   2   0  -11.90   33.70
   8  -2   0  179.48   39.40
  -8   2   0  130.59   39.90
   7  -2   0  108.69   55.59
  -7   2   0   77.99   44.10
   6  -2   0  -45.90   19.80
   6  -2   0   26.90   21.70
  -6   2   0   21.60   24.10
  -6   2   0   14.10   15.40
   5  -2   0  221.48   31.60
   5  -2   0  262.07   32.00
  -5   2   0  265.17   29.60
  -5   2   0  274.07   35.30
   4  -2   0   26.20   16.50
   4  -2   0    4.90   13.80
  -4   2   0   14.30   12.40
  -4   2   0    8.80   17.00
   3  -2   0    9.80   13.60
   3  -2   0   25.00   13.20
  -3   2   0   11.40   14.30
  -3   2   0   23.20   12.10
   2  -2   0 4736.73  305.87
   2  -2   0 4757.62  308.37
  -2   2   0 4501.15  306.37
  -2   2   0 5011.80  307.37
   1  -2   0  144.99   17.20
  -1   2   0  210.18   17.90
   0  -2   0 4444.76  250.47
   0  -2   0 3315.27  249.68
   0   2   0 3951.80  249.97
  -1  -2   0 1773.42  114.49
  -1  -2   0 1718.13  113.79
   1   2   0 1746.63  113.79
  -2  -2   0 2724.83  209.18
   2   2   0 3754.02  212.58
  -3  -2   0  393.66   39.80
  -3  -2   0  373.96   35.50
   3   2   0  387.16   38.30
   3   2   0  446.86   37.90
  -4  -2   0   -8.10   19.20
  -4  -2   0   -3.50   13.20
   4   2   0   16.50   18.00
   4   2   0   -7.50   16.20
  -5  -2   0  853.51   70.49
  -5  -2   0  827.82   65.39
   5   2   0  859.31   67.29
   5   2   0  848.62   69.09
  -6  -2   0  190.78   37.20
  -6  -2   0  201.78   27.60
   6   2   0  140.59   31.70
   6   2   0  194.18   33.90
  -7  -2   0  420.66   67.39
   7   2   0  254.77   43.60
  -8  -2   0   72.39   37.60
   8   2   0   40.80   33.50
  -9  -2   0  -12.70   37.00
   9   2   0   26.90   36.90
 -10  -2   0   57.09   45.10
  10   2   0   28.80   39.90
  10  -3   0   54.19   41.10
 -10   3   0   -3.30   42.30
   9  -3   0   43.50   35.30
  -9   3   0  -29.70   34.70
   8  -3   0   42.90   31.40
  -8   3   0   66.19   36.50
   7  -3   0  574.34   58.19
  -7   3   0  542.25   62.79
   6  -3   0  503.05   51.39
   6  -3   0  548.65   52.69
  -6   3   0  534.45   54.39
  -6   3   0  541.75   47.30
   5  -3   0  -30.30   18.00
   5  -3   0   18.60   16.90
  -5   3   0    9.00   21.40
  -5   3   0   -2.10   12.90
   4  -3   0  498.55   46.40
   4  -3   0  559.34   46.40
  -4   3   0  535.05   43.80
  -4   3   0  593.84   48.10
   3  -3   0 1981.50  127.89
   3  -3   0 1806.32  125.99
  -3   3   0 1900.81  125.49
  -3   3   0 1876.01  127.59
   2  -3   0 1422.96   93.69
   2  -3   0 1396.26   92.19
  -2   3   0 1442.86   94.09
  -2   3   0 1244.98   91.39
   1  -3   0  191.38   19.40
   1  -3   0  159.08   17.10
  -1   3   0  181.28   16.90
  -1   3   0  156.48   18.70
   0  -3   0   20.40    9.70
   0  -3   0   19.40    6.10
   0   3   0   24.00    9.10
  -1  -3   0  312.47   27.60
   1   3   0  315.47   27.40
  -2  -3   0 3856.01  299.97
  -2  -3   0 4903.21  296.27
   2   3   0 4738.23  295.77
   2   3   0 4679.73  295.07
  -3  -3   0  437.76   40.00
  -3  -3   0  374.16   35.20
   3   3   0  335.97   37.60
   3   3   0  401.96   36.50
  -4  -3   0  186.68   24.00
  -4  -3   0  198.18   27.90
   4   3   0  165.18   26.60
   4   3   0  144.29   24.60
  -5  -3   0  453.55   52.29
  -5  -3   0  491.55   44.80
   5   3   0  539.55   51.59
   5   3   0  520.65   49.40
  -6  -3   0  115.89   23.90
  -6  -3   0  104.99   32.40
   6   3   0  103.69   27.70
   6   3   0  168.28   31.40
  -7  -3   0  420.56   53.79
   7   3   0  362.66   56.69
  -8  -3   0  -29.40   34.00
   8   3   0  -38.70   29.70
  -9  -3   0   59.29   44.20
   9   3   0  149.29   43.20
 -10  -3   0  -28.10   41.30
  10   3   0  -67.69   36.70
  10  -4   0   13.90   39.20
 -10   4   0  -13.20   40.80
   9  -4   0   90.89   37.90
  -9   4   0   55.99   38.50
   8  -4   0   85.19   32.10
  -8   4   0  163.48   40.60
   7  -4   0  347.27   46.20
  -7   4   0  350.66   48.80
   6  -4   0  110.79   28.90
   6  -4   0  163.48   29.40
  -6   4   0  213.28   33.80
  -6   4   0  175.08   25.80
   5  -4   0  308.57   38.30
   5  -4   0  312.57   36.40
  -5   4   0  326.77   33.20
  -5   4   0  353.56   39.40
   4  -4   0   10.20   15.10
   4  -4   0   10.40   17.40
  -4   4   0    0.40   12.40
  -4   4   0  -29.00   13.90
   3  -4   0 1435.16  100.19
   3  -4   0 1483.25   99.09
  -3   4   0 1430.56   97.59
  -3   4   0 1442.66  100.79
   2  -4   0  282.87   29.60
   2  -4   0  301.47   27.50
  -2   4   0  286.17   25.70
  -2   4   0  268.97   30.50
   1  -4   0  947.51   62.09
  -1   4   0  816.62   63.09
  -1   4   0  868.61   60.09
   0  -4   0  329.97   24.70
   0  -4   0  298.97   29.70
   0   4   0  274.17   41.70
  -1  -4   0 1806.02  121.69
   1   4   0 1868.91  122.09
  -2  -4   0 1992.40  130.59
  -2  -4   0 1865.71  128.89
   2   4   0 1963.80  129.29
  -3  -4   0  363.96   34.60
  -3  -4   0  372.26   38.30
   3   4   0  360.36   36.10
   3   4   0  368.56   37.40
  -4  -4   0  406.36   48.70
  -4  -4   0  524.95   42.50
   4   4   0  429.26   47.20
   4   4   0  503.75   45.10
  -5  -4   0  925.41   79.49
  -5  -4   0 1046.20   75.29
   5   4   0  999.50   76.79
   5   4   0  952.50   77.69
  -6  -4   0  684.23   62.49
  -6  -4   0  519.15   52.19
   6   4   0  575.84   57.09
   6   4   0  659.93   57.99
  -7  -4   0  -36.70   28.70
  -8  -4   0  264.57   48.20
   8   4   0  177.28   41.80
  -9  -4   0   11.80   43.30
   9   4   0   36.80   38.10
 -10  -4   0   24.50   49.40
  10   4   0   25.10   41.40
  10  -5   0   42.00   38.50
 -10   5   0   -3.00   41.70
   9  -5   0    7.30   33.50
  -9   5   0    1.70   33.50
   8  -5   0  429.56   54.29
  -8   5   0  444.36   59.19
   7  -5   0   88.39   30.40
  -7   5   0   91.89   31.00
   6  -5   0   89.69   27.10
   6  -5   0   77.19   24.40
  -6   5   0   91.49   25.90
  -6   5   0   79.99   19.20
   5  -5   0  505.45   45.40
  -5   5   0  420.76   48.00
   4  -5   0 2629.44  170.78
   4  -5   0 2440.96  171.98
  -4   5   0 2567.24  172.78
  -4   5   0 2570.74  169.18
   3  -5   0   56.99   15.80
   3  -5   0   62.89   17.80
  -3   5   0   73.09   14.20
  -3   5   0   62.29   19.10
   2  -5   0  533.45   44.80
   2  -5   0  504.65   42.30
  -2   5   0  607.34   45.40
  -2   5   0  535.25   40.80
   1  -5   0    5.40   12.10
   1  -5   0    7.60    9.90
  -1   5   0   18.10   14.80
  -1   5   0   25.40    8.80
   0  -5   0 1315.37   92.99
   0  -5   0 1409.26   89.89
   0   5   0 1342.27   93.69
  -1  -5   0  335.97   33.70
  -1  -5   0  334.07   30.70
   1   5   0  306.47   30.30
  -2  -5   0 1083.89   79.19
  -2  -5   0 1078.59   76.89
   2   5   0 1122.79   77.09
  -3  -5   0   31.30   21.40
  -3  -5   0   82.69   19.20
   3   5   0  117.39   20.60
  -4  -5   0 1579.04  104.89
  -4  -5   0 1434.16  100.09
   4   5   0 1312.17  102.29
   4   5   0 1386.66  101.79
  -5  -5   0  345.57   41.80
  -5  -5   0  364.16   38.10
   5   5   0  320.37   40.30
  -6  -5   0   21.20   28.20
  -6  -5   0   12.50   17.90
   6   5   0   42.60   25.20
   6   5   0   -2.70   24.00
  -7  -5   0  374.56   53.39
   7   5   0  439.26   58.79
  -8  -5   0   28.30   38.50
   8   5   0   43.20   34.10
  -9  -5   0  416.46   64.59
   9   5   0  340.97   54.19
 -10  -5   0   54.79   50.99
  10   5   0  -27.10   34.80
  10  -6   0  122.59   42.70
 -10   6   0   89.69   48.20
   9  -6   0  178.58   41.50
  -9   6   0  117.89   44.50
   8  -6   0  215.98   42.20
  -8   6   0  165.88   41.20
   7  -6   0  103.49   29.60
  -7   6   0  134.49   34.10
   6  -6   0   56.79   25.60
  -6   6   0   77.59   27.60
   5  -6   0   51.39   20.70
   5  -6   0   16.80   19.50
  -5   6   0   26.60   21.60
  -5   6   0    8.20   13.80
   4  -6   0   -8.80   16.10
   4  -6   0    9.00   17.80
  -4   6   0   -6.20   19.70
  -4   6   0    5.30   13.00
   3  -6   0 1115.89   80.09
   3  -6   0 1063.09   81.09
  -3   6   0 1170.78   82.69
  -3   6   0 1150.28   78.59
   2  -6   0   21.80   12.90
   2  -6   0   55.59   15.50
  -2   6   0   43.90   16.50
  -2   6   0   31.30   10.50
   1  -6   0  191.68   24.10
   1  -6   0  193.78   20.60
  -1   6   0  173.38   24.80
  -1   6   0  190.68   19.80
   0  -6   0  579.54   42.80
   0  -6   0  586.24   47.70
   0  -6   0  619.94   45.60
   0   6   0  594.24   48.60
  -1  -6   0  548.05   43.80
  -1  -6   0  576.54   43.10
   1   6   0  495.45   42.40
  -2  -6   0   89.39   18.50
   2   6   0   63.79   18.40
  -3  -6   0  659.53   56.49
  -3  -6   0  612.94   51.49
   3   6   0  621.64   52.99
  -4  -6   0  452.55   45.50
  -4  -6   0  334.87   37.50
   4   6   0  344.87   40.40
  -5  -6   0   11.90   23.00
  -5  -6   0   55.99   19.10
   5   6   0    8.20   22.50
  -6  -6   0  423.16   48.60
  -6  -6   0  516.15   57.39
   6   6   0  572.94   54.59
  -7  -6   0   20.40   32.60
   7   6   0  -13.70   28.90
  -8  -6   0  169.08   48.10
   8   6   0  224.98   44.70
  -9  -6   0   14.90   43.50
   9   6   0   21.40   39.00
 -10  -6   0   85.39   54.09
  10   6   0  160.58   50.69
  10  -7   0   55.19   40.30
 -10   7   0   32.10   39.60
   9  -7   0  140.59   40.20
  -9   7   0  180.08   46.70
   8  -7   0  241.58   44.40
  -8   7   0  148.69   39.50
   7  -7   0  107.79   31.60
  -7   7   0  126.09   36.30
  -6   7   0  -24.50   30.20
   5  -7   0   22.10   20.30
   5  -7   0   33.40   20.60
  -5   7   0   26.10   14.20
  -5   7   0   59.99   25.40
   4  -7   0   46.70   19.40
   4  -7   0    5.20   16.80
  -4   7   0   12.50   20.60
  -4   7   0   25.20   13.60
   3  -7   0  223.38   29.60
   3  -7   0  244.78   32.10
  -3   7   0  224.38   26.50
  -3   7   0  283.17   34.40
   2  -7   0   83.79   16.40
   2  -7   0   70.59   18.90
  -2   7   0   76.19   20.40
  -2   7   0   64.99   14.50
   1  -7   0   46.40   14.10
   1  -7   0  102.79   19.00
  -1   7   0   72.79   13.80
  -1   7   0   88.79   19.60
   0  -7   0  326.57   27.30
   0  -7   0  304.37   30.60
   0  -7   0  332.37   32.90
   0   7   0  285.77   32.90
  -1  -7   0   56.69   17.00
  -1  -7   0   28.30   14.90
  -2  -7   0   24.90   16.40
  -2  -7   0    5.80   15.10
   2   7   0   51.39   17.50
  -3  -7   0  348.87   38.30
  -3  -7   0  345.27   35.20
   3   7   0  289.87   35.00
  -4  -7   0   32.90   20.30
  -4  -7   0   23.30   20.10
   4   7   0   34.90   21.90
  -5  -7   0  160.48   33.00
   5   7   0  159.88   31.20
  -6  -7   0  105.99   50.39
  -6  -7   0   58.99   24.90
   6   7   0   68.99   30.70
  -7  -7   0  280.17   49.10
   7   7   0  212.68   43.00
  -8  -7   0  -47.90   38.20
   8   7   0   22.30   33.00
  -9  -7   0  110.49   53.79
   9   7   0  148.79   43.90
  10  -8   0  157.48   45.00
 -10   8   0  186.48   51.09
   9  -8   0   73.29   40.00
  -9   8   0  100.99   38.10
   8  -8   0  147.69   38.80
  -8   8   0  134.69   38.10
   7  -8   0   27.10   27.80
  -7   8   0   61.49   31.80
   6  -8   0  -10.40   25.70
  -6   8   0   22.30   26.60
   5  -8   0  270.57   35.60
   5  -8   0  220.78   35.50
  -5   8   0  245.68   38.00
  -5   8   0  243.88   28.50
   4  -8   0   38.70   21.00
   4  -8   0  -31.00   18.00
  -4   8   0   20.80   21.90
   3  -8   0   68.79   20.00
   3  -8   0   90.89   21.60
  -3   8   0   68.59   14.80
  -3   8   0   27.80   21.20
   2  -8   0   49.60   17.90
   2  -8   0   64.99   19.90
  -2   8   0   62.59   22.20
  -2   8   0   93.99   15.40
   1  -8   0  259.57   28.70
   1  -8   0  318.77   34.20
  -1   8   0  362.46   36.90
  -1   8   0  280.47   27.50
   0  -8   0  198.78   27.70
   0  -8   0  203.08   26.20
   0  -8   0  178.58   21.30
   0   8   0  138.49   27.10
  -1  -8   0    5.00   14.30
  -1  -8   0  -26.60   15.70
  -2  -8   0  100.99   21.00
  -2  -8   0   80.79   20.70
   2   8   0  109.49   21.90
  -3  -8   0  600.84   53.89
  -3  -8   0  621.34   58.59
   3   8   0  715.43   55.99
  -4  -8   0  399.86   47.10
  -4  -8   0  387.46   41.70
   4   8   0  398.86   42.20
  -5  -8   0  693.73   64.49
  -5  -8   0  539.05   53.79
   5   8   0  642.34   59.89
  -6  -8   0  418.86   56.39
  -6  -8   0  394.26   58.49
   6   8   0  602.84   57.09
  -7  -8   0   25.10   36.50
   7   8   0   19.90   32.80
  -8  -8   0  146.09   47.80
   8   8   0   75.59   38.20
  -9  -8   0   38.20   49.50
   9   8   0   33.20   39.20
   9  -9   0   94.29   40.40
  -9   9   0  154.58   48.10
   8  -9   0   77.39   35.40
  -8   9   0   48.40   34.30
   7  -9   0   17.90   26.70
  -7   9   0   29.90   31.60
   6  -9   0  493.75   53.99
  -6   9   0  531.45   58.79
   5  -9   0  -22.30   22.40
  -5   9   0   39.70   30.30
   4  -9   0  137.09   26.70
   4  -9   0  123.49   27.00
  -4   9   0  113.29   27.10
  -4   9   0  114.09   20.90
   3  -9   0   -7.50   18.70
  -3   9   0    7.30   21.10
  -3   9   0  -18.50   13.60
   2  -9   0  200.98   25.00
   2  -9   0  199.98   29.20
  -2   9   0  188.38   29.90
  -2   9   0  171.18   22.40
   1  -9   0    4.30   14.40
   1  -9   0   -5.60   15.30
  -1   9   0   -6.90   10.70
  -1   9   0    1.70   19.80
   0  -9   0  268.67   32.20
   0  -9   0  251.67   25.40
   0  -9   0  240.88   29.70
   0   9   0  232.58   32.30
  -1  -9   0   26.40   12.50
  -1  -9   0  -23.40   14.60
  -1  -9   0    7.70   17.00
  -2  -9   0 1013.80   73.39
  -2  -9   0  938.91   73.49
   2   9   0  928.81   71.49
  -3  -9   0  214.98   31.60
  -3  -9   0  207.28   35.50
  -3  -9   0  162.38   42.70
   3   9   0  272.47   30.80
  -4  -9   0  428.26   49.70
  -4  -9   0  399.16   42.60
   4   9   0  318.57   41.30
  -5  -9   0  206.78   32.20
  -5  -9   0  225.98   53.89
   5   9   0  263.57   37.40
  -6  -9   0   47.90   37.10
   6   9   0   56.19   50.79
  -7  -9   0  -34.20   36.80
   7   9   0   21.60   34.20
  -8  -9   0   38.40   44.30
   8   9   0  -27.60   35.10
  -9  -9   0    6.90   47.00
   9   9   0   68.49   41.40
   9 -10   0    8.40   31.70
  -9  10   0   67.29   38.60
   8 -10   0    1.30   30.60
  -8  10   0   30.70   32.70
   7 -10   0  123.09   35.50
  -7  10   0  185.58   39.90
   6 -10   0    0.00   25.40
  -6  10   0   15.00   28.40
   5 -10   0   89.89   27.10
  -5  10   0   60.19   29.00
   4 -10   0  296.47   35.70
   4 -10   0  255.97   35.20
  -4  10   0  204.58   35.10
  -4  10   0  218.88   28.70
   3 -10   0   28.50   18.80
   3 -10   0  -14.90   17.40
  -3  10   0   -1.50   13.30
  -3  10   0   35.10   23.80
   2 -10   0  -15.10   15.10
  -2  10   0   14.20   11.50
  -2  10   0    6.30   19.60
   1 -10   0  240.48   33.10
   1 -10   0  280.77   29.50
  -1  10   0  280.07   36.00
   0 -10   0    2.80   17.50
   0 -10   0   14.90   18.10
   0 -10   0   54.59   13.90
   0  10   0   64.19   21.70
  -1 -10   0   15.80   17.90
  -1 -10   0   -1.00   17.50
  -1 -10   0   23.70   14.00
  -2 -10   0   48.60   20.90
  -3 -10   0  667.53   60.49
  -3 -10   0  753.12   63.09
  -3 -10   0  733.23   68.59
   3  10   0  724.43   60.99
  -4 -10   0   98.59   33.80
  -4 -10   0   41.30   23.10
   4  10   0   92.79   25.40
  -5 -10   0  306.67   46.80
  -5 -10   0  228.78   35.60
   5  10   0  298.47   42.00
  -6 -10   0   13.60   36.90
   6  10   0   43.10   33.90
  -7 -10   0   29.00   41.00
   7  10   0    1.00   33.10
  -8 -10   0   79.09   45.90
   8  10   0  -11.60   35.70
   9 -11   0   29.20   33.40
  -9  11   0   -3.80   34.20
   8 -11   0  171.88   40.90
  -8  11   0  142.29   42.20
   7 -11   0   71.69   33.30
  -7  11   0  110.99   36.70
   6 -11   0   99.59   32.60
  -6  11   0  144.09   38.20
   5 -11   0   98.29   27.70
  -5  11   0   57.79   30.70
   4 -11   0   -2.00   21.60
  -4  11   0   33.00   29.20
   3 -11   0  442.56   48.00
   3 -11   0  421.26   43.30
  -3  11   0  405.66   38.60
  -3  11   0  432.36   48.90
   2 -11   0  148.59   26.10
   2 -11   0  167.98   28.40
  -2  11   0  128.39   29.50
  -2  11   0  183.18   30.30
   1 -11   0  510.45   40.60
   1 -11   0  377.16   45.00
  -1  11   0  451.45   50.59
   0 -11   0  315.17   39.20
   0 -11   0  349.77   38.30
   0 -11   0  391.86   34.10
   0  11   0  297.17   40.50
  -1 -11   0  227.18   25.00
  -1 -11   0  199.88   30.00
  -1 -11   0  143.49   29.70
  -2 -11   0  258.57   35.90
  -2 -11   0  310.57   37.60
  -3 -11   0  207.48   35.80
  -3 -11   0  297.37   52.89
  -3 -11   0  303.97   44.20
   3  11   0  345.17   37.40
  -4 -11   0  249.38   47.60
  -4 -11   0  184.18   33.50
   4  11   0  289.47   38.20
  -5 -11   0   17.00   36.70
   5  11   0   39.10   29.70
  -6 -11   0   32.10   37.80
   6  11   0   -2.90   30.70
  -7 -11   0   47.10   42.60
   7  11   0   50.79   38.50
  -8 -11   0  125.79   52.19
   8  11   0  -41.80   37.60
   9 -12   0  161.28   48.30
  -9  12   0   96.79   51.39
   8 -12   0   75.09   35.30
  -8  12   0   63.69   39.60
   7 -12   0  111.49   37.60
  -7  12   0  155.68   39.70
   6 -12   0   52.59   29.50
  -6  12   0   75.79   33.70
   5 -12   0   12.60   23.40
  -5  12   0    6.60   25.00
   4 -12   0  433.16   46.00
  -4  12   0  375.66   49.90
   3 -12   0   35.70   24.70
  -3  12   0  142.59   55.19
  -3  12   0   56.89   18.90
   2 -12   0  726.83   66.19
   2 -12   0  749.03   60.19
  -2  12   0  803.82   68.69
  -2  12   0  738.03   57.29
   1 -12   0   35.40   21.20
   1 -12   0  108.09   21.80
  -1  12   0   90.29   27.70
   0 -12   0  213.38   35.10
   0 -12   0  278.27   30.00
   0 -12   0  208.98   49.60
   0  12   0  235.58   38.40
  -1 -12   0  128.89   29.20
  -1 -12   0  193.78   45.40
  -1 -12   0  142.79   23.40
  -2 -12   0  389.56   48.40
  -2 -12   0  471.25   40.00
  -2 -12   0  414.06   48.10
  -3 -12   0  621.04   72.19
  -3 -12   0  467.15   52.69
  -4 -12   0  -20.00   34.40
  -4 -12   0  -36.60   21.80
   4  12   0  -15.30   27.40
  -5 -12   0   57.39   40.20
   5  12   0   64.39   32.80
  -6 -12   0   31.40   41.80
   6  12   0   49.40   34.50
  -7 -12   0   17.20   45.50
   7  12   0   54.49   37.30
   8 -13   0  148.29   42.90
  -8  13   0  204.48   48.30
   7 -13   0   58.39   34.50
  -7  13   0   41.60   34.10
   6 -13   0  192.98   39.30
  -6  13   0  190.98   42.30
   5 -13   0  190.38   36.30
  -5  13   0  208.98   42.20
   4 -13   0   53.49   26.20
  -4  13   0   53.59   29.70
   3 -13   0  367.36   45.20
  -3  13   0  376.96   49.30
   2 -13   0   74.99   22.50
  -2  13   0   51.59   28.80
  -2  13   0   59.29   16.40
   1 -13   0 1086.89   75.39
   1 -13   0  872.41   77.89
   0 -13   0  175.38   34.40
   0 -13   0  210.78   28.40
   0  13   0  292.27   50.39
  -1 -13   0  313.67   42.60
  -1 -13   0  348.77   35.30
  -2 -13   0   93.69   23.10
  -2 -13   0   97.59   29.40
  -3 -13   0   36.30   25.90
  -4 -13   0   42.80   38.10
  -5 -13   0   46.70   42.00
   5  13   0   15.90   30.40
  -6 -13   0  -38.30   41.20
   6  13   0  -14.10   33.30
  -7 -13   0   78.49   50.59
   7  13   0   -9.00   35.80
   8 -14   0   80.59   39.00
  -8  14   0  126.59   45.80
   7 -14   0   40.70   31.40
  -7  14   0   43.80   35.30
   6 -14   0  222.78   43.20
  -6  14   0  226.88   45.60
   5 -14   0   60.09   30.00
  -5  14   0   27.10   32.20
   4 -14   0  699.13   63.69
  -4  14   0  666.53   71.29
   3 -14   0   -3.50   22.40
  -3  14   0   26.60   30.60
   2 -14   0  457.85   47.10
  -2  14   0  429.46   55.39
   1 -14   0  244.18   34.30
  -1  14   0  254.07   42.20
   0 -14   0  626.74   51.99
   0 -14   0  559.54   60.49
  -1 -14   0   80.39   21.30
  -1 -14   0   72.09   29.10
  -2 -14   0  180.08   43.90
  -2 -14   0  157.38   27.10
  -3 -14   0  143.39   34.70
  -4 -14   0  -19.90   38.50
  -5 -14   0   14.30   42.40
   5  14   0   -5.20   28.90
  -6 -14   0  -31.00   44.30
   6  14   0   -2.40   32.90
   7 -15   0  145.39   42.60
  -7  15   0  188.48   49.60
   6 -15   0   24.90   29.40
  -6  15   0  -24.50   31.70
   5 -15   0  703.93   68.79
  -5  15   0  705.13   76.39
   4 -15   0   55.19   27.30
  -4  15   0    6.30   33.20
   3 -15   0  790.42   68.69
  -3  15   0  804.52   79.79
   2 -15   0   44.00   23.40
  -2  15   0   79.19   36.30
   1 -15   0  128.29   27.40
  -1  15   0  125.89   37.30
   0 -15   0   54.89   23.60
  -1 -15   0  143.89   29.20
  -2 -15   0   97.09   24.10
  -3 -15   0   96.09   26.50
  -4 -15   0   82.09   43.50
  -5 -15   0  -48.10   44.20
   6 -16   0  342.27   54.69
  -6  16   0  358.06   58.19
   5 -16   0  131.19   37.80
  -5  16   0  164.08   43.60
   4 -16   0  405.66   51.59
  -4  16   0  396.86   56.69
   3 -16   0    3.30   24.10
  -3  16   0  -42.70   32.60
   2 -16   0  157.58   30.40
  -2  16   0  162.68   41.60
   1 -16   0   14.80   21.80
  -1  16   0   27.60   33.50
   0 -16   0   20.40   23.80
  -1 -16   0  348.27   41.00
  -2 -16   0   65.99   25.10
  -3 -16   0  263.77   54.99
  -3 -16   0  289.07   37.10
  -4 -16   0   56.39   25.00
  -4 -16   0   26.40   46.90
  -5 -16   0  -34.30   45.80
   5 -17   0  499.45   63.19
  -5  17   0  446.46   65.89
   4 -17   0   -0.40   28.30
  -4  17   0  -30.80   33.20
   3 -17   0   71.59   28.70
  -3  17   0  -31.80   33.40
   2 -17   0   26.20   26.30
  -2  17   0   45.20   36.40
   1 -17   0   22.80   23.70
  -1  17   0   44.70   35.80
   0 -17   0  206.68   32.60
  -1 -17   0  -12.50   22.00
  -2 -17   0  155.88   30.90
  -3 -17   0  135.49   31.80
  -3 -17   0  143.99   51.79
   4 -18   0   12.90   28.70
  -4  18   0   21.20   38.50
   3 -18   0   18.60   28.70
  -3  18   0   11.20   36.20
   2 -18   0   -0.70   24.10
  -2  18   0    4.30   35.50
   1 -18   0   54.09   27.40
  -1  18   0   -4.00   35.60
   0 -18   0   76.39   27.40
  -1 -18   0   44.50   24.50
  -2 -18   0  136.89   31.30
   0 -19   1   40.30   25.20
   1 -19   1   73.49   29.30
  -2  19  -1  -30.00   38.50
   2 -19   1   36.00   27.30
  -3 -18   1  250.77   37.30
  -2 -18   1  -42.40   23.80
  -1 -18   1   98.39   27.00
   0 -18   1   28.50   22.50
  -1  18  -1   -5.90   36.60
   1 -18   1   33.00   26.70
  -2  18  -1   79.89   40.50
   2 -18   1  116.29   29.60
  -3  18  -1  -71.69   33.30
   3 -18   1   17.30   24.90
  -4  18  -1  551.74   71.09
   4 -18   1  463.55   57.99
  -4 -17   1   51.49   27.90
  -4 -17   1  136.09   53.79
  -3 -17   1    3.40   22.10
  -2 -17   1   61.89   24.70
  -1 -17   1  -51.59   20.60
   0 -17   1   13.20   22.00
  -1  17  -1  182.28   44.10
   1 -17   1  214.48   34.40
  -2  17  -1   59.39   36.40
   2 -17   1   -3.40   22.50
  -3  17  -1  518.85   65.99
   3 -17   1  390.66   49.60
  -4  17  -1    7.50   35.80
   4 -17   1    1.00   24.60
  -5  17  -1  566.14   74.39
   5 -17   1  787.12   71.19
  -5 -16   1 -103.49   43.50
  -4 -16   1   83.19   46.30
  -4 -16   1   12.00   22.00
  -3 -16   1   23.10   21.70
  -2 -16   1   44.20   22.30
  -1 -16   1   67.79   23.80
   0 -16   1   -2.30   22.20
  -1  16  -1   59.49   36.10
   1 -16   1   29.30   23.20
  -2  16  -1  519.35   63.29
   2 -16   1  489.45   50.89
  -3  16  -1  -10.60   32.80
   3 -16   1   20.70   23.10
  -4  16  -1  740.73   79.09
   4 -16   1  793.02   69.79
  -5  16  -1   46.80   35.90
   5 -16   1   -9.00   25.60
  -6  16  -1   53.89   38.20
   6 -16   1   93.89   35.80
   6  15  -1  -17.00   34.00
  -6 -15   1    3.50   50.79
  -5 -15   1   43.70   45.00
  -4 -15   1   29.20   43.00
  -2 -15   1   90.19   23.00
  -2 -15   1  130.89   33.90
  -1 -15   1   66.29   31.20
  -1 -15   1  106.49   24.10
   0 -15   1  131.79   25.40
   0 -15   1  121.59   32.70
  -1  15  -1  142.59   37.60
   1 -15   1  112.79   26.50
  -2  15  -1   68.19   33.00
   2 -15   1   98.09   24.90
  -3  15  -1  194.38   43.30
   3 -15   1  278.17   37.70
  -4  15  -1  -23.70   30.70
   4 -15   1   -0.10   24.10
  -5  15  -1  409.86   55.99
   5 -15   1  393.86   51.59
  -6  15  -1   76.79   37.30
   6 -15   1   32.20   30.00
  -7  15  -1   78.49   36.20
   7 -15   1    3.70   32.20
   6  14  -1   76.39   34.80
  -6 -14   1   67.69   47.90
   5  14  -1   23.50   31.20
  -5 -14   1   -9.60   41.00
  -4 -14   1   -6.20   38.10
  -3 -14   1  317.27   32.40
  -3 -14   1  164.58   35.80
  -2 -14   1  198.08   26.20
  -2 -14   1  103.19   31.90
  -1 -14   1  134.59   31.90
  -1 -14   1  152.78   23.60
   0  14  -1  350.06   49.40
   0 -14   1  433.76   38.90
   0 -14   1  341.37   44.30
  -1  14  -1  169.68   36.00
   1 -14   1   81.79   23.90
   1 -14   1   76.49   28.70
  -2  14  -1  143.59   35.60
   2 -14   1  146.49   28.60
  -3  14  -1   85.79   32.30
   3 -14   1   99.29   27.70
  -4  14  -1  377.06   51.59
   4 -14   1  320.37   43.60
  -5  14  -1   40.70   33.20
   5 -14   1   80.89   31.00
  -6  14  -1   24.40   33.00
   6 -14   1  -16.80   26.30
  -7  14  -1   47.50   38.30
   7 -14   1   63.19   32.40
  -8  14  -1   34.80   38.20
   8 -14   1   53.19   37.90
   7  13  -1    5.10   35.60
  -7 -13   1  -32.90   43.90
   6  13  -1   -5.00   30.40
  -6 -13   1  109.09   45.40
   5  13  -1   23.20   35.10
  -5 -13   1  -32.80   38.50
   4  13  -1   91.39   29.90
  -4 -13   1   60.39   27.70
  -4 -13   1   93.79   40.80
  -3 -13   1   96.79   28.20
  -2 -13   1  594.04   66.19
  -2 -13   1  654.53   50.99
  -1 -13   1  351.56   34.70
  -1 -13   1  411.46   52.49
   0  13  -1    2.30   33.90
   0 -13   1    4.70   15.90
   0 -13   1   12.30   34.40
  -1  13  -1   -4.10   46.90
   1 -13   1   35.40   18.30
  -2  13  -1   55.79   26.90
  -2  13  -1   44.00   14.60
   2 -13   1   22.90   20.40
  -3  13  -1   60.49   19.70
  -3  13  -1   59.09   27.50
   3 -13   1   89.19   24.20
  -4  13  -1   50.79   28.30
   4 -13   1   40.60   23.80
  -5  13  -1  278.07   46.90
   5 -13   1  340.47   46.20
  -6  13  -1  108.19   35.40
   6 -13   1   75.59   30.30
  -7  13  -1   46.20   34.90
   7 -13   1   70.69   34.90
  -8  13  -1   68.39   40.00
   8 -13   1  112.89   39.90
   8  12  -1   -0.10   38.10
  -8 -12   1   47.30   49.80
   7  12  -1    9.70   34.40
  -7 -12   1   -1.60   44.30
   6  12  -1  -12.50   32.60
  -6 -12   1    7.20   39.90
   5  12  -1   69.79   29.90
  -5 -12   1  164.48   44.30
  -5 -12   1   72.59   37.60
   4  12  -1   47.60   26.80
  -4 -12   1    7.80   22.80
  -4 -12   1   13.70   33.40
  -3 -12   1  545.05   70.09
  -2 -12   1   69.99   27.00
  -2 -12   1   95.09   24.90
  -2 -12   1   87.29   17.80
  -1 -12   1   40.10   21.70
  -1 -12   1   -0.20   18.90
  -1 -12   1   45.30   14.80
   0  12  -1  156.38   33.40
   0 -12   1  198.58   23.50
   0 -12   1  174.18   28.00
   0 -12   1  157.58   30.70
  -1  12  -1  475.25   50.79
   1 -12   1  450.15   40.40
   1 -12   1  415.66   47.10
  -2  12  -1   80.39   17.70
  -2  12  -1   72.09   26.60
   2 -12   1   95.69   20.70
   2 -12   1   70.89   23.00
  -3  12  -1  224.58   29.00
   3 -12   1  259.47   34.70
  -4  12  -1   53.79   28.10
   4 -12   1   13.70   27.40
  -5  12  -1   99.99   32.40
   5 -12   1   45.40   26.90
  -6  12  -1   48.40   31.70
   6 -12   1   11.00   25.50
  -7  12  -1   29.00   33.20
   7 -12   1   58.49   31.30
  -8  12  -1   54.19   38.10
   8 -12   1   -5.30   31.20
  -9  12  -1  112.79   46.00
   9 -12   1   33.80   38.10
   8  11  -1    9.60   34.70
  -8 -11   1   25.40   49.00
   7  11  -1   59.59   35.20
  -7 -11   1  170.98   47.70
   6  11  -1   39.50   31.80
  -6 -11   1   37.10   37.70
   5  11  -1   57.09   30.00
  -5 -11   1   99.89   28.20
  -5 -11   1   74.49   40.00
   4  11  -1  165.38   30.00
  -4 -11   1  150.98   40.20
  -4 -11   1  152.18   33.30
   3  11  -1  509.15   45.50
  -3 -11   1  491.45   46.20
  -3 -11   1  352.06   45.70
  -3 -11   1  438.36   51.69
  -2 -11   1  187.18   29.30
  -2 -11   1  158.18   28.80
  -1 -11   1   16.80   12.70
  -1 -11   1   30.20   19.30
  -1 -11   1   -4.60   18.20
   0  11  -1   41.20   23.10
   0 -11   1   27.40   14.20
   0 -11   1   34.30   18.70
   0 -11   1   16.20   18.40
  -1  11  -1  376.36   42.00
   1 -11   1  301.47   38.00
   1 -11   1  299.67   31.50
  -2  11  -1   -6.70   11.80
  -2  11  -1   10.00   22.50
   2 -11   1   -9.60   16.10
   2 -11   1  -10.50   15.70
  -3  11  -1   26.60   14.50
  -3  11  -1   52.69   25.40
   3 -11   1   23.50   19.50
   3 -11   1   58.29   22.30
  -4  11  -1   84.69   18.80
  -4  11  -1   80.79   44.70
   4 -11   1   66.99   26.10
  -5  11  -1   34.30   26.70
   5 -11   1   10.40   23.00
  -6  11  -1  276.37   47.30
   6 -11   1  323.87   44.90
  -7  11  -1   24.00   29.80
   7 -11   1   51.89   30.80
  -8  11  -1   63.69   34.30
   8 -11   1   26.20   33.60
  -9  11  -1  110.89   43.30
   9 -11   1   48.30   39.00
   8  10  -1  164.98   44.20
  -8 -10   1  173.88   53.19
   7  10  -1  -37.60   32.80
  -7 -10   1  -27.90   39.20
   6  10  -1  314.87   46.70
  -6 -10   1  288.87   53.49
   5  10  -1  267.57   37.10
  -5 -10   1  160.58   30.50
  -5 -10   1  261.87   43.30
   4  10  -1  314.87   38.40
  -4 -10   1  344.47   44.90
  -4 -10   1  279.07   35.90
   3  10  -1  359.66   40.90
  -3 -10   1  495.75   51.29
  -3 -10   1  397.36   44.00
  -3 -10   1  415.96   42.50
  -2 -10   1   -0.50   17.30
  -1 -10   1   35.90   17.90
  -1 -10   1   20.00   13.00
  -1 -10   1    9.60   17.50
   0  10  -1  103.49   24.60
   0 -10   1  149.09   24.50
   0 -10   1  101.79   24.30
   0 -10   1  145.69   19.10
  -1  10  -1  140.19   19.20
  -1  10  -1  163.18   29.20
   1 -10   1  134.89   26.40
   1 -10   1  168.48   21.50
  -2  10  -1  103.09   16.80
  -2  10  -1  104.99   26.30
   2 -10   1   95.09   20.20
  -3  10  -1   -8.50   20.60
  -3  10  -1   -5.00   10.50
   3 -10   1   23.30   18.00
   3 -10   1  -21.10   14.80
  -4  10  -1  162.98   32.80
  -4  10  -1  144.39   22.80
   4 -10   1  168.08   29.00
   4 -10   1  142.89   29.00
  -5  10  -1   26.20   24.60
   5 -10   1   45.60   31.00
  -6  10  -1   16.70   27.80
   6 -10   1    7.10   26.30
  -7  10  -1   85.39   34.20
   7 -10   1   21.50   28.30
  -8  10  -1   44.00   35.90
   8 -10   1   27.90   32.70
  -9  10  -1    6.80   33.50
   9 -10   1   81.29   39.30
   9   9  -1  123.79   42.40
  -9  -9   1  154.08   51.69
   8   9  -1   28.80   36.00
  -8  -9   1  -16.40   41.90
   7   9  -1  240.98   42.90
  -7  -9   1  235.98   50.09
   6   9  -1   -2.00   29.00
  -6  -9   1   22.20   31.50
  -6  -9   1  -19.00   21.10
   5   9  -1  240.98   36.10
  -5  -9   1  247.28   34.40
   4   9  -1  155.48   26.90
  -4  -9   1  122.09   25.00
  -4  -9   1   81.99   30.70
   3   9  -1  471.75   42.90
  -3  -9   1  441.16   49.40
  -3  -9   1  402.26   40.70
   2   9  -1  107.09   21.70
  -2  -9   1  115.79   21.70
  -2  -9   1   93.59   22.70
  -1  -9   1  124.69   29.90
  -1  -9   1  165.48   26.40
  -1  -9   1  182.98   19.90
   0   9  -1   10.30   18.70
   0  -9   1   40.40   18.80
   0  -9   1   19.40   11.70
   0  -9   1   14.40   15.90
  -1   9  -1   -9.80   11.50
  -1   9  -1   -2.20   18.20
   1  -9   1   17.50   12.60
   1  -9   1    8.90   16.20
  -2   9  -1   -5.00   10.70
  -2   9  -1   23.90   19.20
   2  -9   1    9.40   16.30
   2  -9   1  -12.80   13.80
  -3   9  -1  129.59   28.00
  -3   9  -1  102.89   18.80
   3  -9   1  102.39   38.80
   3  -9   1  124.89   23.00
  -4   9  -1   62.29   24.80
  -4   9  -1   63.69   16.00
   4  -9   1   68.09   22.60
   4  -9   1   51.19   20.70
  -5   9  -1   78.19   28.30
  -5   9  -1   32.60   15.90
   5  -9   1   31.80   22.30
  -6   9  -1   67.89   29.60
   6  -9   1   65.89   27.60
  -7   9  -1  316.57   48.00
   7  -9   1  267.27   43.20
  -8   9  -1  247.68   48.50
   8  -9   1  219.98   44.60
  -9   9  -1  126.49   42.90
   9  -9   1  101.49   38.10
 -10   9  -1  227.88   54.39
  10  -9   1   81.99   46.20
   9   8  -1   -4.30   36.00
  -9  -8   1    2.80   46.00
   8   8  -1  178.18   41.60
  -8  -8   1  199.48   50.59
   7   8  -1   48.50   32.20
  -7  -8   1  -21.60   33.60
   6   8  -1  692.73   63.09
  -6  -8   1  715.23   71.29
  -6  -8   1  585.74   58.69
   5   8  -1   -5.80   21.60
  -5  -8   1    1.00   18.50
  -5  -8   1   -1.00   25.70
   4   8  -1   -7.90   19.40
  -4  -8   1   -1.90   23.10
  -4  -8   1   19.80   17.40
   3   8  -1  151.48   25.20
  -3  -8   1  194.08   25.90
  -3  -8   1  152.88   29.70
   2   8  -1   -0.30   15.70
  -2  -8   1   18.90   16.10
  -2  -8   1   15.90   16.00
  -1  -8   1  313.17   35.40
  -1  -8   1  330.97   27.10
  -1  -8   1  316.87   33.30
   0   8  -1   64.49   20.30
   0  -8   1   80.69   13.30
   0  -8   1   89.09   19.90
   0  -8   1  100.69   18.10
  -1   8  -1  -27.00    9.60
  -1   8  -1   -9.50   17.00
   1  -8   1   19.90   15.50
   1  -8   1   -0.60   11.30
  -2   8  -1  233.58   31.60
  -2   8  -1  205.18   22.60
   2  -8   1  218.58   28.70
   2  -8   1  173.08   23.80
  -3   8  -1  208.98   23.80
  -3   8  -1  201.48   31.10
   3  -8   1  236.58   28.10
   3  -8   1  215.18   30.20
  -4   8  -1  -22.70   17.20
  -4   8  -1   -9.40   12.40
   4  -8   1  -48.80   15.10
   4  -8   1  -22.30   12.90
  -5   8  -1   63.39   18.20
  -5   8  -1   96.79   27.10
   5  -8   1   95.39   25.30
   5  -8   1  130.19   27.90
  -6   8  -1   31.00   26.50
   6  -8   1   -2.80   23.10
  -7   8  -1  238.58   41.80
   7  -8   1  190.08   39.40
  -8   8  -1  157.18   41.70
   8  -8   1  249.18   43.70
  -9   8  -1  206.38   48.20
   9  -8   1  235.18   48.50
 -10   8  -1   58.29   39.90
  10  -8   1   60.49   42.20
   9   7  -1  181.98   46.70
  -9  -7   1  170.08   53.79
   8   7  -1  -32.50   30.30
  -8  -7   1    5.50   39.60
   7   7  -1  174.58   39.30
  -7  -7   1  110.29   40.00
   6   7  -1  228.58   37.00
  -6  -7   1  225.88   30.50
  -6  -7   1  195.38   43.10
   5   7  -1  189.28   31.90
  -5  -7   1  148.69   27.00
  -5  -7   1  177.08   33.80
   4   7  -1  156.58   27.10
  -4  -7   1  212.48   33.20
  -4  -7   1  126.59   23.70
   3   7  -1  228.68   28.20
  -3  -7   1  248.98   32.70
  -3  -7   1  204.08   26.80
   2   7  -1 2186.08  150.08
  -2  -7   1 2328.87  150.18
  -1  -7   1  194.28   24.00
  -1  -7   1  192.18   25.20
   0   7  -1   -5.60   13.20
   0  -7   1   -4.00   13.60
   0  -7   1   -6.40    8.50
  -1   7  -1  533.95   47.50
  -1   7  -1  579.34   40.80
   1  -7   1  549.25   41.40
   1  -7   1  530.85   45.80
  -2   7  -1 1232.98   85.59
  -2   7  -1 1297.97   90.89
   2  -7   1 1317.07   87.39
   2  -7   1 1214.58   89.99
  -3   7  -1 1334.07   90.29
  -3   7  -1 1273.37   95.69
   3  -7   1 1373.26   92.39
   3  -7   1 1269.97   94.69
  -4   7  -1  325.97   37.90
  -4   7  -1  268.37   30.50
   4  -7   1  366.56   36.20
   4  -7   1  340.67   37.60
  -5   7  -1  128.49   28.60
  -5   7  -1   64.09   18.10
   5  -7   1   89.89   24.30
   5  -7   1  138.59   25.60
   6  -7   1  465.95   57.09
  -7   7  -1  147.59   36.60
   7  -7   1  132.09   34.40
  -8   7  -1  169.88   38.50
   8  -7   1   82.59   33.70
  -9   7  -1   36.60   36.30
   9  -7   1   -5.60   31.50
 -10   7  -1  101.19   42.20
  10  -7   1   56.99   40.60
  10   6  -1   89.49   45.40
 -10  -6   1  133.29   52.89
   9   6  -1    9.50   35.90
  -9  -6   1   -8.40   41.80
   8   6  -1  121.19   37.80
  -8  -6   1  155.28   43.80
   7   6  -1   25.10   50.79
  -7  -6   1   53.19   35.20
   6   6  -1  684.33   61.19
  -6  -6   1  578.14   54.29
  -6  -6   1  621.64   67.29
   5   6  -1  436.96   44.70
   5   6  -1  370.76   46.10
  -5  -6   1  365.06   38.80
  -5  -6   1  349.07   46.00
   4   6  -1  209.38   28.50
  -4  -6   1  157.58   29.10
  -4  -6   1  154.18   25.70
   3   6  -1 1274.57   89.29
  -3  -6   1 1240.28   93.49
  -3  -6   1 1260.37   88.19
   2   6  -1   27.10   14.90
  -2  -6   1  -14.70   11.60
  -1  -6   1  852.11   61.89
  -1  -6   1  803.42   66.59
   0   6  -1  254.17   28.70
   0  -6   1  262.97   28.50
   0  -6   1  249.78   21.50
  -1   6  -1  106.39   19.80
  -1   6  -1   82.89   12.50
   1  -6   1   74.49   17.60
   1  -6   1   73.49   12.60
  -2   6  -1   15.40   14.60
  -2   6  -1   -9.40    8.80
   2  -6   1   -0.70   11.90
   2  -6   1   -0.10   13.80
  -3   6  -1 1352.96   96.39
  -3   6  -1 1368.26   92.29
   3  -6   1 1314.97   93.79
   3  -6   1 1383.46   95.99
  -4   6  -1  887.41   62.79
  -4   6  -1  825.92   68.19
   4  -6   1  897.41   65.49
   4  -6   1  764.72   66.89
  -5   6  -1  825.62   60.09
  -5   6  -1  679.63   63.99
   5  -6   1  791.62   61.79
   5  -6   1  645.34   61.59
  -6   6  -1  257.77   39.60
  -6   6  -1  323.57   33.30
   6  -6   1  277.57   42.00
   6  -6   1  223.08   35.90
  -7   6  -1  191.08   38.00
   7  -6   1  214.88   37.80
  -8   6  -1  211.58   42.80
   8  -6   1  184.88   39.90
  -9   6  -1   81.49   41.60
   9  -6   1   66.09   35.50
 -10   6  -1   33.90   40.30
  10  -6   1   22.00   38.20
  10   5  -1   -1.90   39.10
 -10  -5   1   53.59   45.30
   9   5  -1   69.99   38.10
  -9  -5   1   66.59   44.10
   8   5  -1   50.99   32.40
  -8  -5   1  118.99   41.80
   7   5  -1  106.79   33.60
  -7  -5   1  160.18   40.80
   6   5  -1   28.10   25.50
   6   5  -1   74.59   26.40
  -6  -5   1   67.19   19.70
  -6  -5   1  -25.70   27.30
   5   5  -1  799.62   63.19
   5   5  -1  695.73   79.69
  -5  -5   1  687.33   59.59
  -5  -5   1  813.62   68.89
   4   5  -1 1395.06  103.19
   4   5  -1 1494.45  101.09
  -4  -5   1 1392.76  105.19
  -4  -5   1 1399.76   98.89
   3   5  -1  210.98   26.00
  -3  -5   1  158.38   28.30
  -3  -5   1  269.87   26.20
   2   5  -1 2040.30  139.59
  -2  -5   1 2125.09  142.59
  -2  -5   1 2167.58  139.89
   1   5  -1  441.56   34.60
  -1  -5   1  421.76   37.70
  -1  -5   1  439.66   35.00
   0   5  -1  477.05   42.80
   0  -5   1  535.95   36.60
   0  -5   1  509.65   42.70
  -1   5  -1  622.24   44.80
  -1   5  -1  571.14   48.50
   1  -5   1  580.44   47.70
   1  -5   1  641.04   44.10
  -2   5  -1  242.38   23.80
  -2   5  -1  256.17   28.90
   2  -5   1  245.58   26.00
   2  -5   1  272.67   29.30
  -3   5  -1 2275.67  145.19
  -3   5  -1 2223.08  147.99
   3  -5   1 2047.40  147.19
   3  -5   1 2232.78  146.09
  -4   5  -1 1025.50   73.39
  -4   5  -1 1015.70   77.59
   4  -5   1  986.40   76.99
   4  -5   1 1048.00   75.09
  -5   5  -1  858.61   63.69
  -5   5  -1  751.32   67.39
   5  -5   1  713.53   72.09
   5  -5   1  883.21   65.29
  -6   5  -1   43.80   22.70
  -6   5  -1   16.20   15.50
   6  -5   1   26.00   20.40
   6  -5   1   -0.40   21.40
  -7   5  -1   45.10   26.70
   7  -5   1  -20.70   23.00
  -8   5  -1  114.49   35.60
   8  -5   1    4.50   31.60
  -9   5  -1  -49.30   30.30
   9  -5   1  -16.70   33.00
 -10   5  -1   11.00   39.80
  10  -5   1  -31.40   35.10
  10   4  -1   -2.00   38.80
 -10  -4   1   13.60   42.70
   9   4  -1   26.90   37.50
  -9  -4   1    6.30   36.10
   8   4  -1   -9.20   30.10
  -8  -4   1   44.40   37.00
   7   4  -1   13.90   28.10
  -7  -4   1   38.00   31.90
   6   4  -1  309.67   40.50
   6   4  -1  349.37   41.10
  -6  -4   1  301.87   36.20
  -6  -4   1  294.17   43.20
   5   4  -1  700.33   65.59
   5   4  -1  879.41   64.29
  -5  -4   1  762.42   59.89
  -5  -4   1  719.73   68.09
   4   4  -1 1158.98   86.49
   4   4  -1 1221.88   84.19
  -4  -4   1 1089.29   88.29
  -4  -4   1 1139.49   82.39
   3   4  -1  498.05   41.90
   3   4  -1  520.55   44.30
  -3  -4   1  462.75   45.80
  -3  -4   1  489.35   40.00
   2   4  -1  497.45   48.30
  -2  -4   1  459.95   37.00
  -2  -4   1  452.55   41.10
   1   4  -1 3705.93  242.58
  -1  -4   1 3834.32  242.78
   0  -4   1 6538.75  422.06
   0  -4   1 6602.94  419.36
  -1   4  -1  113.99   12.70
  -1   4  -1   84.19   16.70
   1  -4   1  105.89   13.60
  -2   4  -1  211.98   23.20
  -2   4  -1  310.17   29.00
   2  -4   1  240.38   24.70
   2  -4   1  250.87   28.00
  -3   4  -1   22.60   12.10
  -3   4  -1   -7.20   14.90
   3  -4   1   18.90   13.50
   3  -4   1   25.00   15.00
  -4   4  -1  255.77   30.40
  -4   4  -1  261.97   27.30
   4  -4   1  218.18   29.50
   4  -4   1  222.88   29.80
  -5   4  -1  113.99   20.10
  -5   4  -1  134.19   25.60
   5  -4   1  110.39   23.90
   5  -4   1  118.09   25.20
  -6   4  -1  685.33   62.89
  -6   4  -1  698.03   56.39
   6  -4   1  735.93   61.29
   6  -4   1  650.63   60.09
  -7   4  -1   70.89   29.10
   7  -4   1   44.10   28.00
  -8   4  -1   31.50   32.50
   8  -4   1   88.99   33.40
  -9   4  -1   55.09   36.60
   9  -4   1    2.70   32.50
 -10   4  -1   -0.80   38.30
  10  -4   1   20.10   35.60
  10   3  -1  -58.29   34.80
 -10  -3   1   18.80   46.10
   9   3  -1   62.79   37.60
  -9  -3   1   86.59   42.80
   8   3  -1  -38.80   29.60
  -8  -3   1  -32.80   33.00
   7   3  -1   25.20   26.80
  -7  -3   1   95.09   33.20
   6   3  -1  189.48   31.00
   6   3  -1   94.29   28.20
  -6  -3   1  144.29   24.90
  -6  -3   1  133.69   34.30
   5   3  -1   34.10   20.50
   5   3  -1   27.70   20.40
  -5  -3   1   23.30   16.00
  -5  -3   1  -14.70   23.00
   4   3  -1  242.78   32.90
   4   3  -1  206.08   29.40
  -4  -3   1  219.58   26.10
  -4  -3   1  267.77   33.00
   3   3  -1  977.40   69.79
  -3  -3   1  948.31   68.39
   2   3  -1  926.41   68.69
   2   3  -1 1028.40   66.89
  -2  -3   1  922.51   65.89
  -2  -3   1  934.21   69.29
   1   3  -1  617.64   43.00
  -1  -3   1  613.94   42.80
   0   3  -1  118.09   10.90
   0   3  -1  161.38   16.20
   0  -3   1  182.98   16.70
   0  -3   1  112.09   10.90
  -1   3  -1 2667.13  172.08
  -1   3  -1 2661.33  170.28
   1  -3   1 2623.34  171.98
   1  -3   1 2629.34  170.48
  -2   3  -1  447.26   38.10
  -2   3  -1  439.96   37.90
   2  -3   1  465.85   37.00
   2  -3   1  437.46   35.70
  -3   3  -1 4000.90  264.27
  -3   3  -1 4022.70  262.67
   3  -3   1 4109.59  263.37
   3  -3   1 4082.49  264.27
  -4   3  -1   97.09   18.20
  -4   3  -1   74.49   20.40
   4  -3   1   63.49   18.90
   4  -3   1   94.59   20.60
  -5   3  -1    2.40   19.30
  -5   3  -1   14.40   14.30
   5  -3   1   28.10   18.40
   5  -3   1   24.60   17.40
  -6   3  -1   49.60   18.70
  -6   3  -1  115.89   28.90
   6  -3   1   27.60   22.60
   6  -3   1  110.99   24.90
  -7   3  -1  277.77   46.50
   7  -3   1  207.28   36.70
  -8   3  -1   89.09   36.70
   8  -3   1   51.09   34.40
  -9   3  -1   76.69   38.80
   9  -3   1   35.40   35.30
 -10   3  -1    8.60   43.80
  10  -3   1   33.90   40.60
  10   2  -1  235.68   52.29
 -10  -2   1  275.17   59.49
   9   2  -1   -4.80   32.60
  -9  -2   1   42.00   38.80
   8   2  -1  -12.80   27.80
  -8  -2   1   40.90   34.80
   7   2  -1   27.10   25.50
  -7  -2   1   26.00   32.30
   6   2  -1   -8.80   21.50
   6   2  -1   37.30   22.80
  -6  -2   1  -32.50   21.40
  -6  -2   1   38.40   20.20
   5   2  -1   21.20   18.80
   5   2  -1   21.90   20.60
  -5  -2   1   28.60   15.20
  -5  -2   1   41.70   22.10
   4   2  -1  327.97   35.40
   4   2  -1  322.47   36.10
  -4  -2   1  276.57   31.90
  -4  -2   1  370.86   38.30
   3   2  -1  384.36   34.50
   3   2  -1  364.96   37.50
  -3  -2   1  331.47   36.70
  -3  -2   1  375.56   32.60
   2   2  -1 8077.79  525.85
  -2  -2   1 8244.98  527.75
  -2  -2   1 8340.17  525.85
   1   2  -1  182.78   15.60
  -1  -2   1  176.48   14.80
  -1  -2   1  146.09   17.20
  -1   2  -1  235.38   21.10
  -1   2  -1  255.27   19.50
   1  -2   1  255.07   19.70
   1  -2   1  268.97   21.20
  -2   2  -1 9999.00  596.74
  -2   2  -1 8352.76  593.84
   2  -2   1 9127.49  595.34
   2  -2   1 9729.63  595.94
  -3   2  -1  184.68   21.90
  -3   2  -1  200.48   25.00
   3  -2   1  215.88   24.90
   3  -2   1  203.08   24.00
  -4   2  -1   30.00   13.10
  -4   2  -1   23.40   17.70
   4  -2   1   -1.10   15.10
   4  -2   1   10.80   14.70
  -5   2  -1  280.47   31.60
  -5   2  -1  296.37   36.50
   5  -2   1  255.47   32.70
   5  -2   1  316.57   35.70
  -6   2  -1   51.19   19.60
  -6   2  -1   63.19   26.60
   6  -2   1   89.49   25.40
   6  -2   1   60.39   26.00
   7  -2   1  361.16   57.39
  -8   2  -1  140.89   40.70
   8  -2   1  130.49   37.70
  -9   2  -1   86.99   39.90
   9  -2   1   -0.90   33.50
 -10   2  -1    4.00   42.60
  10  -2   1   -2.30   35.00
  10   1  -1  -31.80   33.60
 -10  -1   1  -61.19   41.80
   9   1  -1  119.79   40.20
  -9  -1   1  151.88   45.30
   8   1  -1   94.19   34.10
  -8  -1   1  103.39   38.10
   7   1  -1   -4.70   23.60
  -7  -1   1  -26.00   33.50
   6   1  -1   84.69   25.20
   6   1  -1   81.89   25.70
  -6  -1   1  114.09   29.20
  -6  -1   1   74.59   19.90
   5   1  -1    2.80   17.60
   5   1  -1    4.70   18.60
  -5  -1   1   11.40   15.10
  -5  -1   1    3.10   21.30
   4   1  -1   99.09   20.10
   4   1  -1   51.39   18.60
  -4  -1   1   95.39   21.60
  -4  -1   1   93.19   16.30
   3   1  -1  625.84   49.40
   3   1  -1  648.44   51.39
  -3  -1   1  604.94   47.90
  -3  -1   1  707.53   52.59
   2   1  -1  697.53   52.19
   2   1  -1  816.32   54.49
  -2  -1   1  708.73   51.29
   1   1  -1 7536.05  472.95
   1   1  -1 6993.00  473.95
  -1  -1   1 7730.03  474.15
  -1   1  -1 8678.13  525.15
   1  -1   1 7780.22  524.75
  -2   1  -1  387.16   33.60
  -2   1  -1  382.76   32.30
   2  -1   1  432.76   33.40
  -3   1  -1  867.31   65.29
  -3   1  -1  853.81   63.59
   3  -1   1  930.61   64.69
   3  -1   1  890.31   64.89
  -4   1  -1  413.76   38.50
  -4   1  -1  396.06   35.00
   4  -1   1  326.07   37.10
   4  -1   1  337.47   37.50
  -5   1  -1   35.40   17.60
  -5   1  -1   94.19   24.40
   5  -1   1   19.30   20.00
   5  -1   1   25.40   20.10
  -6   1  -1  354.16   37.70
  -6   1  -1  326.57   44.70
   6  -1   1  380.86   42.50
   6  -1   1  396.46   43.80
  -7   1  -1   10.70   34.20
  -8   1  -1  458.55   56.99
   8  -1   1  392.36   53.29
  -9   1  -1  158.48   45.00
   9  -1   1   88.79   39.50
 -10   1  -1   50.49   47.00
  10  -1   1    3.30   36.50
  10   0  -1   12.20   34.80
 -10   0   1    4.40   39.60
   9   0  -1   52.19   36.60
  -9   0   1   78.09   40.80
   8   0  -1    0.60   28.40
  -8   0   1   53.49   35.80
   7   0  -1   77.59   27.20
  -7   0   1  113.09   45.10
   6   0  -1  -17.90   18.60
   6   0  -1  -36.30   21.30
  -6   0   1    0.00   14.40
  -6   0   1   24.70   24.00
   5   0  -1  385.56   35.20
   5   0  -1  212.38   32.10
  -5   0   1  225.08   28.20
  -5   0   1  258.67   35.40
   4   0  -1  192.28   24.70
   4   0  -1  203.38   28.20
  -4   0   1  184.08   24.10
  -4   0   1  223.98   28.70
   3   0  -1  313.87   32.60
   3   0  -1  310.17   30.20
  -3   0   1  257.47   27.90
  -3   0   1  348.37   32.90
   2   0  -1  340.07   29.40
   2   0  -1  321.47   26.30
  -2   0   1  219.58   36.50
  -2   0   1  288.37   25.30
   1   0  -1   92.89   10.90
   1   0  -1  106.19   10.30
  -1   0   1  142.19   11.70
  -1   0   1  110.69   12.40
  -1   0  -1  268.77   20.70
  -1   0  -1  262.57   24.30
   1   0   1  253.47   19.90
   1   0   1  309.87   21.70
  -2   0  -1  305.87   28.30
  -2   0  -1  276.97   27.60
   2   0   1  302.77   28.00
  -3   0  -1  117.59   19.00
  -3   0  -1  180.18   22.20
   3   0   1  128.39   20.50
   3   0   1   86.59   21.60
  -4   0  -1   98.39   22.60
  -4   0  -1  111.79   20.30
   4   0   1  112.69   22.50
   4   0   1  105.29   22.20
  -5   0  -1  676.83   53.39
  -5   0  -1  683.33   57.99
   5   0   1  613.74   56.49
   5   0   1  650.03   56.59
  -6   0  -1   63.89   19.00
  -6   0  -1   37.50   26.20
   6   0   1   83.79   25.20
   6   0   1   28.10   25.20
  -7   0  -1  235.38   47.10
  -8   0  -1  166.18   42.30
   8   0   1  172.98   40.60
  -9   0  -1  116.39   44.80
   9   0   1  116.09   38.90
 -10   0  -1  101.89   48.40
  10   0   1   74.69   41.40
  10  -1  -1   25.80   37.10
 -10   1   1   24.80   47.90
   9  -1  -1   74.79   36.10
  -9   1   1   26.40   37.00
   8  -1  -1  284.27   45.30
  -8   1   1  333.47   51.29
   7  -1  -1  211.98   44.10
  -7   1   1  248.38   53.39
   6  -1  -1  200.18   31.50
   6  -1  -1  230.58   34.20
  -6   1   1  186.18   26.40
  -6   1   1  208.98   35.20
   5  -1  -1  -23.50   19.30
   5  -1  -1   -0.30   16.30
  -5   1   1  -17.40   19.30
  -5   1   1   12.30   12.90
   4  -1  -1  322.57   38.50
   4  -1  -1  446.06   37.30
  -4   1   1  411.76   35.20
  -4   1   1  410.86   40.60
   3  -1  -1   40.10   13.90
   3  -1  -1   52.39   15.60
  -3   1   1   31.90   11.80
  -3   1   1   43.50   16.50
   1  -1  -1 1079.19   71.59
   1  -1  -1 1130.79   72.29
  -1   1   1 1066.79   71.39
  -1   1   1 1100.99   72.19
   0   1   1  161.28   12.30
  -1  -1  -1  795.52   52.79
  -1  -1  -1  780.62   53.39
   1   1   1  757.52   52.49
   1   1   1  803.72   53.49
  -2  -1  -1 1092.19   74.09
  -2  -1  -1 1059.49   73.69
   2   1   1 1079.29   74.59
   2   1   1 1004.20   73.19
  -3  -1  -1  357.16   34.30
  -3  -1  -1  294.87   32.20
   3   1   1  339.87   34.40
   3   1   1  319.37   33.40
  -4  -1  -1  721.33   56.39
  -4  -1  -1  780.52   59.79
   4   1   1  745.53   58.99
   4   1   1  701.43   58.69
  -5  -1  -1  298.47   37.20
  -5  -1  -1  238.48   30.00
   5   1   1  307.97   35.60
   5   1   1  253.47   34.60
  -6  -1  -1   58.09   27.30
  -6  -1  -1   34.30   17.60
   6   1   1   12.90   24.50
   6   1   1   92.69   27.80
  -7  -1  -1  327.87   58.29
  -8  -1  -1  290.97   49.90
   8   1   1  316.67   47.80
  -9  -1  -1  290.47   55.29
   9   1   1  286.27   52.29
 -10  -1  -1  -12.10   43.40
  10   1   1   60.79   41.90
  10  -2  -1   22.10   35.50
 -10   2   1    7.10   41.70
   9  -2  -1   43.90   35.50
  -9   2   1   27.60   37.70
   8  -2  -1  271.97   43.80
  -8   2   1  233.88   46.10
  -7   2   1  580.54   63.69
   6  -2  -1  132.19   26.20
   6  -2  -1  118.19   27.10
  -6   2   1  109.79   22.50
  -6   2   1  142.59   32.00
   5  -2  -1  421.76   47.10
   5  -2  -1  555.14   46.60
  -5   2   1  543.15   50.09
  -5   2   1  502.45   43.00
   4  -2  -1  -18.90   15.40
   4  -2  -1    1.80   14.10
  -4   2   1   19.80   12.50
  -4   2   1   13.30   17.10
   3  -2  -1  109.39   18.70
   3  -2  -1  121.59   18.20
  -3   2   1  137.89   22.20
  -3   2   1   97.39   16.50
   1  -2  -1  310.17   26.60
   1  -2  -1  348.17   25.80
  -1   2   1  347.47   25.50
  -1   2   1  346.27   27.20
   0  -2  -1  395.96   28.20
   0  -2  -1  365.06   27.50
   0   2   1  368.76   27.60
  -1  -2  -1  605.74   43.10
  -1  -2  -1  608.84   43.70
   1   2   1  573.34   43.60
  -2  -2  -1 4185.68  255.87
   2   2   1 3920.21  253.67
   2   2   1 3655.53  253.77
  -3  -2  -1   -6.20   16.10
  -3  -2  -1   27.50   14.40
   3   2   1   26.90   15.90
   3   2   1   12.30   16.60
  -4  -2  -1  294.27   32.60
  -4  -2  -1  282.37   35.30
   4   2   1  388.26   37.50
   4   2   1  270.27   33.20
  -5  -2  -1  140.79   25.40
  -5  -2  -1  227.18   32.00
   5   2   1  163.48   28.40
   5   2   1  233.38   31.60
  -6  -2  -1  576.64   52.79
  -6  -2  -1  635.64   61.09
   6   2   1  652.53   58.69
   6   2   1  572.44   58.39
  -7  -2  -1   47.50   60.69
   7   2   1   86.89   48.40
  -8  -2  -1  367.06   58.39
   8   2   1  449.56   57.39
  -9  -2  -1   29.00   40.80
   9   2   1   41.00   36.20
 -10  -2  -1  179.58   55.39
  10   2   1   89.69   43.50
  10  -3  -1  -27.60   37.20
 -10   3   1   -0.70   40.70
   9  -3  -1   42.10   34.50
  -9   3   1   19.00   35.60
   8  -3  -1  179.38   37.50
  -8   3   1  256.17   46.20
   7  -3  -1  192.78   34.30
  -7   3   1  203.68   40.00
   6  -3  -1  465.35   53.59
   6  -3  -1  609.94   54.79
  -6   3   1  616.54   57.89
  -6   3   1  673.23   50.99
   5  -3  -1    4.50   17.80
   5  -3  -1    8.90   17.50
  -5   3   1    3.00   13.80
  -5   3   1   15.40   19.60
   4  -3  -1  539.85   43.20
   4  -3  -1  438.06   43.60
  -4   3   1  519.85   40.90
  -4   3   1  456.25   44.80
   3  -3  -1  364.46   36.30
   3  -3  -1  393.26   34.40
  -3   3   1  424.56   32.90
  -3   3   1  352.36   36.50
   2  -3  -1  104.19   16.40
   2  -3  -1  116.59   18.80
  -2   3   1  100.39   14.90
  -2   3   1  125.99   19.60
   1  -3  -1  406.26   33.40
   1  -3  -1  328.47   38.30
  -1   3   1  417.76   31.50
  -1   3   1  463.35   34.10
   0  -3  -1  172.68   17.40
   0  -3  -1  121.99   17.20
   0  -3  -1  149.19   14.30
   0   3   1  125.09   16.20
  -1  -3  -1  762.12   49.80
   1   3   1  474.35   55.69
  -2  -3  -1  607.54   47.20
  -2  -3  -1  592.54   47.90
   2   3   1  599.44   47.60
  -3  -3  -1  244.38   29.70
  -3  -3  -1  276.77   29.30
   3   3   1  246.28   28.20
   3   3   1  295.57   31.00
  -4  -3  -1    3.00   15.80
  -4  -3  -1  -27.40   18.90
   4   3   1  -14.80   17.60
   4   3   1    8.90   18.40
  -5  -3  -1  813.12   70.99
  -5  -3  -1  891.31   66.49
   5   3   1  832.12   69.49
   5   3   1  839.12   68.79
  -6  -3  -1  -27.40   24.30
  -6  -3  -1   19.30   17.80
   6   3   1  -13.50   22.90
   6   3   1   32.80   22.70
  -7  -3  -1  606.24   70.99
   7   3   1  537.65   65.39
  -8  -3  -1  -24.30   34.00
   8   3   1   21.10   32.60
  -9  -3  -1  625.04   76.29
   9   3   1  528.55   67.09
 -10  -3  -1   -1.00   46.70
  10   3   1   17.00   38.10
  10  -4  -1  322.47   55.89
 -10   4   1  176.48   53.49
   9  -4  -1    5.10   32.40
  -9   4   1   66.79   39.20
   8  -4  -1  294.27   46.90
  -8   4   1  394.26   53.59
   7  -4  -1  259.17   39.60
  -7   4   1  253.97   43.10
   6  -4  -1  276.37   36.60
   6  -4  -1  257.47   36.20
  -6   4   1  258.07   36.70
  -6   4   1  235.98   30.60
   5  -4  -1   -3.40   21.50
   5  -4  -1   54.59   20.60
  -5   4   1   35.20   22.00
  -5   4   1   46.40   15.90
   4  -4  -1   89.09   21.00
   4  -4  -1  107.79   23.00
  -4   4   1  108.59   18.10
  -4   4   1  102.79   21.50
   3  -4  -1  202.28   25.60
   3  -4  -1  195.78   24.50
  -3   4   1  182.18   21.50
  -3   4   1  202.08   26.20
   2  -4  -1  226.28   23.50
   2  -4  -1  203.78   24.10
  -2   4   1  219.98   25.90
  -2   4   1  216.58   22.20
   1  -4  -1  464.55   49.90
   1  -4  -1  488.45   35.80
  -1   4   1  440.96   38.70
  -1   4   1  475.55   35.70
   0  -4  -1  180.08   21.40
   0  -4  -1  184.08   18.20
   0   4   1  154.18   23.40
  -1  -4  -1  248.58   26.00
  -1  -4  -1  252.27   27.40
   1   4   1  215.18   24.30
  -2  -4  -1   79.29   18.20
  -2  -4  -1   91.99   18.40
   2   4   1   61.59   18.00
  -3  -4  -1  701.53   54.89
  -3  -4  -1  719.33   56.79
   3   4   1  718.83   55.19
   3   4   1  674.03   55.89
  -4  -4  -1    3.60   15.40
  -4  -4  -1  -37.30   18.60
   4   4   1  -15.10   18.40
   4   4   1   17.80   19.40
  -5  -4  -1  163.58   25.50
  -5  -4  -1  119.59   27.70
   5   4   1  147.19   26.90
   5   4   1  132.39   27.70
  -6  -4  -1  441.46   45.50
  -6  -4  -1  400.26   49.99
   6   4   1  565.94   52.59
   6   4   1  411.76   48.40
  -7  -4  -1  112.19   38.80
   7   4   1   86.89   31.00
  -8  -4  -1  372.26   54.99
   8   4   1  240.88   47.50
  -9  -4  -1   13.20   40.80
   9   4   1   90.69   41.40
 -10  -4  -1  170.08   57.99
  10   4   1   68.39   40.10
  10  -5  -1   42.00   40.00
 -10   5   1  -20.10   37.50
   9  -5  -1  283.07   48.00
  -9   5   1  252.07   48.00
   8  -5  -1  492.75   56.79
  -8   5   1  301.57   51.29
   7  -5  -1   28.20   23.70
  -7   5   1   60.79   27.30
   6  -5  -1    3.00   20.00
   6  -5  -1  -12.80   20.40
  -6   5   1   38.00   23.20
  -6   5   1   22.00   14.10
   5  -5  -1    4.10   26.30
   5  -5  -1    4.40   18.90
  -5   5   1   14.60   13.90
  -5   5   1   45.10   22.20
   4  -5  -1  255.47   32.30
   4  -5  -1  245.88   30.70
  -4   5   1  253.77   28.70
  -4   5   1  300.67   35.20
   3  -5  -1   54.19   16.80
   3  -5  -1   77.79   17.80
  -3   5   1   89.39   15.60
  -3   5   1   66.69   19.40
   2  -5  -1   90.49   17.50
   2  -5  -1   80.69   15.20
  -2   5   1   52.19   13.00
  -2   5   1   93.49   18.50
   1  -5  -1  478.35   36.30
   1  -5  -1  448.96   38.30
  -1   5   1  478.15   35.70
  -1   5   1  455.85   40.10
   0  -5  -1   25.00   12.60
   0  -5  -1   20.20   14.80
   0  -5  -1   35.40   10.60
   0   5   1   27.00   13.90
  -1  -5  -1  674.53   50.99
  -1  -5  -1  637.94   49.90
   1   5   1  671.83   50.69
  -2  -5  -1   43.40   17.00
  -2  -5  -1   46.40   15.90
   2   5   1   39.20   16.60
  -3  -5  -1  196.98   25.50
  -3  -5  -1  151.58   26.70
   3   5   1  176.18   26.70
  -4  -5  -1   55.49   20.30
  -4  -5  -1   40.10   22.10
   4   5   1   59.79   22.70
  -5  -5  -1  123.69   30.20
  -5  -5  -1  111.19   26.90
   5   5   1   82.39   26.80
   5   5   1  177.78   34.80
  -6  -5  -1  293.67   44.50
  -6  -5  -1  298.77   36.70
   6   5   1  203.88   36.90
   6   5   1  246.78   38.80
  -7  -5  -1  359.06   51.19
   7   5   1  306.67   47.40
  -8  -5  -1  122.19   42.90
   8   5   1   62.59   37.20
  -9  -5  -1  312.87   59.89
   9   5   1  203.68   50.89
 -10  -5  -1  -16.30   48.40
  10   5   1    4.10   39.50
  10  -6  -1  338.27   58.09
 -10   6   1  421.06   67.19
   9  -6  -1   49.30   35.00
  -9   6   1   18.80   38.20
   8  -6  -1  298.97   45.00
  -8   6   1  307.97   48.30
   7  -6  -1   32.70   26.60
  -7   6   1   50.59   29.10
   6  -6  -1   -7.80   26.30
  -6   6   1  -21.10   21.20
   5  -6  -1  938.11   75.49
   5  -6  -1 1018.10   73.99
  -5   6   1  928.21   69.69
  -5   6   1  896.51   76.89
   4  -6  -1  382.96   40.10
   4  -6  -1  377.06   40.70
  -4   6   1  441.06   45.00
  -4   6   1  400.16   35.80
   3  -6  -1  217.48   27.20
   3  -6  -1  174.08   25.80
  -3   6   1  146.29   21.70
  -3   6   1  178.28   27.40
   2  -6  -1   32.80   13.80
   2  -6  -1   36.80   15.50
  -2   6   1   55.69   16.90
  -2   6   1   54.99   12.60
   1  -6  -1  860.11   67.69
   1  -6  -1  956.60   65.89
  -1   6   1  973.90   69.29
  -1   6   1  978.50   65.39
   0  -6  -1   10.30   12.40
   0  -6  -1    2.20   16.10
   0  -6  -1   -3.60   11.30
   0   6   1    5.40   13.90
  -1  -6  -1  142.59   21.60
  -1  -6  -1  170.88   23.50
   1   6   1  171.58   23.00
  -2  -6  -1   22.20   16.30
   2   6   1   11.40   15.30
  -3  -6  -1  816.12   66.79
  -3  -6  -1  810.82   63.99
   3   6   1  824.22   64.19
  -4  -6  -1   14.00   18.90
  -4  -6  -1   21.00   22.00
   4   6   1   60.19   22.70
  -5  -6  -1  723.03   65.39
  -5  -6  -1  863.41   70.99
   5   6   1  815.52   68.49
  -6  -6  -1  160.38   30.10
  -6  -6  -1  193.48   38.90
   6   6   1  169.18   35.90
   6   6   1  165.68   39.10
  -7  -6  -1  188.28   44.40
   7   6   1  203.58   42.60
  -8  -6  -1  200.08   50.29
   8   6   1  190.58   43.90
  -9  -6  -1   19.50   45.10
   9   6   1   -3.30   35.50
 -10  -6  -1   53.29   49.50
  10  -7  -1   15.80   37.10
 -10   7   1   63.19   39.30
   9  -7  -1   66.69   36.00
  -9   7   1  105.89   39.10
   8  -7  -1   54.99   31.20
  -8   7   1   26.20   34.00
   7  -7  -1  -30.00   26.30
  -7   7   1   -1.50   29.40
   6  -7  -1  407.06   47.60
  -6   7   1  406.76   52.89
   5  -7  -1   -5.50   19.50
   5  -7  -1    3.80   19.60
  -5   7   1   -3.20   21.10
  -5   7   1    9.80   13.40
   4  -7  -1  131.19   26.30
   4  -7  -1  180.98   29.30
  -4   7   1  160.88   29.80
  -4   7   1  200.88   31.60
   3  -7  -1  328.07   33.70
   3  -7  -1  336.97   35.80
  -3   7   1  253.87   29.40
  -3   7   1  319.17   37.30
   2  -7  -1  130.09   23.80
   2  -7  -1  188.78   23.70
  -2   7   1  167.18   26.60
  -2   7   1  178.78   21.30
   1  -7  -1    4.90   13.40
   1  -7  -1    9.30   11.70
  -1   7   1   25.60   16.50
  -1   7   1   -1.40   10.60
   0  -7  -1   63.89   16.10
   0  -7  -1   47.90   18.00
   0  -7  -1   80.79   14.30
   0   7   1   45.20   17.20
  -1  -7  -1    4.20   14.20
  -1  -7  -1   53.09   17.30
  -2  -7  -1 1237.98   86.29
  -2  -7  -1 1182.38   86.39
   2   7   1 1145.69   85.59
  -3  -7  -1  382.06   41.10
  -3  -7  -1  353.76   38.60
   3   7   1  390.06   41.30
  -4  -7  -1  520.55   50.79
  -4  -7  -1  598.44   56.19
   4   7   1  549.15   53.19
  -5  -7  -1   51.69   30.40
  -5  -7  -1   73.19   22.80
   5   7   1   48.90   26.00
  -6  -7  -1  221.48   66.09
   6   7   1  178.48   37.20
  -7  -7  -1   65.79   39.40
   7   7   1   46.60   34.10
  -8  -7  -1   21.40   40.50
   8   7   1    2.70   35.50
  -9  -7  -1   10.40   43.40
   9   7   1  -14.00   36.50
  10  -8  -1  223.48   51.89
 -10   8   1  152.48   50.19
   9  -8  -1   36.70   38.00
  -9   8   1   94.29   38.40
   8  -8  -1   98.09   35.80
  -8   8   1  159.18   40.00
   7  -8  -1  840.92   73.59
  -7   8   1  772.52   75.29
   6  -8  -1   62.99   27.40
  -6   8   1   10.50   24.20
   5  -8  -1  713.73   60.39
   5  -8  -1  610.54   59.89
  -5   8   1  689.73   63.09
  -5   8   1  702.43   55.29
   4  -8  -1  199.98   30.50
   4  -8  -1  181.38   29.50
  -4   8   1  231.38   26.90
  -4   8   1  186.98   31.60
   3  -8  -1  356.76   39.10
   3  -8  -1  367.16   37.50
  -3   8   1  268.07   31.70
  -3   8   1  387.16   40.60
   2  -8  -1   -8.90   15.50
   2  -8  -1   -2.90   14.20
  -2   8   1    0.00   17.90
  -2   8   1   18.40   11.70
   1  -8  -1  447.46   44.40
   1  -8  -1  495.75   41.70
  -1   8   1  500.35   47.10
  -1   8   1  525.85   39.50
   0  -8  -1  412.76   35.80
   0  -8  -1  394.86   41.20
   0  -8  -1  427.66   41.10
   0   8   1  381.56   41.60
  -1  -8  -1  173.78   27.50
  -1  -8  -1  189.88   27.00
  -2  -8  -1   81.49   22.30
  -2  -8  -1   51.39   18.10
   2   8   1   27.60   21.30
  -3  -8  -1  907.61   76.59
  -3  -8  -1 1089.59   80.39
   3   8   1 1009.60   76.99
  -4  -8  -1   59.29   30.70
  -4  -8  -1   71.29   29.30
   4   8   1   52.09   25.20
  -5  -8  -1  561.44   61.59
  -5  -8  -1  485.75   52.69
   5   8   1  628.84   58.09
  -6  -8  -1   69.89   36.70
   6   8   1   97.49   40.30
  -7  -8  -1   44.60   40.30
   7   8   1   43.40   34.90
  -8  -8  -1   67.69   46.60
   8   8   1  -22.40   34.70
  -9  -8  -1  -27.20   45.40
   9   8   1  -10.70   36.10
   9  -9  -1   95.69   35.50
  -9   9   1   37.70   35.80
   8  -9  -1  198.48   42.50
  -8   9   1  185.08   43.30
   7  -9  -1   55.69   31.40
  -7   9   1   50.09   31.90
   6  -9  -1  123.99   30.40
  -6   9   1  153.18   35.10
   4  -9  -1    8.50   17.60
   4  -9  -1   14.90   19.30
  -4   9   1    7.50   13.30
  -4   9   1   28.10   22.20
   3  -9  -1  729.63   59.09
  -3   9   1  733.23   65.29
  -3   9   1  714.43   62.89
   2  -9  -1  118.29   23.70
   2  -9  -1  118.59   22.80
  -2   9   1  113.29   20.80
  -2   9   1  125.59   28.20
   1  -9  -1  245.68   32.60
   1  -9  -1  313.87   29.90
  -1   9   1  263.97   34.30
   0  -9  -1   25.70   16.60
   0  -9  -1  -29.50   17.40
   0  -9  -1   -3.30   13.50
   0   9   1  -18.60   17.70
  -1  -9  -1  379.16   42.40
  -1  -9  -1  432.26   42.30
  -1  -9  -1  423.26   35.60
  -2  -9  -1  219.58   34.30
  -2  -9  -1  169.58   28.50
   2   9   1  263.97   33.30
  -3  -9  -1   71.69   27.40
  -3  -9  -1   28.10   20.70
  -3  -9  -1   69.39   23.90
   3   9   1  120.09   25.20
  -4  -9  -1   35.20   24.50
  -4  -9  -1    6.30   28.60
   4   9   1   27.10   27.40
  -5  -9  -1   69.59   32.10
  -5  -9  -1   64.29   25.60
   5   9   1   60.19   28.80
  -6  -9  -1   23.60   34.70
   6   9   1   13.60   31.70
  -7  -9  -1   21.80   37.60
   7   9   1   20.10   34.80
  -8  -9  -1   41.40   44.00
   8   9   1  -17.20   37.10
  -9  -9  -1   85.79   51.39
   9   9   1  -58.89   38.00
   9 -10  -1   49.80   38.00
  -9  10   1   60.79   38.70
   8 -10  -1   62.59   34.30
  -8  10   1   95.59   37.70
   7 -10  -1  556.54   61.99
  -7  10   1  500.85   62.49
   6 -10  -1  114.19   31.00
  -6  10   1   92.89   34.20
   5 -10  -1    4.00   23.70
  -5  10   1   56.79   29.10
   4 -10  -1  899.21   72.59
   4 -10  -1  889.51   76.89
  -4  10   1  968.00   73.19
  -4  10   1  914.41   76.99
   3 -10  -1   99.49   24.00
   3 -10  -1   87.89   22.90
  -3  10   1   56.09   17.30
  -3  10   1   86.19   27.30
   2 -10  -1 1111.39   80.99
  -2  10   1 1113.49   86.19
   1 -10  -1  103.39   23.40
   1 -10  -1   82.09   20.00
  -1  10   1   75.09   25.10
   0 -10  -1 1031.70   73.79
   0 -10  -1  994.60   78.79
   0 -10  -1 1024.30   78.59
   0  10   1 1066.69   81.39
  -1 -10  -1  305.37   37.00
  -1 -10  -1  364.96   33.30
  -1 -10  -1  274.07   37.70
  -2 -10  -1  415.86   52.39
  -2 -10  -1  531.35   49.90
  -3 -10  -1  162.88   32.90
  -3 -10  -1   79.59   28.00
  -3 -10  -1  151.18   27.50
   3  10   1   85.29   28.40
  -4 -10  -1   -9.90   22.30
  -4 -10  -1  -30.30   28.60
  -4 -10  -1    6.10   24.00
   4  10   1   17.10   24.40
  -5 -10  -1  244.28   44.10
   5  10   1  243.78   49.50
  -6 -10  -1   14.30   35.50
   6  10   1  -17.10   31.10
  -7 -10  -1  -36.30   38.70
   7  10   1   16.50   33.30
  -8 -10  -1   55.79   46.50
   8  10   1   62.69   40.30
   9 -11  -1   42.70   36.50
  -9  11   1   50.89   38.90
   8 -11  -1  122.79   39.30
  -8  11   1  131.69   40.60
   7 -11  -1  -18.80   30.10
  -7  11   1   60.99   33.30
   6 -11  -1  385.06   50.89
  -6  11   1  350.36   51.89
   5 -11  -1  146.29   33.30
  -5  11   1  195.48   38.10
   4 -11  -1   54.79   24.70
  -4  11   1  102.49   30.90
   3 -11  -1 1012.00   83.19
   3 -11  -1 1136.19   81.29
  -3  11   1 1038.70   85.99
  -3  11   1 1067.89   77.79
   2 -11  -1  129.89   25.60
   2 -11  -1  128.19   24.60
  -2  11   1  160.88   30.80
  -2  11   1  129.99   19.90
   1 -11  -1  853.81   66.29
   1 -11  -1  868.21   71.39
  -1  11   1  932.21   74.19
   0 -11  -1  141.49   27.90
   0 -11  -1  128.69   22.60
   0 -11  -1   82.39   43.20
   0  11   1  168.98   30.40
  -1 -11  -1  685.93   65.69
  -1 -11  -1  888.71   61.29
  -2 -11  -1  282.67   37.20
  -2 -11  -1  260.37   37.60
  -3 -11  -1  166.78   31.70
  -3 -11  -1  166.58   39.60
  -3 -11  -1  158.18   30.40
   3  11   1  240.08   33.40
  -4 -11  -1   31.40   28.10
  -4 -11  -1  103.79   53.09
   4  11   1   68.99   29.30
  -5 -11  -1   63.39   36.10
   5  11   1   59.49   33.10
  -6 -11  -1   68.69   41.70
   6  11   1   78.59   33.80
  -7 -11  -1   43.40   43.30
   7  11   1    5.00   36.10
  -8 -11  -1   48.80   49.20
   8  11   1   -2.20   37.20
   8 -12  -1   21.30   35.80
  -8  12   1   36.30   35.70
   7 -12  -1   11.80   31.00
  -7  12   1  -11.90   30.20
   6 -12  -1  222.98   42.20
  -6  12   1  240.78   45.30
   5 -12  -1  -31.20   23.90
  -5  12   1    8.80   28.10
   4 -12  -1  192.88   33.00
  -4  12   1  192.38   39.80
   3 -12  -1   83.99   41.20
  -3  12   1  112.29   39.50
   2 -12  -1 2192.48  143.29
   2 -12  -1 1894.21  147.79
  -2  12   1 2252.77  149.79
  -2  12   1 1975.80  140.19
   1 -12  -1   68.29   24.40
   1 -12  -1   77.19   26.00
   1 -12  -1   93.19   21.40
  -1  12   1   76.69   27.00
   0 -12  -1  381.46   45.60
   0 -12  -1  376.96   43.20
   0 -12  -1  373.46   39.10
   0  12   1  429.96   48.30
  -1 -12  -1  763.82   69.39
  -1 -12  -1  832.92   69.29
  -1 -12  -1  791.52   61.89
  -2 -12  -1  308.77   33.40
  -2 -12  -1  214.38   37.30
  -2 -12  -1  319.27   41.30
  -3 -12  -1   19.70   25.90
  -3 -12  -1  -24.20   56.89
  -4 -12  -1  -44.30   32.40
   4  12   1  -32.50   34.50
  -5 -12  -1   54.69   37.90
   5  12   1   10.80   30.10
  -6 -12  -1   33.00   43.10
   6  12   1   10.70   34.80
  -7 -12  -1   34.00   43.10
   7  12   1   10.20   38.80
   8 -13  -1   42.00   34.60
  -8  13   1   24.30   35.30
   7 -13  -1   16.40   30.00
  -7  13   1   30.70   34.60
   6 -13  -1   24.90   29.30
  -6  13   1   25.70   33.00
   5 -13  -1  716.43   68.69
  -5  13   1  775.82   76.19
   4 -13  -1  132.59   30.30
  -4  13   1   62.19   31.90
   3 -13  -1  324.27   43.30
  -3  13   1  409.86   50.79
   2 -13  -1  211.78   39.20
  -2  13   1   82.59   32.40
   1 -13  -1  851.81   67.49
   0 -13  -1  368.76   44.50
   0 -13  -1  309.27   37.40
   0  13   1  340.47   50.39
  -1 -13  -1  184.68   27.60
  -1 -13  -1  150.48   33.00
  -2 -13  -1   58.09   23.00
  -3 -13  -1  228.58   46.90
  -4 -13  -1  166.98   44.90
   4  13   1  136.09   35.40
  -5 -13  -1   79.39   43.90
   5  13   1   33.20   34.70
  -6 -13  -1    4.10   44.10
   6  13   1   -6.50   36.10
  -7 -13  -1  -22.30   45.50
   7  13   1  -44.70   35.00
   7 -14  -1   52.09   33.70
  -7  14   1   12.30   36.60
   6 -14  -1  227.38   43.90
  -6  14   1  202.98   46.70
   5 -14  -1   97.39   33.60
  -5  14   1   87.39   35.70
   4 -14  -1  482.05   52.99
  -4  14   1  476.85   59.99
   3 -14  -1  191.98   34.90
  -3  14   1  193.48   40.30
   2 -14  -1  468.65   48.50
  -2  14   1  469.85   57.59
   1 -14  -1  434.06   45.50
  -1  14   1  436.36   53.69
   0 -14  -1   86.19   24.80
  -1 -14  -1  277.37   34.80
  -2 -14  -1   93.19   24.90
  -3 -14  -1  265.57   34.30
  -3 -14  -1  291.37   50.39
  -4 -14  -1  176.18   46.50
  -5 -14  -1   34.40   44.80
   5  14   1   28.90   33.20
  -6 -14  -1   38.40   49.50
   6  14   1   53.29   36.80
   7 -15  -1  128.19   41.00
  -7  15   1   51.59   41.00
   6 -15  -1   91.19   36.50
  -6  15   1  102.19   41.60
   5 -15  -1  189.58   40.70
  -5  15   1  268.07   49.20
   4 -15  -1   27.70   27.00
  -4  15   1  -21.40   31.00
   3 -15  -1   28.80   25.10
  -3  15   1   28.40   32.60
   2 -15  -1   61.49   24.40
  -2  15   1    0.60   30.60
   1 -15  -1   32.90   22.50
  -1  15   1   20.10   31.10
   0 -15  -1  340.77   40.20
  -1 -15  -1   71.49   23.30
  -2 -15  -1  127.79   28.30
  -3 -15  -1  192.18   32.10
  -3 -15  -1  171.98   48.20
  -4 -15  -1  149.69   49.30
  -5 -15  -1  181.98   55.79
   6 -16  -1   39.00   34.30
  -6  16   1  -17.30   36.10
   5 -16  -1  105.29   35.30
  -5  16   1  123.19   42.10
   4 -16  -1  127.49   33.60
  -4  16   1  120.39   40.10
   3 -16  -1   32.90   27.80
  -3  16   1   29.70   33.00
   2 -16  -1   45.30   26.30
  -2  16   1  113.79   37.50
   1 -16  -1  102.19   28.40
  -1  16   1   21.70   33.50
   0 -16  -1   21.80   23.00
  -1 -16  -1  190.48   32.70
  -2 -16  -1  151.08   30.40
  -3 -16  -1  151.68   32.20
  -3 -16  -1  188.28   48.30
  -4 -16  -1  240.28   57.79
  -4 -16  -1  226.48   36.10
   5 -17  -1   -8.50   30.30
  -5  17   1  -33.30   36.00
   4 -17  -1   -4.50   27.00
  -4  17   1   26.20   37.90
   3 -17  -1   -9.00   26.50
  -3  17   1   39.80   35.80
   2 -17  -1  -23.70   22.20
  -2  17   1  -21.50   31.20
   1 -17  -1   29.90   25.00
  -1  17   1  -41.80   30.90
   0 -17  -1  -16.10   20.30
  -1 -17  -1  126.89   30.00
  -2 -17  -1  -34.10   22.80
  -3 -17  -1  202.58   36.10
  -3 -17  -1  188.78   53.09
   3 -18  -1   20.20   28.20
  -3  18   1  -67.49   32.20
   2 -18  -1  -11.30   25.90
  -2  18   1   27.30   34.70
   1 -18  -1   -7.80   22.20
   0 -18  -1   90.39   29.10
  -1 -18  -1   -7.50   24.30
  -1 -19   2  -20.40   22.20
   0 -19   2   -9.60   23.30
   1 -19   2  123.49   29.20
  -2  19  -2  -80.89   34.70
   2 -19   2   16.10   24.20
  -3  19  -2  408.26   64.99
   3 -19   2  442.36   54.49
  -3 -18   2   26.20   22.10
  -2 -18   2  -25.80   21.60
  -1 -18   2   26.20   21.60
   0 -18   2   85.49   24.90
  -1  18  -2   53.69   40.20
   1 -18   2   75.99   27.80
  -2  18  -2  178.78   45.50
   2 -18   2  154.98   33.20
  -3  18  -2   -6.00   35.60
   3 -18   2   33.50   25.90
  -4  18  -2  503.65   66.99
   4 -18   2  427.96   54.29
  -5  18  -2   89.89   39.30
   5 -18   2   23.70   29.30
  -4 -17   2   19.20   24.00
  -4 -17   2   70.69   49.00
  -3 -17   2    1.10   19.90
  -2 -17   2   97.09   25.80
  -1 -17   2   17.10   23.70
   0 -17   2  232.98   33.90
  -1  17  -2  105.89   40.30
   1 -17   2  206.88   32.40
  -2  17  -2   49.80   36.70
   2 -17   2   22.00   24.90
  -3  17  -2  209.48   48.70
   3 -17   2  291.07   40.00
  -4  17  -2   77.39   39.40
   4 -17   2   25.50   27.70
  -5  17  -2  203.38   47.60
   5 -17   2  225.58   41.30
  -6  17  -2   96.99   43.50
   6 -17   2   76.99   37.00
  -5 -16   2  -35.40   45.10
  -4 -16   2  -17.50   19.80
  -4 -16   2   -4.60   42.10
  -3 -16   2  160.68   32.90
  -2 -16   2   58.69   29.70
  -2 -16   2   96.19   22.30
  -1 -16   2  168.88   25.70
  -1 -16   2  103.79   33.00
   0 -16   2   23.70   19.90
   0 -16   2   54.99   28.20
  -1  16  -2   44.90   33.90
   1 -16   2   79.99   26.40
  -2  16  -2   77.69   35.90
   2 -16   2   93.79   26.00
  -3  16  -2  -11.90   32.70
   3 -16   2    2.20   22.00
  -4  16  -2   91.29   36.70
   4 -16   2   66.09   29.00
  -5  16  -2   50.79   34.90
   5 -16   2   18.60   27.10
  -6  16  -2   85.19   37.70
   6 -16   2  103.59   34.70
  -7  16  -2  -18.10   37.20
   7 -16   2   18.20   34.10
   6  15  -2   -1.10   33.30
  -6 -15   2  -30.70   43.70
  -5 -15   2   -1.60   41.20
  -4 -15   2  214.68   50.29
  -3 -15   2   85.69   29.50
  -3 -15   2   80.99   23.10
  -2 -15   2  213.58   28.00
  -2 -15   2  167.28   34.00
  -1 -15   2   48.40   27.00
  -1 -15   2   48.80   20.00
   0 -15   2  102.79   32.10
   0 -15   2  195.38   26.70
  -1  15  -2   73.79   34.40
   1 -15   2   82.09   28.50
   1 -15   2   96.29   23.00
  -2  15  -2   68.39   33.50
   2 -15   2   72.79   24.30
  -3  15  -2   27.60   33.00
   3 -15   2   20.10   23.70
  -4  15  -2    2.60   29.00
   4 -15   2  -13.50   25.30
  -5  15  -2   59.29   35.00
   5 -15   2   48.90   28.70
  -6  15  -2   84.69   37.80
   6 -15   2   54.09   31.00
  -7  15  -2   29.40   32.90
   7 -15   2   23.40   32.10
   7  14  -2    4.60   35.40
  -7 -14   2  -41.70   44.40
   6  14  -2   52.19   34.00
  -6 -14   2  -20.00   41.60
   5  14  -2   70.09   45.70
  -5 -14   2   80.89   44.00
  -4 -14   2   27.80   25.10
  -4 -14   2  111.99   42.60
  -3 -14   2  233.98   36.40
  -3 -14   2  248.08   29.50
  -2 -14   2  127.99   22.70
  -1 -14   2   99.09   32.80
  -1 -14   2   71.89   19.00
   0  14  -2  106.69   34.10
   0 -14   2   80.19   19.20
   0 -14   2   41.50   38.30
  -1  14  -2   18.40   28.00
   1 -14   2   60.09   23.40
   1 -14   2   -7.80   17.70
  -2  14  -2   71.59   32.10
  -2  14  -2   70.79   16.90
   2 -14   2   85.29   24.20
  -3  14  -2   65.19   31.20
   3 -14   2   52.19   24.20
  -4  14  -2   57.09   28.90
   4 -14   2   15.40   23.80
  -5  14  -2   41.40   30.30
   5 -14   2   30.50   27.10
  -6  14  -2   83.39   34.50
   6 -14   2   43.00   28.50
  -7  14  -2  -11.40   33.60
   7 -14   2   55.79   31.70
  -8  14  -2   18.30   36.30
   8 -14   2   32.20   39.00
   7  13  -2  143.49   41.50
  -7 -13   2   71.39   48.10
   6  13  -2  -17.70   29.70
  -6 -13   2   50.89   41.80
   5  13  -2   67.69   30.80
  -5 -13   2   82.89   29.00
  -5 -13   2   84.09   41.50
   4  13  -2  123.09   29.10
  -4 -13   2   30.30   39.30
  -4 -13   2  107.79   28.10
  -3 -13   2  282.97   39.70
  -2 -13   2  132.49   20.40
  -2 -13   2  136.59   27.30
  -1 -13   2    5.70   13.20
  -1 -13   2   25.50   21.40
   0  13  -2  -16.00   36.60
   0 -13   2   18.70   20.60
   0 -13   2   47.90   15.90
   1 -13   2   59.99   17.20
  -2  13  -2  102.79   29.80
  -2  13  -2   90.49   18.70
   2 -13   2  121.59   23.70
  -3  13  -2  113.39   21.40
  -3  13  -2  163.88   34.20
   3 -13   2  166.58   28.70
  -4  13  -2   -9.10   25.10
   4 -13   2   18.40   35.90
  -5  13  -2   95.19   33.10
   5 -13   2  167.68   33.90
  -6  13  -2  192.78   41.40
   6 -13   2  195.78   36.80
  -7  13  -2   65.99   34.60
   7 -13   2   27.60   32.90
  -8  13  -2   54.39   36.10
   8 -13   2   14.60   33.00
   8  12  -2  152.68   45.50
  -8 -12   2  301.97   63.59
   7  12  -2  -20.60   32.80
  -7 -12   2    8.10   42.90
  -6 -12   2  355.16   58.29
   5  12  -2  117.49   31.60
  -5 -12   2  166.68   47.60
  -5 -12   2  110.19   27.60
   4  12  -2  211.38   32.90
  -4 -12   2  176.08   43.70
  -4 -12   2  191.48   43.30
  -3 -12   2   65.69   23.20
  -2 -12   2  177.38   28.20
  -2 -12   2  107.49   37.70
  -2 -12   2  224.38   23.50
  -1 -12   2   44.70   20.90
  -1 -12   2   63.69   15.20
  -1 -12   2   27.90   21.80
   0  12  -2   92.39   27.20
   0 -12   2   77.09   21.30
   0 -12   2  109.19   17.60
   0 -12   2  102.29   24.60
  -1  12  -2  151.98   33.50
   1 -12   2  183.08   30.70
   1 -12   2  216.38   25.20
  -2  12  -2  268.77   39.80
  -2  12  -2  307.37   29.60
   2 -12   2  330.37   33.50
   2 -12   2  237.58   36.20
  -3  12  -2   89.49   17.70
   3 -12   2  118.99   24.80
  -4  12  -2   70.39   29.00
  -4  12  -2   29.40   16.40
   4 -12   2   56.29   24.00
  -5  12  -2   30.00   26.40
   5 -12   2   19.10   22.80
  -6  12  -2   11.80   28.00
   6 -12   2   33.50   27.20
  -7  12  -2  104.59   35.90
   7 -12   2   68.09   33.30
  -8  12  -2    5.70   34.90
   8 -12   2   25.30   31.70
  -9  12  -2   47.10   36.60
   9 -12   2  121.09   42.80
   8  11  -2   19.10   37.10
  -8 -11   2  -19.70   45.10
   7  11  -2  355.26   53.19
  -7 -11   2  388.86   62.09
   6  11  -2    6.00   29.00
  -6 -11   2   50.69   36.90
   5  11  -2  130.49   31.30
  -5 -11   2   92.89   25.80
  -5 -11   2  149.09   40.90
   4  11  -2   20.70   21.90
  -4 -11   2   29.20   19.90
  -4 -11   2  104.49   34.20
   3  11  -2  234.58   31.40
  -3 -11   2  261.87   41.30
  -3 -11   2  252.47   30.50
  -3 -11   2  229.48   34.80
  -2 -11   2  140.49   23.60
  -2 -11   2   94.99   24.70
  -1 -11   2   14.20   17.90
  -1 -11   2    4.60   19.10
  -1 -11   2   24.00   12.10
   0  11  -2   -7.40   19.90
   0 -11   2   28.30   19.30
   0 -11   2   15.10   12.10
   0 -11   2   -8.30   16.00
  -1  11  -2   37.00   12.70
  -1  11  -2   85.59   24.70
   1 -11   2   42.60   20.60
   1 -11   2   79.19   16.10
  -2  11  -2   77.59   25.60
  -2  11  -2  103.09   17.00
   2 -11   2   83.99   22.70
   2 -11   2  101.99   19.90
  -3  11  -2  280.07   38.30
  -3  11  -2  247.78   29.80
   3 -11   2  210.08   33.00
   3 -11   2  253.17   32.20
  -4  11  -2   19.90   13.80
   4 -11   2   25.00   19.80
  -5  11  -2   34.10   27.30
   5 -11   2   11.80   32.60
  -6  11  -2  165.88   37.40
   6 -11   2  169.98   34.80
  -7  11  -2  219.68   44.50
   7 -11   2  254.47   43.60
  -8  11  -2  295.27   51.69
   8 -11   2  210.28   46.40
  -9  11  -2   80.19   39.30
   9 -11   2   71.89   41.10
   9  10  -2  -28.40   36.40
  -9 -10   2  -37.50   48.70
   8  10  -2  217.38   48.20
  -8 -10   2  310.57   59.49
   7  10  -2  131.99   37.20
  -7 -10   2   30.20   40.90
   6  10  -2  570.04   56.29
  -6 -10   2  443.26   61.09
  -6 -10   2  430.96   48.90
   5  10  -2   12.30   23.40
  -5 -10   2   34.70   29.60
  -5 -10   2    1.70   32.10
   4  10  -2   29.50   22.50
  -4 -10   2   51.89   29.00
  -4 -10   2   51.89   21.00
   3  10  -2   38.70   19.00
  -3 -10   2    2.60   18.30
  -3 -10   2   50.69   26.50
  -3 -10   2   15.00   16.80
  -2 -10   2   45.90   21.90
  -2 -10   2   14.50   17.20
  -1 -10   2  671.43   58.79
  -1 -10   2  695.43   54.89
  -1 -10   2  700.03   50.09
   0  10  -2   -1.10   20.60
   0 -10   2  -16.10   12.00
   0 -10   2   -6.80   19.20
   0 -10   2  -17.10   16.70
  -1  10  -2  409.56   47.40
  -1  10  -2  425.96   35.90
   1 -10   2  492.75   38.40
   1 -10   2  466.85   44.60
  -2  10  -2   40.30   21.30
  -2  10  -2   12.20   12.00
   2 -10   2   20.70   15.80
  -3  10  -2   80.49   16.00
  -3  10  -2   74.99   25.50
   3 -10   2  100.59   21.10
   3 -10   2   59.09   21.30
  -4  10  -2   82.19   16.60
  -4  10  -2   72.89   27.40
   4 -10   2   28.80   21.40
   4 -10   2   89.09   22.50
  -5  10  -2  136.49   24.40
  -5  10  -2  172.28   33.20
   5 -10   2   93.69   27.30
  -6  10  -2   17.70   28.10
   6 -10   2   31.90   26.20
  -7  10  -2  217.58   42.00
   7 -10   2  163.48   38.60
  -8  10  -2  258.87   49.10
   8 -10   2  206.68   43.80
  -9  10  -2  360.96   58.29
   9 -10   2  377.56   58.79
   9   9  -2  125.29   47.10
  -9  -9   2  164.98   55.59
   8   9  -2   41.10   35.20
  -8  -9   2   57.79   42.90
   7   9  -2  141.99   38.90
  -7  -9   2  145.39   45.10
   6   9  -2  176.78   34.80
  -6  -9   2  106.39   38.30
  -6  -9   2  138.79   27.30
   5   9  -2   94.49   28.40
  -5  -9   2  100.79   46.50
  -5  -9   2  119.29   24.30
   4   9  -2  148.39   25.00
  -4  -9   2   91.49   20.90
  -4  -9   2   87.99   29.00
   3   9  -2  154.28   23.30
  -3  -9   2  130.59   21.30
  -3  -9   2  131.49   29.80
   2   9  -2  395.46   35.10
  -2  -9   2  385.56   39.30
  -2  -9   2  311.97   34.80
  -1  -9   2  445.86   39.60
  -1  -9   2  478.75   43.90
  -1  -9   2  393.36   34.00
   0   9  -2  270.27   35.00
   0  -9   2  260.77   25.90
   0  -9   2  310.77   36.60
   0  -9   2  330.17   30.90
  -1   9  -2   57.79   21.70
  -1   9  -2   31.00   13.90
   1  -9   2   83.19   15.20
   1  -9   2   50.89   20.10
  -2   9  -2  588.44   44.40
  -2   9  -2  571.54   52.89
   2  -9   2  581.64   46.30
   2  -9   2  548.55   50.69
  -3   9  -2  169.08   31.30
  -3   9  -2  189.98   23.10
   3  -9   2  193.28   26.40
   3  -9   2  262.27   39.90
  -4   9  -2  212.78   29.70
  -4   9  -2  235.18   33.80
   4  -9   2  198.18   29.70
   4  -9   2  183.38   28.70
  -5   9  -2  276.17   32.40
  -5   9  -2  306.07   42.20
   5  -9   2  320.47   39.50
  -6   9  -2  244.08   40.10
   6  -9   2  296.37   41.70
  -7   9  -2  116.39   35.40
   7  -9   2   77.19   33.90
  -8   9  -2   48.60   33.10
   8  -9   2  169.28   41.60
  -9   9  -2    0.60   33.70
   9  -9   2    4.40   35.40
 -10   9  -2   51.79   39.90
  10  -9   2   73.69   43.20
   9   8  -2    3.00   36.90
  -9  -8   2  -23.80   45.40
   8   8  -2  217.18   44.00
  -8  -8   2  235.68   53.39
  -7  -8   2   24.10   37.60
   6   8  -2   74.89   28.20
  -6  -8   2   85.49   24.00
  -6  -8   2  103.39   37.60
   5   8  -2  701.63   59.89
  -5  -8   2  762.92   68.99
  -5  -8   2  626.44   56.79
   4   8  -2   36.10   21.30
  -4  -8   2    5.60   17.00
  -4  -8   2   19.00   25.50
   3   8  -2   51.49   17.40
  -3  -8   2   26.00   14.60
  -3  -8   2    3.30   22.10
   2   8  -2   88.59   18.30
  -2  -8   2   93.29   21.80
  -2  -8   2   93.79   17.90
  -1  -8   2 1174.28   81.49
  -1  -8   2 1076.49   73.09
  -1  -8   2 1038.50   77.29
   0   8  -2  410.96   40.60
   0  -8   2  404.66   30.70
   0  -8   2  329.97   38.30
  -1   8  -2   -8.70   16.70
  -1   8  -2   25.00   10.40
   1  -8   2   22.50   17.40
   1  -8   2   -3.00   10.90
  -2   8  -2 1520.85   97.09
  -2   8  -2 1321.57  102.79
   2  -8   2 1452.75  102.49
   2  -8   2 1426.06   98.29
  -3   8  -2  226.88   32.30
  -3   8  -2  205.08   23.30
   3  -8   2  194.48   29.90
   3  -8   2  242.58   27.60
  -4   8  -2  283.77   37.50
  -4   8  -2  260.17   29.50
   4  -8   2  336.97   34.80
   4  -8   2  266.97   40.70
  -5   8  -2  122.39   21.30
  -5   8  -2  152.68   30.30
   5  -8   2  155.08   27.70
   5  -8   2  132.29   28.10
  -6   8  -2  421.76   50.29
   6  -8   2  386.56   65.49
  -7   8  -2  253.57   43.50
   7  -8   2  226.78   41.50
  -8   8  -2   28.30   31.10
   8  -8   2   42.40   30.30
  -9   8  -2   23.40   32.30
   9  -8   2  -18.60   32.20
 -10   8  -2   60.19   37.90
  10  -8   2   11.70   38.70
 -10  -7   2   20.50   49.30
   9   7  -2    4.40   35.90
  -9  -7   2    4.50   44.20
   8   7  -2   32.10   34.60
  -8  -7   2  -44.60   37.80
   7   7  -2  145.69   36.10
  -7  -7   2  116.89   39.50
   6   7  -2  501.65   49.40
  -6  -7   2  359.86   51.79
  -6  -7   2  374.06   41.70
   5   7  -2  239.78   32.90
  -5  -7   2  241.78   30.40
  -5  -7   2  240.88   37.20
   4   7  -2  234.98   30.00
  -4  -7   2  174.48   33.60
  -4  -7   2  214.68   26.50
   3   7  -2  274.77   29.90
  -3  -7   2  279.67   35.50
  -3  -7   2  238.58   28.30
   2   7  -2 1420.56   98.79
  -2  -7   2 1502.75   99.29
  -1  -7   2  423.06   40.80
  -1  -7   2  461.75   40.20
   0   7  -2  110.29   21.00
   0  -7   2  142.39   21.70
   0  -7   2   96.19   13.40
  -1   7  -2  214.08   21.00
  -1   7  -2  214.48   28.70
   1  -7   2  252.57   28.70
   1  -7   2  247.18   22.50
  -2   7  -2  230.38   28.90
  -2   7  -2  205.58   21.60
   2  -7   2  196.88   27.00
   2  -7   2  243.88   24.20
  -3   7  -2 3629.44  237.08
   3  -7   2 3597.44  240.88
   3  -7   2 3690.23  238.38
  -4   7  -2  123.39   18.80
  -4   7  -2  116.99   25.70
   4  -7   2  122.99   23.20
   4  -7   2   66.59   21.10
  -5   7  -2  789.22   58.89
  -5   7  -2  639.94   64.69
   5  -7   2  879.51   63.39
   5  -7   2  724.93   64.59
  -6   7  -2  172.18   45.50
   6  -7   2  150.18   31.70
  -7   7  -2  202.48   39.50
   7  -7   2  194.38   37.00
  -8   7  -2   28.40   30.00
   8  -7   2    1.00   29.90
  -9   7  -2   89.29   35.90
   9  -7   2   21.10   36.90
 -10   7  -2  -25.90   35.70
  10  -7   2  -23.70   34.90
  10   6  -2  -60.69   34.40
 -10  -6   2  -14.20   43.60
   9   6  -2    0.30   35.60
  -9  -6   2   47.60   41.90
   8   6  -2   -9.60   30.50
  -8  -6   2  -54.59   33.00
   7   6  -2   50.09   30.10
  -7  -6   2    4.90   34.10
   6   6  -2  206.18   32.60
  -6  -6   2  118.59   49.80
  -6  -6   2  165.98   27.80
   5   6  -2  637.84   59.49
   5   6  -2  644.14   55.59
  -5  -6   2  562.14   61.99
  -5  -6   2  650.83   52.19
   4   6  -2  449.26   40.30
  -4  -6   2  435.86   47.10
  -4  -6   2  354.26   37.00
   3   6  -2 1072.99   75.59
  -3  -6   2 1032.50   81.59
  -3  -6   2 1061.19   74.39
   2   6  -2 1206.58   80.19
  -2  -6   2 1109.39   85.69
  -1  -6   2  844.32   64.99
  -1  -6   2  916.21   61.59
   0   6  -2  313.87   33.40
   0  -6   2  300.07   33.70
   0  -6   2  340.07   25.20
  -1   6  -2  226.68   28.10
  -1   6  -2  244.08   27.70
   1  -6   2  190.98   20.80
   1  -6   2  242.18   27.30
  -2   6  -2 1000.70   70.59
  -2   6  -2  928.41   65.69
   2  -6   2  954.90   69.99
   2  -6   2  955.80   66.99
  -3   6  -2   80.69   15.90
  -3   6  -2  104.39   21.10
   3  -6   2  100.99   20.40
   3  -6   2   88.69   18.10
  -4   6  -2  940.71   74.99
  -4   6  -2  962.00   70.29
   4  -6   2  943.51   74.19
   4  -6   2 1049.79   73.39
  -5   6  -2   42.80   22.70
   5  -6   2   37.70   21.60
   5  -6   2   71.69   24.20
  -6   6  -2  511.25   45.00
  -6   6  -2  537.75   52.49
   6  -6   2  420.76   49.30
   6  -6   2  518.55   51.79
  -7   6  -2    4.60   24.60
   7  -6   2   -6.00   24.80
  -8   6  -2   -9.50   29.00
   8  -6   2   44.80   34.80
  -9   6  -2   63.69   36.30
   9  -6   2   13.50   32.80
 -10   6  -2  -53.39   30.70
  10  -6   2  -45.40   34.20
  10   5  -2   -8.40   36.90
 -10  -5   2   26.50   44.30
   9   5  -2   64.39   38.10
  -9  -5   2   24.20   41.60
   8   5  -2   -7.50   28.80
  -8  -5   2   81.39   39.70
   7   5  -2   -8.50   28.00
  -7  -5   2   26.00   19.10
  -7  -5   2    1.80   32.00
   6   5  -2   10.10   23.40
   6   5  -2    7.20   26.70
  -6  -5   2  -26.70   28.90
  -6  -5   2   43.10   32.80
   5   5  -2 1243.88   92.39
   5   5  -2 1242.48   89.59
  -5  -5   2 1154.78   93.99
  -5  -5   2 1189.18   86.79
   4   5  -2  365.86   41.00
   4   5  -2  415.46   38.80
  -4  -5   2  393.76   35.30
  -4  -5   2  304.07   40.70
   3   5  -2   33.30   14.90
  -3  -5   2    8.60   12.40
  -3  -5   2   37.60   19.00
   2   5  -2  165.38   19.90
  -2  -5   2  173.28   19.30
  -2  -5   2  139.99   24.60
   1   5  -2  196.28   19.90
  -1  -5   2  222.88   20.20
  -1  -5   2  169.38   24.10
   0   5  -2   16.60   13.90
   0   5  -2    4.10    6.40
   0  -5   2    5.10   13.10
   0  -5   2   -1.00    6.40
  -1   5  -2  824.62   56.29
  -1   5  -2  819.62   61.39
   1  -5   2  832.22   56.99
   1  -5   2  854.51   61.09
  -2   5  -2  248.78   26.90
  -2   5  -2  204.88   21.90
   2  -5   2  202.68   22.70
   2  -5   2  232.98   26.40
  -3   5  -2 2276.67  149.19
  -3   5  -2 2196.48  146.49
   3  -5   2 2124.09  148.59
   3  -5   2 2261.87  147.29
  -4   5  -2   67.69   21.50
  -4   5  -2   53.29   16.40
   4  -5   2   52.89   20.20
   4  -5   2   47.60   19.90
  -5   5  -2 2658.43  186.28
  -5   5  -2 2806.62  183.68
   5  -5   2 2797.92  185.58
   5  -5   2 2711.23  187.38
  -6   5  -2   54.29   23.50
  -6   5  -2   32.80   17.70
   6  -5   2   28.60   21.50
   6  -5   2   -2.40   21.00
  -7   5  -2  -10.40   23.30
   7  -5   2  -17.70   23.10
  -8   5  -2  138.29   37.50
   8  -5   2  141.69   38.50
  -9   5  -2  -24.20   29.70
   9  -5   2  -39.70   30.00
 -10   5  -2   28.70   43.50
  10  -5   2   28.60   37.50
  10   4  -2   63.49   39.20
 -10  -4   2  103.79   50.09
   9   4  -2   24.30   34.80
  -9  -4   2   10.90   39.70
   8   4  -2    1.60   31.50
  -8  -4   2   14.40   35.10
   7   4  -2   30.60   25.70
  -7  -4   2    5.90   30.00
  -7  -4   2   24.80   18.70
   6   4  -2  138.39   29.80
   6   4  -2  156.88   30.30
  -6  -4   2  204.08   41.90
  -6  -4   2  122.49   32.90
   5   4  -2  -25.50   28.50
   5   4  -2   57.69   22.60
  -5  -4   2   23.50   16.60
  -5  -4   2  -67.29   25.10
   4   4  -2  622.44   56.49
   4   4  -2  702.43   54.89
  -4  -4   2  609.14   59.29
  -4  -4   2  721.23   52.29
   3   4  -2   74.59   16.30
   3   4  -2   42.40   18.20
  -3  -4   2   34.90   13.50
  -3  -4   2    1.40   18.00
   2   4  -2 1417.66   96.79
  -2  -4   2 1440.26   96.29
  -2  -4   2 1504.35  100.49
   1   4  -2 1824.52  119.59
  -1  -4   2 1864.21  119.69
   0   4  -2 7503.85  451.75
   0   4  -2 6615.14  445.56
   0  -4   2 6706.13  445.56
   0  -4   2 7220.28  449.46
  -1   4  -2  539.15   44.20
  -1   4  -2  562.04   39.10
   1  -4   2  565.04   39.50
  -2   4  -2 1055.69   73.39
  -2   4  -2 1054.99   70.59
   2  -4   2 1014.20   70.99
   2  -4   2 1015.30   73.19
  -3   4  -2  296.27   32.20
  -3   4  -2  272.57   27.90
   3  -4   2  309.07   31.50
   3  -4   2  287.87   30.00
  -4   4  -2  369.86   33.70
  -4   4  -2  385.76   38.70
   4  -4   2  347.97   37.20
   4  -4   2  327.07   37.40
  -5   4  -2  355.26   35.70
  -5   4  -2  313.87   38.00
   5  -4   2  270.37   35.80
   5  -4   2  391.26   40.00
  -6   4  -2  566.54   53.79
  -6   4  -2  503.85   47.10
   6  -4   2  497.45   50.89
   6  -4   2  550.84   52.69
  -7   4  -2  435.46   51.79
   7  -4   2  295.37   45.70
  -8   4  -2  113.59   35.40
   8  -4   2    7.30   31.20
  -9   4  -2   20.90   37.70
   9  -4   2   36.80   35.50
 -10   4  -2  103.99   48.70
  10  -4   2   61.79   41.60
  10   3  -2   27.50   39.50
 -10  -3   2   -9.90   42.80
   9   3  -2  320.37   52.99
  -9  -3   2  387.76   61.19
   8   3  -2   55.19   32.50
  -8  -3   2   14.00   33.80
   7   3  -2  200.68   36.40
  -7  -3   2  195.58   40.20
  -7  -3   2  198.18   30.80
   6   3  -2  126.29   26.10
   6   3  -2   56.99   25.30
  -6  -3   2   72.69   31.60
  -6  -3   2  107.29   38.00
   5   3  -2  198.28   29.50
   5   3  -2  243.18   32.70
  -5  -3   2  204.18   26.30
  -5  -3   2  206.28   35.40
   4   3  -2   22.40   19.00
   4   3  -2   21.90   17.50
  -4  -3   2   19.90   12.90
  -4  -3   2   25.90   20.70
   3   3  -2 3166.08  211.98
   3   3  -2 3174.58  209.58
  -3  -3   2 3284.07  212.88
  -3  -3   2 3229.18  209.18
   2   3  -2 4035.50  265.37
   2   3  -2 4133.09  263.07
  -2  -3   2 4040.40  262.67
  -2  -3   2 4127.69  265.77
   1   3  -2 1925.01  122.79
  -1  -3   2 1882.71  122.59
   0   3  -2  616.74   39.50
   0   3  -2  585.24   43.30
   0  -3   2  623.94   39.70
   0  -3   2  584.64   43.40
  -1   3  -2  474.75   39.30
  -1   3  -2  536.45   36.80
   1  -3   2  590.24   37.10
   1  -3   2  476.05   39.30
  -2   3  -2 2997.10  197.78
   2  -3   2 3015.00  196.98
   2  -3   2 3077.69  198.18
  -3   3  -2 1337.77   94.39
  -3   3  -2 1425.36   95.99
   3  -3   2 1398.96   96.09
   3  -3   2 1386.26   95.49
  -4   3  -2  466.95   38.20
  -4   3  -2  403.96   40.90
   4  -3   2  448.36   40.90
   4  -3   2  400.66   40.40
  -5   3  -2  -16.70   18.10
  -5   3  -2   -3.20   13.00
   5  -3   2    5.40   18.40
   5  -3   2    2.10   18.20
  -6   3  -2  650.03   61.49
  -6   3  -2  630.64   54.99
   6  -3   2  708.43   60.59
   6  -3   2  636.94   58.59
   7  -3   2  359.56   47.10
  -8   3  -2  200.88   41.70
   8  -3   2  184.68   39.20
  -9   3  -2   54.79   38.30
   9  -3   2   31.30   33.70
 -10   3  -2    4.30   41.80
  10  -3   2   16.90   38.30
  10   2  -2  280.17   53.09
 -10  -2   2  320.77   62.99
   9   2  -2  -30.90   31.60
  -9  -2   2   -0.70   35.10
   8   2  -2   40.50   31.40
  -8  -2   2   -5.30   34.00
   7   2  -2  191.28   33.40
  -7  -2   2  138.89   26.80
  -7  -2   2  187.18   38.50
   6   2  -2   29.10   24.50
   6   2  -2   62.19   22.80
  -6  -2   2   43.10   28.00
   5   2  -2  285.27   36.60
   5   2  -2  436.26   39.50
  -5  -2   2  278.67   38.30
   4   2  -2  311.77   33.20
   4   2  -2  224.38   32.60
  -4  -2   2  346.47   37.50
  -4  -2   2  325.77   29.70
   3   2  -2  142.79   23.30
   3   2  -2  171.98   21.20
  -3  -2   2  161.48   25.80
  -3  -2   2  179.98   20.20
   2   2  -2 4436.06  291.97
   2   2  -2 4442.66  289.27
  -2  -2   2 4347.47  288.87
  -2  -2   2 4800.52  292.17
   1   2  -2  467.15   32.00
  -1  -2   2  485.45   35.50
  -1  -2   2  466.45   31.70
   0   2  -2 1619.74  104.29
   0  -2   2 1585.34  104.29
  -1   2  -2   88.49   11.20
   1  -2   2   73.59   11.30
  -2   2  -2 3791.42  228.98
   2  -2   2 3113.19  221.48
   2  -2   2 3431.66  222.18
  -3   2  -2    5.90   12.20
  -3   2  -2   20.00   14.80
   3  -2   2    2.00   15.10
   3  -2   2   34.50   14.30
  -4   2  -2  315.37   35.30
  -4   2  -2  323.57   33.50
   4  -2   2  334.07   36.40
   4  -2   2  353.26   36.00
  -5   2  -2  996.50   72.89
  -5   2  -2  929.61   75.89
   5  -2   2  910.01   74.29
   5  -2   2 1065.29   76.09
  -6   2  -2   84.59   30.30
  -6   2  -2  123.39   23.90
   6  -2   2   65.39   27.40
   6  -2   2   75.89   28.00
  -7   2  -2  568.64   78.39
   7  -2   2  799.32   68.99
  -8   2  -2  573.64   63.49
   8  -2   2  390.56   56.69
  -9   2  -2   29.90   39.40
   9  -2   2  -14.20   32.50
 -10   2  -2  215.98   53.19
  10  -2   2   86.09   43.00
  10   1  -2    3.50   38.80
 -10  -1   2   26.20   46.70
   9   1  -2   12.40   33.60
  -9  -1   2   36.60   40.30
   8   1  -2  437.46   51.39
  -8  -1   2  357.36   54.99
   7   1  -2  238.88   36.70
  -7  -1   2  185.48   32.90
  -7  -1   2  267.37   44.60
   6   1  -2   59.79   22.20
   6   1  -2   27.10   23.50
  -6  -1   2   42.80   25.50
  -6  -1   2   72.49   26.20
   5   1  -2   33.20   24.10
   5   1  -2   78.79   20.60
  -5  -1   2   81.99   18.20
  -5  -1   2   48.80   23.90
   4   1  -2  937.71   62.39
   4   1  -2  820.42   64.19
  -4  -1   2  743.13   59.49
  -4  -1   2  810.82   65.59
   3   1  -2   92.49   18.80
   3   1  -2   74.19   16.30
  -3  -1   2   78.89   14.70
  -3  -1   2  105.49   20.30
   2   1  -2  438.86   35.50
   2   1  -2  552.74   44.50
  -2  -1   2  531.25   41.90
  -2  -1   2  446.16   35.30
   1   1  -2  309.17   23.10
   1   1  -2  251.07   19.90
  -1  -1   2  261.07   19.80
  -1  -1   2  319.57   22.90
   0   1  -2    8.10    3.30
   0  -1   2    0.40    2.70
  -1   1  -2  146.29   16.90
  -1   1  -2  189.18   16.00
   1  -1   2  201.88   15.80
   1  -1   2  189.28   18.10
  -2   1  -2  457.85   43.30
  -2   1  -2  544.85   39.80
   2  -1   2  476.85   41.70
   2  -1   2  522.75   39.20
  -3   1  -2  389.76   33.80
  -3   1  -2  348.77   34.90
   3  -1   2  369.16   35.90
   3  -1   2  324.17   33.60
  -4   1  -2  662.63   55.39
  -4   1  -2  690.93   54.09
   4  -1   2  672.03   55.79
   4  -1   2  687.23   54.69
  -5   1  -2   21.70   15.90
  -5   1  -2  -23.60   20.80
   5  -1   2  -33.40   20.00
   5  -1   2   -7.20   19.40
  -6   1  -2  166.58   32.60
  -6   1  -2  111.79   24.40
   6  -1   2  117.49   29.70
   6  -1   2   88.49   29.40
  -7   1  -2  456.75   57.99
   7  -1   2  459.55   54.09
  -8   1  -2  443.56   57.69
   8  -1   2  371.16   54.09
  -9   1  -2  306.47   55.09
   9  -1   2  239.88   48.20
 -10   1  -2  -12.80   43.20
  10  -1   2   19.30   41.50
  10   0  -2    1.60   36.70
 -10   0   2   18.40   43.70
   9   0  -2  204.28   44.50
  -9   0   2  152.98   46.60
   8   0  -2  127.89   34.20
  -8   0   2  215.98   42.30
   7   0  -2  508.05   54.79
  -7   0   2  593.04   62.99
   6   0  -2  337.67   38.50
   6   0  -2  259.17   38.60
  -6   0   2  414.16   35.70
  -6   0   2  259.67   39.90
   5   0  -2  661.23   54.29
   5   0  -2  603.34   56.49
  -5   0   2  666.53   59.09
  -5   0   2  703.03   52.59
   4   0  -2   15.10   12.60
   4   0  -2  -32.40   15.20
  -4   0   2   23.90   18.10
  -4   0   2   14.30   12.10
   3   0  -2   80.09   18.10
   3   0  -2   52.09   14.40
  -3   0   2   90.29   19.10
  -3   0   2   71.09   13.00
   2   0  -2  713.93   55.29
   2   0  -2  825.62   57.19
  -2   0   2  773.02   65.99
  -2   0   2  791.72   53.69
   1   0  -2  148.89   16.00
   1   0  -2  145.39   13.40
  -1   0   2  158.48   15.70
  -1   0   2  157.28   13.40
  -1   0  -2  234.28   20.60
  -1   0  -2  222.08   17.20
   1   0   2  220.08   17.70
   1   0   2  204.98   20.40
  -2   0  -2  548.75   56.49
  -2   0  -2  693.63   46.80
   2   0   2  611.34   47.00
   2   0   2  609.94   48.70
  -3   0  -2  275.07   28.80
  -3   0  -2  283.37   30.10
   3   0   2  243.28   28.00
   3   0   2  241.28   29.20
  -4   0  -2   47.40   20.10
  -4   0  -2   51.99   15.60
   4   0   2   35.10   19.10
   4   0   2   26.70   18.70
  -5   0  -2  122.69   25.80
   5   0   2   85.89   24.30
   5   0   2  114.09   25.00
  -6   0  -2  334.57   47.00
  -6   0  -2  453.95   43.60
   6   0   2  360.06   45.00
   6   0   2  501.05   48.30
  -7   0  -2  161.78   38.00
   7   0   2  102.79   34.80
  -8   0  -2  831.82   81.49
   8   0   2  769.12   77.99
  -9   0  -2  162.68   48.40
   9   0   2  110.19   43.10
 -10   0  -2  272.67   61.99
  10   0   2  299.77   55.59
  10  -1  -2   -0.90   33.50
 -10   1   2   -3.00   40.80
   9  -1  -2  262.37   47.50
  -9   1   2  289.27   53.79
   8  -1  -2  564.84   61.19
  -8   1   2  560.34   66.19
   7  -1  -2  198.98   40.80
  -7   1   2  154.58   37.00
   6  -1  -2   38.20   23.80
   6  -1  -2   23.00   21.70
  -6   1   2   35.00   16.80
  -6   1   2   47.50   24.10
   5  -1  -2    5.70   18.70
   5  -1  -2   39.50   16.90
  -5   1   2   12.80   20.10
  -5   1   2    4.70   13.00
   4  -1  -2  369.66   37.30
   4  -1  -2  333.27   33.50
  -4   1   2  344.17   31.50
  -4   1   2  334.17   37.70
   3  -1  -2   57.79   13.70
   3  -1  -2   56.39   16.40
  -3   1   2   34.30   11.60
  -3   1   2   54.39   17.00
   2  -1  -2 3213.98  223.28
   2  -1  -2 3593.44  220.58
   1  -1  -2 1376.56   90.19
   1  -1  -2 1379.86   89.79
  -1   1   2 1393.06   90.29
  -1   1   2 1339.47   89.59
   0  -1  -2   59.49    6.20
   0  -1  -2   50.19   10.00
   0   1   2   55.59    9.70
   0   1   2   39.40    6.50
   1   1   2  524.25   39.70
  -2  -1  -2 6859.41  442.86
  -2  -1  -2 7076.49  442.16
   2   1   2 6783.52  442.06
   2   1   2 6847.52  443.06
  -3  -1  -2   75.89   18.10
  -3  -1  -2  103.19   19.60
   3   1   2   82.99   18.10
   3   1   2  116.69   20.70
  -4  -1  -2   28.00   16.30
  -4  -1  -2   33.50   18.70
   4   1   2    6.60   17.30
   4   1   2   39.40   19.50
  -5  -1  -2  438.86   47.50
  -5  -1  -2  459.85   43.20
   5   1   2  469.85   46.00
   5   1   2  451.05   46.90
  -6  -1  -2   15.60   25.20
  -6  -1  -2   16.50   17.50
   6   1   2  -24.80   22.60
   6   1   2    7.20   23.50
  -7  -1  -2  566.34   64.39
   7   1   2  606.14   62.79
  -8  -1  -2   22.40   37.80
   8   1   2   58.79   36.40
  -9  -1  -2  688.33   77.89
   9   1   2  463.45   65.29
 -10  -1  -2  104.79   51.99
  10   1   2  130.99   45.20
  10  -2  -2  219.58   48.30
 -10   2   2  230.28   58.09
   9  -2  -2   24.70   33.00
  -9   2   2    9.60   39.10
   8  -2  -2  695.93   68.09
  -8   2   2  665.93   72.09
   7  -2  -2  546.55   73.79
  -7   2   2  757.82   67.99
   6  -2  -2  110.69   23.60
   6  -2  -2  109.29   26.20
  -6   2   2  100.09   20.30
  -6   2   2  122.99   29.30
   5  -2  -2  101.19   24.20
   5  -2  -2  112.89   23.00
  -5   2   2   99.19   26.30
  -5   2   2  120.89   20.60
   4  -2  -2   54.39   19.40
   4  -2  -2   89.29   18.90
  -4   2   2  102.49   22.70
  -4   2   2   89.99   17.10
   3  -2  -2  160.68   21.10
   3  -2  -2  175.68   24.40
  -3   2   2  180.18   25.00
  -3   2   2  170.08   20.10
   2  -2  -2  764.42   51.99
  -2   2   2  674.43   50.79
   1  -2  -2 4002.30  269.27
  -1   2   2 4273.87  269.07
  -1   2   2 4297.67  269.67
   0  -2  -2   71.09   12.80
   0  -2  -2   33.90    9.00
   0   2   2   36.50    9.70
  -1  -2  -2 2834.92  185.58
  -1  -2  -2 2775.22  183.38
   1   2   2 2917.91  187.28
  -2  -2  -2 7195.88  473.55
  -2  -2  -2 7287.17  472.75
   2   2   2 7485.35  471.85
   2   2   2 7454.05  473.05
  -3  -2  -2   82.59   19.00
  -3  -2  -2  116.39   20.20
   3   2   2  130.79   22.00
   3   2   2   72.69   16.50
  -4  -2  -2   81.19   19.80
  -4  -2  -2   82.49   22.90
   4   2   2   52.09   20.50
   4   2   2   71.09   20.60
  -5  -2  -2  324.57   39.70
  -5  -2  -2  357.96   37.90
   5   2   2  365.36   41.40
   5   2   2  308.37   38.80
  -6  -2  -2  279.67   36.60
  -6  -2  -2  262.47   40.40
   6   2   2  314.17   39.40
   6   2   2  290.77   39.60
  -7  -2  -2    6.40   35.70
   7   2   2   48.30   31.10
  -8  -2  -2  386.76   57.39
   8   2   2  346.87   50.09
  -9  -2  -2  -37.20   41.00
   9   2   2   92.09   38.40
 -10  -2  -2  252.77   64.29
  10   2   2  239.68   51.09
  10  -3  -2   86.89   38.70
 -10   3   2   14.40   41.30
   9  -3  -2  460.85   59.99
  -9   3   2  440.96   63.89
   8  -3  -2  142.59   36.10
  -8   3   2  173.68   43.50
   7  -3  -2  126.89   30.70
  -7   3   2  186.18   36.00
   6  -3  -2  197.98   33.40
   6  -3  -2  137.69   28.60
  -6   3   2  197.38   26.40
  -6   3   2  203.68   34.20
   5  -3  -2  354.86   40.10
   5  -3  -2  348.07   37.90
  -5   3   2  315.67   33.90
  -5   3   2  387.46   42.20
   4  -3  -2  339.97   36.80
   4  -3  -2  332.57   35.30
  -4   3   2  338.07   31.70
  -4   3   2  346.37   37.70
   3  -3  -2  283.67   29.40
   3  -3  -2  319.87   32.20
  -3   3   2  317.07   32.50
  -3   3   2  237.98   26.30
   2  -3  -2  232.08   22.90
   2  -3  -2  220.98   24.20
  -2   3   2  180.28   20.50
  -2   3   2  199.08   24.30
   1  -3  -2  198.08   21.70
   1  -3  -2  198.08   22.60
  -1   3   2  234.78   22.50
  -1   3   2  225.38   21.40
   0  -3  -2    7.50   25.60
   0  -3  -2   15.60    8.80
   0  -3  -2   22.50   10.90
   0   3   2   20.30   10.40
  -1  -3  -2  112.89   20.10
   1   3   2  110.79   18.80
  -2  -3  -2 1016.20   70.49
  -2  -3  -2  948.61   70.89
   2   3   2  981.50   71.59
  -3  -3  -2   78.29   18.80
  -3  -3  -2   70.99   18.80
   3   3   2   52.19   17.50
   3   3   2   81.79   20.10
  -4  -3  -2  314.57   33.50
  -4  -3  -2  254.27   33.80
   4   3   2  303.47   33.90
   4   3   2  307.27   36.50
  -5  -3  -2   47.60   26.70
  -5  -3  -2   95.39   22.40
   5   3   2   42.10   22.60
   5   3   2  118.89   26.40
  -6  -3  -2  115.39   30.60
  -6  -3  -2   98.29   23.70
   6   3   2  125.09   29.10
   6   3   2  104.19   29.40
   7   3   2   58.79   31.90
  -8  -3  -2  220.08   48.20
   8   3   2  201.08   44.00
  -9  -3  -2  422.06   65.09
   9   3   2  385.96   57.19
 -10  -3  -2  -28.20   49.90
  10   3   2   61.49   43.70
  10  -4  -2  392.76   59.49
 -10   4   2  285.57   58.79
   9  -4  -2   26.80   32.60
  -9   4   2  -12.10   34.10
   8  -4  -2  612.14   64.49
  -8   4   2  586.24   67.89
   7  -4  -2   79.69   28.60
  -7   4   2  106.29   31.90
   6  -4  -2  -20.90   17.40
   6  -4  -2  -32.00   18.40
  -6   4   2   -7.30   21.80
  -6   4   2    7.00   14.80
   5  -4  -2  543.15   47.40
   5  -4  -2  482.95   52.69
  -5   4   2  490.25   49.60
   4  -4  -2   -2.40   14.50
   4  -4  -2  -44.70   16.30
  -4   4   2    0.80   11.20
  -4   4   2  -16.80   16.50
   3  -4  -2  130.79   22.30
   3  -4  -2  135.69   21.30
  -3   4   2   97.19   17.60
  -3   4   2  165.18   23.50
   2  -4  -2   51.89   14.80
   2  -4  -2   40.60   13.80
  -2   4   2   80.69   17.50
  -2   4   2   66.29   13.00
   1  -4  -2   -2.80   10.10
   1  -4  -2   -9.70   21.00
  -1   4   2   25.00   12.60
  -1   4   2    6.00    9.90
   0  -4  -2  213.48   24.50
   0  -4  -2  219.98   20.40
   0  -4  -2  204.78   21.80
   0   4   2  177.98   23.40
  -1  -4  -2   52.19   13.60
  -1  -4  -2   77.99   18.00
   1   4   2   58.09   16.90
  -2  -4  -2  238.68   26.60
  -2  -4  -2  265.67   28.60
   2   4   2  252.97   29.00
  -3  -4  -2  274.67   31.60
  -3  -4  -2  302.07   33.10
   3   4   2  301.07   33.60
  -4  -4  -2  -32.60   22.20
  -4  -4  -2   24.80   18.40
   4   4   2   31.20   19.90
   4   4   2   48.50   20.60
  -5  -4  -2 1346.17   96.79
   5   4   2 1118.09   92.99
   5   4   2 1359.46   96.59
  -6  -4  -2  258.77   35.90
  -6  -4  -2  225.28   40.30
   6   4   2  318.17   42.20
   6   4   2  299.07   40.40
  -7  -4  -2  201.98   47.00
   7   4   2  326.87   46.10
  -8  -4  -2   62.49   39.90
   8   4   2   60.89   36.00
  -9  -4  -2    3.10   41.10
   9   4   2  -24.50   36.90
 -10  -4  -2   48.30   48.90
  10   4   2   74.89   41.50
  10  -5  -2   22.30   36.80
 -10   5   2   51.29   42.00
   9  -5  -2  130.69   40.00
  -9   5   2  220.28   49.50
   8  -5  -2   52.09   30.90
  -8   5   2   -2.90   30.60
   7  -5  -2   38.90   28.00
  -7   5   2  -15.00   27.70
   6  -5  -2  513.05   50.09
   6  -5  -2  458.95   50.19
  -6   5   2  476.25   52.69
   5  -5  -2   -4.70   20.00
   5  -5  -2   -8.50   16.10
  -5   5   2    3.40   12.20
  -5   5   2  -14.10   20.90
   4  -5  -2 1178.38   82.09
   4  -5  -2 1116.59   80.39
  -4   5   2 1048.00   77.39
  -4   5   2 1021.90   81.89
   3  -5  -2    7.50   14.90
   3  -5  -2  -21.10   13.90
  -3   5   2    3.50   16.00
  -3   5   2   -4.50   10.20
   2  -5  -2  -14.70   11.50
   2  -5  -2  -14.30   11.40
  -2   5   2   -2.60   10.00
  -2   5   2    5.60   14.20
   1  -5  -2  175.28   21.00
   1  -5  -2  174.08   19.40
  -1   5   2  128.09   21.00
  -1   5   2  162.28   19.10
   0  -5  -2   27.50   11.20
   0  -5  -2   20.20   15.90
   0  -5  -2   35.60   13.10
   0   5   2   41.40   14.00
  -1  -5  -2  463.95   38.00
  -1  -5  -2  363.46   34.90
   1   5   2  379.16   37.00
  -2  -5  -2   66.89   17.80
  -2  -5  -2   88.39   19.70
   2   5   2   46.20   19.10
  -3  -5  -2  456.85   42.30
  -3  -5  -2  415.96   44.70
   3   5   2  440.26   44.80
  -4  -5  -2 1544.45  109.39
  -4  -5  -2 1531.45  107.49
   4   5   2 1446.86  108.79
  -5  -5  -2  124.39   30.80
  -5  -5  -2   99.89   25.50
   5   5   2  101.99   27.50
   5   5   2  112.39   30.80
  -6  -5  -2  384.56   48.80
  -6  -5  -2  293.37   50.29
   6   5   2  314.97   45.50
   6   5   2  392.46   46.20
  -7  -5  -2   34.30   33.80
   7   5   2  -38.10   28.90
  -8  -5  -2   58.99   40.70
   8   5   2  107.89   39.70
  -9  -5  -2  -25.30   38.20
   9   5   2  -13.70   36.70
 -10  -5  -2   78.39   52.79
  10   5   2  -27.00   40.40
  10  -6  -2   64.69   40.30
 -10   6   2  119.49   46.00
   9  -6  -2   17.60   35.50
  -9   6   2  106.59   40.50
   8  -6  -2  248.38   44.50
  -8   6   2  280.87   47.70
   7  -6  -2 1009.20   82.89
  -7   6   2  970.50   85.79
   6  -6  -2   -2.10   28.80
  -6   6   2   63.59   36.40
   5  -6  -2  798.82   67.19
   5  -6  -2  807.32   66.69
  -5   6   2  854.11   69.59
  -5   6   2  809.02   62.29
   4  -6  -2  123.39   25.00
   4  -6  -2  127.89   26.90
  -4   6   2  180.38   22.60
  -4   6   2  130.69   27.80
   3  -6  -2   66.09   21.40
   3  -6  -2  104.29   21.50
  -3   6   2   75.99   17.10
  -3   6   2   84.09   22.30
   2  -6  -2  782.52   57.59
   2  -6  -2  742.23   58.69
  -2   6   2  759.42   60.19
  -2   6   2  810.82   56.39
   1  -6  -2  115.39   17.60
   1  -6  -2  125.99   19.50
  -1   6   2  100.39   20.90
  -1   6   2  155.48   17.70
   0  -6  -2    6.40   15.90
   0  -6  -2    5.70   12.00
   0  -6  -2   19.00   13.70
   0   6   2  -15.40   12.30
  -1  -6  -2   96.29   21.10
  -1  -6  -2  109.89   18.80
   1   6   2   76.49   20.90
  -2  -6  -2 1491.25  102.09
  -2  -6  -2 1441.06  101.59
   2   6   2 1406.96  101.69
  -3  -6  -2  359.06   38.50
  -3  -6  -2  321.07   39.10
   3   6   2  394.36   39.80
  -4  -6  -2   87.49   23.30
  -4  -6  -2   57.49   25.00
   4   6   2   88.99   26.50
  -5  -6  -2  269.17   37.70
  -5  -6  -2  267.77   34.70
   5   6   2  257.67   38.40
  -6  -6  -2   31.20   31.30
   6   6   2   25.70   41.60
  -7  -6  -2   90.39   38.50
   7   6   2   56.99   35.50
  -8  -6  -2  -21.10   35.50
   8   6   2  -49.90   33.40
  -9  -6  -2   52.69   45.70
   9   6   2   25.30   36.80
  10  -7  -2  155.58   46.00
 -10   7   2   61.69   40.60
   9  -7  -2   17.20   32.90
  -9   7   2   24.50   34.70
   8  -7  -2   29.30   29.00
  -8   7   2   44.20   34.10
   7  -7  -2  194.48   37.80
  -7   7   2  267.87   43.00
   6  -7  -2  449.36   49.80
  -6   7   2  506.65   56.69
   5  -7  -2  240.28   33.70
   5  -7  -2  139.99   30.60
  -5   7   2  230.18   34.30
  -5   7   2  183.58   25.70
   4  -7  -2  583.64   55.39
   4  -7  -2  518.35   50.59
  -4   7   2  604.04   53.39
  -4   7   2  534.25   46.00
   3  -7  -2  583.54   53.09
   3  -7  -2  651.63   53.39
  -3   7   2  658.43   56.09
  -3   7   2  688.43   50.69
   2  -7  -2   47.50   17.60
   2  -7  -2   72.69   18.90
  -2   7   2   43.40   16.30
  -2   7   2   79.79   21.50
   1  -7  -2 1104.39   81.29
   1  -7  -2 1126.69   79.99
  -1   7   2 1183.88   78.89
  -1   7   2 1153.08   82.79
   0  -7  -2  193.48   24.80
   0  -7  -2   98.29   27.30
   0  -7  -2  164.08   23.10
   0   7   2  146.99   24.50
  -1  -7  -2  667.83   56.29
  -1  -7  -2  689.43   54.39
  -2  -7  -2   -3.90   19.20
  -2  -7  -2    3.40   15.00
   2   7   2  -20.70   17.90
  -3  -7  -2  538.85   51.99
  -3  -7  -2  597.94   53.89
   3   7   2  583.54   53.49
  -4  -7  -2  122.69   43.10
  -4  -7  -2  136.69   29.20
   4   7   2  141.99   29.20
  -5  -7  -2    1.50   20.90
  -5  -7  -2    1.70   26.10
   5   7   2   33.10   26.80
  -6  -7  -2  -19.70   36.60
   6   7   2   24.00   32.00
  -7  -7  -2   23.90   38.00
   7   7   2   24.00   33.40
  -8  -7  -2  -52.59   39.40
   8   7   2   44.40   36.70
  -9  -7  -2   73.29   50.89
   9   7   2   28.40   40.80
  10  -8  -2  -12.60   48.00
 -10   8   2   52.39   44.40
   9  -8  -2   50.59   38.30
  -9   8   2   54.59   34.60
   8  -8  -2   32.40   30.90
  -8   8   2   41.60   32.60
   7  -8  -2  232.78   41.60
  -7   8   2  276.37   45.60
   6  -8  -2  546.45   57.79
  -6   8   2  610.94   61.19
   5  -8  -2  101.99   27.70
   5  -8  -2  145.69   42.40
  -5   8   2  152.98   32.60
   4  -8  -2  380.86   43.20
   4  -8  -2  420.36   43.40
  -4   8   2  438.76   46.70
  -4   8   2  444.96   38.70
   3  -8  -2  -44.60   17.80
   3  -8  -2    1.40   17.10
  -3   8   2   35.70   22.40
   2  -8  -2 1164.98   84.89
   2  -8  -2 1140.49   86.49
  -2   8   2 1183.28   88.59
  -2   8   2 1278.27   84.09
   1  -8  -2    2.20   14.70
   1  -8  -2  -32.40   14.70
  -1   8   2  -17.80   18.30
   0  -8  -2  470.85   45.20
   0  -8  -2  552.04   42.60
   0  -8  -2  546.65   47.80
   0   8   2  494.45   47.70
  -1  -8  -2    5.00   17.20
  -2  -8  -2  578.94   53.99
  -2  -8  -2  554.14   51.29
   2   8   2  628.04   53.19
  -3  -8  -2   37.20   20.50
  -3  -8  -2   37.40   24.10
  -3  -8  -2    4.20   21.90
   3   8   2   -3.50   22.80
  -4  -8  -2  115.79   30.20
  -4  -8  -2   63.49   23.60
   4   8   2   84.49   26.00
  -5  -8  -2   62.09   27.90
  -5  -8  -2   22.10   29.00
   5   8   2   13.30   27.70
  -6  -8  -2   36.60   36.20
   6   8   2   -7.30   30.70
  -7  -8  -2   33.90   39.00
   7   8   2  -14.60   32.40
  -8  -8  -2   58.19   43.20
   8   8   2   34.30   38.90
  -9  -8  -2   42.90   49.30
   9   8   2   14.70   40.30
   9  -9  -2   34.90   34.90
  -9   9   2   16.80   33.00
   8  -9  -2   41.10   33.20
  -8   9   2   11.80   31.60
   7  -9  -2   15.30   28.00
  -7   9   2   56.69   32.30
   6  -9  -2  498.15   56.09
  -6   9   2  516.95   59.69
   5  -9  -2  629.24   59.09
  -5   9   2  590.44   88.29
   4  -9  -2   -9.70   19.40
   4  -9  -2   -4.60   18.50
  -4   9   2  -11.60   12.70
  -4   9   2  -49.99   20.40
   3  -9  -2  583.64   78.99
   3  -9  -2  741.63   58.59
  -3   9   2  818.62   63.79
  -3   9   2  695.13   55.49
   2  -9  -2   65.69   21.10
   2  -9  -2   24.20   18.80
  -2   9   2   25.50   29.60
  -2   9   2   66.49   23.60
   1  -9  -2 1213.98   92.99
   1  -9  -2 1359.36   90.69
  -1   9   2 1270.77   94.79
   0  -9  -2   46.30   18.60
   0  -9  -2   34.50   21.40
   0  -9  -2   73.99   26.60
   0   9   2   17.30   21.50
  -1  -9  -2 1327.97   96.79
  -1  -9  -2 1390.06   92.39
  -1  -9  -2 1257.97   97.49
  -2  -9  -2   97.09   23.40
  -2  -9  -2   36.70   25.40
   2   9   2  -17.90   25.10
  -3  -9  -2   76.09   27.40
  -3  -9  -2   61.89   24.50
  -3  -9  -2   66.19   22.80
   3   9   2  110.19   25.40
  -4  -9  -2  585.14   60.89
  -4  -9  -2  552.54   56.79
   4   9   2  552.44   57.79
  -5  -9  -2   47.40   30.70
  -6  -9  -2   12.80   34.40
   6   9   2  -21.50   29.50
  -7  -9  -2   -6.30   37.20
   7   9   2  -23.80   35.60
  -8  -9  -2   71.19   45.90
   8   9   2  -19.90   38.00
   9 -10  -2   75.99   38.70
  -9  10   2   41.80   37.30
   8 -10  -2   19.20   33.60
  -8  10   2    5.50   31.90
   7 -10  -2   11.70   29.90
  -7  10   2   28.40   30.70
   6 -10  -2   82.19   28.80
  -6  10   2   23.50   29.30
   5 -10  -2   39.50   26.60
  -5  10   2    6.40   27.20
   4 -10  -2  577.34   72.69
   4 -10  -2  633.74   74.09
  -4  10   2  586.44   59.19
   3 -10  -2   29.30   19.90
   3 -10  -2   39.40   20.00
  -3  10   2   16.60   14.20
  -3  10   2   35.60   23.30
   2 -10  -2 1112.29   78.89
  -2  10   2 1057.39   83.29
  -2  10   2 1033.90   76.49
   1 -10  -2  133.39   23.30
   1 -10  -2  177.98   26.20
  -1  10   2  146.59   28.80
   0 -10  -2  633.44   51.99
   0 -10  -2  683.83   56.39
   0  10   2  643.84   58.69
  -1 -10  -2  198.38   25.30
  -1 -10  -2  165.28   27.50
  -1 -10  -2  192.98   47.90
  -2 -10  -2  251.37   35.30
  -2 -10  -2  255.37   37.50
  -3 -10  -2  256.67   41.00
  -3 -10  -2  352.96   44.40
  -3 -10  -2  315.47   37.90
   3  10   2  334.07   41.30
  -4 -10  -2  -13.30   21.60
  -4 -10  -2  -31.00   27.60
   4  10   2   16.30   25.80
  -5 -10  -2   23.00   34.10
   5  10   2   32.40   32.70
  -6 -10  -2  -25.90   38.00
   6  10   2   10.90   33.00
  -7 -10  -2  -21.00   40.10
   7  10   2   -8.80   36.30
  -8 -10  -2   63.09   47.70
   8  10   2    1.80   39.40
   9 -11  -2    6.60   39.20
  -9  11   2   84.09   43.70
   8 -11  -2    2.20   30.40
  -8  11   2   17.20   34.50
   7 -11  -2   -1.40   29.50
  -7  11   2   45.90   31.70
   6 -11  -2  127.89   33.90
  -6  11   2  115.49   36.50
   5 -11  -2  699.23   64.19
  -5  11   2  675.13   68.89
   4 -11  -2   48.40   22.90
  -4  11   2    4.50   24.50
   3 -11  -2  914.01   76.89
  -3  11   2  973.00   79.89
   2 -11  -2   75.49   21.90
   2 -11  -2   89.49   22.10
  -2  11   2  136.89   29.10
  -2  11   2   74.09   18.20
   1 -11  -2  764.12   60.09
   1 -11  -2  731.63   62.59
   1 -11  -2  714.33   64.29
  -1  11   2  806.02   67.09
   0 -11  -2  247.48   30.70
   0 -11  -2  256.27   35.80
   0 -11  -2  266.67   36.80
   0  11   2  311.57   39.50
  -1 -11  -2  476.45   51.39
  -1 -11  -2  494.65   43.80
  -1 -11  -2  463.95   48.40
  -2 -11  -2  448.76   52.09
  -2 -11  -2  522.65   51.39
  -3 -11  -2   -1.80   24.80
  -3 -11  -2   -6.80   29.00
  -3 -11  -2   -8.20   21.20
   3  11   2   -2.10   24.30
   4  11   2  221.28   40.20
  -5 -11  -2   52.59   37.00
   5  11   2   99.99   34.70
  -6 -11  -2   99.99   43.20
   6  11   2   87.89   36.50
  -7 -11  -2   59.59   44.40
   7  11   2   62.69   38.90
   8 -12  -2   24.30   33.70
  -8  12   2  -38.30   30.80
   7 -12  -2  200.18   43.20
  -7  12   2  174.38   45.10
   6 -12  -2  142.89   37.10
  -6  12   2  132.89   38.10
   5 -12  -2  138.79   33.70
  -5  12   2  132.29   35.10
   4 -12  -2  317.07   42.40
  -4  12   2  323.87   46.70
   3 -12  -2   48.40   22.60
  -3  12   2   16.60   30.70
   2 -12  -2  416.56   51.19
  -2  12   2  454.35   51.09
   1 -12  -2  156.08   25.60
   1 -12  -2   86.89   24.50
   1 -12  -2  121.39   38.90
  -1  12   2  158.78   32.30
   0 -12  -2  196.68   32.20
   0 -12  -2  197.38   35.00
   0 -12  -2  224.88   30.20
   0  12   2  208.78   36.50
  -1 -12  -2  397.86   37.00
  -1 -12  -2  271.07   40.90
  -1 -12  -2  232.88   36.70
  -2 -12  -2   -2.90   21.80
  -2 -12  -2   -8.70   20.70
  -4 -12  -2  258.37   48.70
   4  12   2  250.97   41.50
  -5 -12  -2   -6.00   35.80
   5  12   2   13.30   31.30
  -6 -12  -2  157.58   50.19
   6  12   2  183.78   41.90
  -7 -12  -2   27.30   45.20
   7  12   2  -21.70   34.70
   8 -13  -2  133.29   43.10
  -8  13   2   93.79   40.90
   7 -13  -2   19.40   31.90
  -7  13   2  -34.70   31.90
   6 -13  -2  257.27   45.70
  -6  13   2  291.77   49.00
   5 -13  -2  185.58   37.60
  -5  13   2   90.79   35.80
   4 -13  -2   75.59   28.60
  -4  13   2   27.40   29.60
   3 -13  -2   31.50   23.50
  -3  13   2   64.09   29.70
   2 -13  -2  325.67   39.10
  -2  13   2  279.27   44.00
   1 -13  -2   52.49   23.50
   0 -13  -2  372.06   41.40
  -1 -13  -2   67.39   23.80
  -2 -13  -2   91.39   26.10
  -3 -13  -2  242.18   47.80
  -4 -13  -2  164.58   45.00
  -5 -13  -2  245.58   54.19
   5  13   2  228.28   43.90
  -6 -13  -2    5.00   44.30
   6  13   2  -11.30   34.50
   7 -14  -2  211.78   45.20
  -7  14   2  215.98   49.90
   6 -14  -2   -2.20   29.30
  -6  14   2   33.00   36.10
   5 -14  -2  195.68   39.30
  -5  14   2  149.79   42.60
   4 -14  -2    2.90   25.60
  -4  14   2   22.70   29.70
   3 -14  -2   -8.60   23.50
  -3  14   2   18.10   31.40
   2 -14  -2    5.50   23.00
  -2  14   2   19.50   31.20
   1 -14  -2  442.16   44.90
  -1  14   2  376.46   51.09
   0 -14  -2  162.98   30.40
  -1 -14  -2  121.79   26.70
  -2 -14  -2  184.38   31.10
  -3 -14  -2   78.29   40.60
  -3 -14  -2   97.69   25.30
  -4 -14  -2  200.58   51.09
  -5 -14  -2   31.90   45.50
   5  14   2  -11.90   33.40
  -6 -14  -2  203.18   57.99
   6  14   2  118.29   44.20
   6 -15  -2  195.48   42.00
  -6  15   2  186.48   46.30
   5 -15  -2   18.90   28.40
  -5  15   2   32.00   33.40
   4 -15  -2    1.40   27.50
  -4  15   2   26.50   31.60
   3 -15  -2   64.99   28.10
  -3  15   2   39.40   31.80
   2 -15  -2   11.90   24.10
  -2  15   2   58.09   34.10
   1 -15  -2  107.89   26.10
  -1  15   2   99.89   36.20
   0 -15  -2  132.19   28.20
  -1 -15  -2   18.50   21.50
  -2 -15  -2    7.50   22.60
  -3 -15  -2  177.38   33.10
  -3 -15  -2  174.88   50.89
  -4 -15  -2  -15.90   42.80
  -4 -15  -2   21.60   25.00
  -5 -15  -2  249.68   59.39
   5 -16  -2   -0.70   30.20
  -5  16   2   48.00   39.40
   4 -16  -2    8.50   29.10
  -4  16   2   68.39   37.80
   3 -16  -2   13.20   25.80
  -3  16   2   18.70   34.50
   2 -16  -2   63.19   28.00
  -2  16   2    6.70   34.50
   1 -16  -2   45.00   24.30
  -1  16   2   21.50   33.60
   0 -16  -2   95.49   28.90
  -1 -16  -2  -35.60   22.90
  -2 -16  -2   55.69   26.70
  -3 -16  -2   -7.40   25.80
  -3 -16  -2   14.80   45.20
  -4 -16  -2  219.98   36.80
  -4 -16  -2  190.88   57.59
   4 -17  -2   20.20   28.10
  -4  17   2   17.10   35.20
   3 -17  -2    9.90   28.20
  -3  17   2  -11.70   35.30
   2 -17  -2   -9.20   26.70
  -2  17   2  -24.80   33.60
   1 -17  -2   -5.20   24.20
  -1  17   2  -36.20   34.80
   0 -17  -2   81.29   28.00
  -1 -17  -2  158.78   35.00
  -2 -17  -2   25.90   27.00
   1 -18  -2   81.59   30.60
  -2 -19   3   83.19   24.40
  -1 -19   3   37.60   22.80
   0 -19   3  222.68   34.90
   1 -19   3  104.89   29.10
  -2  19  -3  132.39   42.50
   2 -19   3   62.19   26.60
  -3  19  -3   54.29   40.80
   3 -19   3   91.99   30.20
  -4  19  -3    4.30   39.00
   4 -19   3  -15.60   27.40
  -3 -18   3  110.79   25.50
   0 -18   3  -36.80   19.30
  -1  18  -3   28.70   38.70
   1 -18   3   40.40   21.80
  -2  18  -3   94.89   39.60
   2 -18   3   82.59   26.70
  -3  18  -3   53.89   40.50
   3 -18   3   37.80   27.60
  -4  18  -3   90.29   39.00
   4 -18   3   65.69   30.00
  -5  18  -3   37.60   37.40
   5 -18   3  110.69   37.80
  -4 -17   3  178.78   54.89
  -4 -17   3   97.79   27.40
  -3 -17   3  203.58   31.30
  -2 -17   3  393.76   37.70
  -2 -17   3  213.08   42.60
  -1 -17   3   25.50   19.60
  -1 -17   3    0.60   28.70
   0 -17   3  188.68   28.70
   0 -17   3  234.88   41.00
  -1  17  -3   12.40   33.30
   1 -17   3  -11.60   22.50
  -2  17  -3  -20.10   32.50
   2 -17   3   -2.30   20.10
  -3  17  -3   72.99   37.00
   3 -17   3   10.20   23.40
  -4  17  -3    2.30   32.30
   4 -17   3    7.60   25.90
  -5  17  -3    2.10   32.30
   5 -17   3   19.60   28.20
  -6  17  -3   26.00   34.30
   6 -17   3  -13.60   29.10
  -5 -16   3   28.30   50.09
  -4 -16   3   74.89   35.60
  -4 -16   3  105.49   25.70
  -4 -16   3  203.58   53.19
  -3 -16   3   82.99   21.60
  -3 -16   3   64.39   28.00
  -2 -16   3   51.89   19.70
  -2 -16   3   23.10   26.80
  -1 -16   3  153.68   23.60
  -1 -16   3  105.69   30.60
   0 -16   3   65.69   20.30
   0 -16   3   80.19   30.40
  -1  16  -3   -8.80   29.70
   1 -16   3   64.79   20.70
   1 -16   3   33.70   25.80
  -2  16  -3   28.00   32.40
   2 -16   3   80.99   23.40
  -3  16  -3   35.20   32.20
   3 -16   3   37.60   24.50
  -4  16  -3   10.90   30.10
   4 -16   3   50.79   27.40
  -5  16  -3  -11.40   31.40
   5 -16   3   22.50   26.10
  -6  16  -3   18.30   32.30
   6 -16   3   32.70   30.30
  -7  16  -3   74.09   40.30
   7 -16   3   30.30   33.80
   6  15  -3  -24.50   30.20
  -6 -15   3  -27.50   44.00
  -5 -15   3  112.39   49.20
  -4 -15   3   85.09   44.50
  -4 -15   3   33.90   25.70
  -3 -15   3  186.68   37.00
  -3 -15   3  245.48   29.00
  -2 -15   3   73.19   17.90
  -2 -15   3   77.89   30.80
  -1 -15   3   63.59   19.20
  -1 -15   3   61.59   27.50
   0 -15   3   92.59   39.30
   0 -15   3   75.59   19.30
  -1  15  -3   83.99   33.20
   1 -15   3   58.69   25.60
   1 -15   3   68.99   20.80
  -2  15  -3   37.00   31.00
  -2  15  -3   33.80   15.70
   2 -15   3   24.00   19.40
  -3  15  -3  210.68   42.00
   3 -15   3  166.98   37.20
  -4  15  -3  -32.70   27.20
   4 -15   3    0.40   22.50
  -5  15  -3   84.09   36.60
   5 -15   3   72.79   28.90
  -6  15  -3   21.70   32.60
   6 -15   3    2.80   28.30
  -7  15  -3  -13.10   33.80
   7 -15   3   18.60   33.10
   7  14  -3   -3.40   33.20
  -7 -14   3    8.60   48.80
   6  14  -3  266.27   46.50
  -6 -14   3  260.07   57.09
   5  14  -3   59.09   28.80
  -5 -14   3    8.90   23.50
  -5 -14   3   58.29   42.50
  -4 -14   3  382.76   55.39
  -4 -14   3  213.68   35.00
  -3 -14   3   55.89   18.10
  -3 -14   3   49.50   23.30
  -2 -14   3   60.69   16.90
  -2 -14   3   38.10   24.10
  -1 -14   3  125.19   28.30
  -1 -14   3  139.29   21.20
   0  14  -3  138.69   33.90
   0 -14   3   69.39   24.80
   0 -14   3   94.39   18.30
  -1  14  -3   73.69   31.20
   1 -14   3  127.89   20.90
  -2  14  -3   49.90   14.00
  -2  14  -3   33.30   27.20
   2 -14   3   45.50   19.10
  -3  14  -3  -29.80   25.80
  -3  14  -3   25.20   14.70
   3 -14   3   34.70   20.70
  -4  14  -3  186.78   40.10
   4 -14   3  215.08   34.80
  -5  14  -3   24.00   30.90
   5 -14   3   29.10   25.60
  -6  14  -3    6.60   29.80
   6 -14   3   57.09   29.80
  -7  14  -3   58.59   37.40
   7 -14   3   83.89   33.60
  -8  14  -3   64.99   39.60
   8 -14   3   70.09   37.50
   7  13  -3  316.77   50.79
  -7 -13   3  354.26   62.99
   6  13  -3    5.40   31.50
  -6 -13   3   88.99   44.60
   5  13  -3  220.98   36.40
  -5 -13   3  153.68   30.90
  -5 -13   3  319.87   52.69
   4  13  -3   30.50   22.80
  -4 -13   3   -0.40   20.90
  -4 -13   3   30.50   36.00
  -3 -13   3  175.48   27.60
  -2 -13   3  160.18   27.70
  -2 -13   3  250.87   25.30
  -1 -13   3   64.29   22.30
  -1 -13   3   69.19   15.70
   0  13  -3  181.28   57.69
   0 -13   3  212.38   24.20
   0 -13   3  233.48   31.00
   1 -13   3  346.47   33.20
  -2  13  -3  228.18   38.30
  -2  13  -3  173.28   23.40
   2 -13   3  193.08   26.50
  -3  13  -3  124.39   31.00
  -3  13  -3  146.79   21.50
   3 -13   3  110.29   25.30
  -4  13  -3   64.49   28.20
  -4  13  -3   10.30   16.50
   4 -13   3   49.20   22.70
  -5  13  -3   26.10   28.40
   5 -13   3  -21.30   22.70
  -6  13  -3   50.39   32.60
   6 -13   3   78.09   30.40
  -7  13  -3  148.29   40.80
   7 -13   3   91.39   35.10
  -8  13  -3  294.57   53.19
   8 -13   3  156.08   45.20
   8  12  -3  326.37   53.19
  -8 -12   3  361.86   67.99
   7  12  -3    4.10   33.40
  -7 -12   3  -33.70   45.10
   6  12  -3  555.94   54.39
  -6 -12   3  453.35   63.59
  -6 -12   3  363.56   47.50
   5  12  -3   11.50   23.90
  -5 -12   3   27.80   36.70
  -5 -12   3  -20.00   20.00
   4  12  -3  173.08   28.90
  -4 -12   3  119.39   39.80
  -4 -12   3  130.89   26.30
  -3 -12   3   39.60   19.40
  -2 -12   3    8.00   17.90
  -2 -12   3   17.20   12.50
  -1 -12   3  597.64   43.70
  -1 -12   3  573.04   49.40
  -1 -12   3  514.05   53.99
   0  12  -3  167.48   32.10
   0 -12   3  109.99   18.00
   0 -12   3  114.09   22.30
   0 -12   3  181.28   29.50
  -1  12  -3  420.96   48.60
   1 -12   3  415.06   45.20
   1 -12   3  430.56   37.10
  -2  12  -3   74.49   24.30
  -2  12  -3   75.49   16.10
   2 -12   3  117.19   26.00
   2 -12   3  146.69   20.80
   3 -12   3    0.60   17.90
  -4  12  -3   27.60   14.20
  -4  12  -3   42.10   25.70
   4 -12   3   39.10   20.80
  -5  12  -3   70.89   30.40
   5 -12   3    2.20   23.20
  -6  12  -3   55.99   31.00
   6 -12   3  116.79   31.50
  -7  12  -3  455.35   59.49
   7 -12   3  476.15   57.89
  -8  12  -3  223.88   49.90
   8 -12   3  216.18   45.80
  -9  12  -3  178.28   50.69
   9 -12   3  209.28   50.89
   8  11  -3   17.60   36.50
  -8 -11   3  -36.60   47.00
   7  11  -3   87.99   33.60
  -7 -11   3  122.19   46.60
   6  11  -3   32.80   30.00
  -6 -11   3   46.80   23.20
  -6 -11   3   63.69   35.90
   5  11  -3   93.09   27.20
  -5 -11   3  151.38   42.70
  -5 -11   3   63.09   23.80
   4  11  -3   13.30   21.40
  -4 -11   3   26.40   17.60
  -4 -11   3   76.49   30.70
   3  11  -3  164.68   24.30
  -3 -11   3  117.79   31.00
  -3 -11   3  133.29   23.40
  -3 -11   3  149.69   35.20
  -2 -11   3  328.37   35.50
  -2 -11   3  323.17   39.30
  -2 -11   3  361.16   29.50
  -1 -11   3  318.57   33.00
  -1 -11   3  313.37   26.70
  -1 -11   3  238.18   35.10
   0  11  -3  749.62   66.79
   0 -11   3  804.12   54.89
   0 -11   3  719.23   64.09
   0 -11   3  750.82   58.59
  -1  11  -3  -21.50   12.70
  -1  11  -3   31.30   22.50
   1 -11   3   59.19   19.90
   1 -11   3   31.60   14.70
  -2  11  -3   78.89   16.30
  -2  11  -3  105.79   27.40
   2 -11   3  101.09   23.30
   2 -11   3  120.09   19.60
  -3  11  -3  439.36   49.00
  -3  11  -3  433.36   36.70
   3 -11   3  391.96   46.00
   3 -11   3  414.56   40.50
  -4  11  -3    7.90   13.60
   4 -11   3   57.49   19.60
  -5  11  -3  101.89   30.40
   5 -11   3  153.28   31.40
  -6  11  -3  191.38   38.10
   6 -11   3  177.68   35.90
  -7  11  -3  108.59   35.40
   7 -11   3  131.39   33.80
  -8  11  -3  108.19   37.90
   8 -11   3  108.89   41.20
  -9  11  -3   96.69   40.50
   9 -11   3   -2.00   35.70
   9  10  -3   59.39   40.80
  -9 -10   3   24.00   50.89
   8  10  -3   61.99   36.10
  -8 -10   3   59.89   44.30
   7  10  -3   37.10   52.39
  -7 -10   3    0.40   40.60
   6  10  -3   79.89   30.10
  -6 -10   3   54.59   22.90
  -6 -10   3  106.89   39.20
   5  10  -3  129.49   29.70
  -5 -10   3  113.59   34.40
  -5 -10   3  177.48   26.30
   4  10  -3  110.69   23.70
  -4 -10   3   56.59   18.80
  -4 -10   3   45.10   29.50
   3  10  -3   16.80   17.00
  -3 -10   3   24.20   24.80
  -3 -10   3    3.70   15.50
  -3 -10   3   18.40   19.60
  -2 -10   3  211.78   31.50
  -2 -10   3  232.38   25.90
  -1 -10   3  118.79   23.00
  -1 -10   3  129.59   16.90
  -1 -10   3   82.59   23.90
   0  10  -3 1525.55  116.79
   0 -10   3 1654.63  107.49
   0 -10   3 1599.04  115.69
   0 -10   3 1651.23  109.89
  -1  10  -3  265.77   36.90
  -1  10  -3  243.88   26.20
   1 -10   3  257.87   34.80
   1 -10   3  267.67   28.50
  -2  10  -3  387.86   43.60
  -2  10  -3  337.67   31.90
   2 -10   3  377.66   34.80
  -3  10  -3    8.10   21.50
  -3  10  -3   36.70   12.70
   3 -10   3   30.40   18.30
   3 -10   3   42.90   17.60
  -4  10  -3  317.27   40.50
  -4  10  -3  323.37   46.50
   4 -10   3  242.18   32.70
   4 -10   3  226.88   35.10
  -5  10  -3   28.80   14.40
  -5  10  -3   48.90   27.40
   5 -10   3   20.50   20.50
  -6  10  -3  267.17   42.90
   6 -10   3  265.67   40.60
  -7  10  -3  199.78   40.70
   7 -10   3  165.68   40.70
  -8  10  -3   50.99   34.30
   8 -10   3   43.80   32.80
  -9  10  -3   62.39   41.20
   9 -10   3   91.59   39.10
   9   9  -3   52.39   36.10
  -9  -9   3  -12.30   42.80
   8   9  -3   13.90   30.80
  -8  -9   3   16.20   39.10
   7   9  -3   43.00   32.60
  -7  -9   3   36.90   36.60
   6   9  -3  202.08   35.60
  -6  -9   3  122.79   27.80
  -6  -9   3  245.38   45.30
   5   9  -3   14.50   22.70
  -5  -9   3   13.10   17.80
  -5  -9   3   -2.10   26.60
   4   9  -3  174.78   25.70
  -4  -9   3  109.29   21.80
  -4  -9   3  156.68   33.20
   3   9  -3   61.89   17.70
  -3  -9   3    6.10   24.00
  -3  -9   3   32.60   14.70
  -2  -9   3  352.26   34.50
  -2  -9   3  373.66   40.90
  -1  -9   3 1436.86   94.29
  -1  -9   3 1351.96  100.49
  -1  -9   3 1338.27   91.39
   0   9  -3  119.09   27.00
   0  -9   3  118.09   26.90
   0  -9   3   28.30   16.90
  -1   9  -3 2651.83  174.08
  -1   9  -3 2604.94  181.08
   1  -9   3 2654.63  180.88
   1  -9   3 2766.72  174.78
  -2   9  -3  108.09   26.40
  -2   9  -3   77.19   15.40
   2  -9   3   91.39   19.30
   2  -9   3  124.29   25.50
  -3   9  -3 2295.07  159.08
  -3   9  -3 2254.27  152.98
   3  -9   3 2299.57  154.88
   3  -9   3 2426.46  164.28
  -4   9  -3  132.69   20.10
  -4   9  -3  153.88   29.20
   4  -9   3  108.79   25.50
   4  -9   3  108.89   23.70
  -5   9  -3  682.73   54.79
  -5   9  -3  733.33   63.29
   5  -9   3  653.53   59.29
  -6   9  -3  -21.20   23.40
   6  -9   3   26.90   24.40
  -7   9  -3   -3.70   30.10
   7  -9   3   31.40   30.20
  -8   9  -3   34.60   32.80
   8  -9   3   17.70   30.80
  -9   9  -3   -3.10   33.00
   9  -9   3    7.60   33.80
 -10   9  -3   60.69   40.70
  10  -9   3   55.29   42.20
   9   8  -3   15.50   36.30
  -9  -8   3  -22.30   41.50
   8   8  -3   46.70   34.00
  -8  -8   3   66.99   42.00
   7   8  -3   15.90   30.00
  -7  -8   3   35.10   28.00
  -7  -8   3    8.10   37.60
   6   8  -3   34.70   24.10
  -6  -8   3   30.00   19.40
  -6  -8   3   52.49   33.80
   5   8  -3  148.59   28.20
  -5  -8   3  144.09   34.60
  -5  -8   3  126.99   22.70
   4   8  -3   62.19   19.60
  -4  -8   3   44.10   17.20
  -4  -8   3   63.29   28.00
   3   8  -3   41.10   16.20
  -3  -8   3   53.39   15.00
  -3  -8   3   13.00   24.80
   2   8  -3   50.99   13.30
  -2  -8   3   14.10   13.40
  -2  -8   3    6.30   17.60
  -1  -8   3  318.77   34.90
  -1  -8   3  299.47   27.80
  -1  -8   3  360.56   31.80
   0   8  -3  182.98   28.00
   0  -8   3  169.48   27.40
   0  -8   3  183.18   18.20
  -1   8  -3  144.09   15.90
  -1   8  -3  119.09   24.40
   1  -8   3  140.49   17.80
   1  -8   3  141.09   23.50
  -2   8  -3 2244.78  149.99
  -2   8  -3 2228.38  144.29
   2  -8   3 2095.39  149.19
   2  -8   3 2191.48  145.19
  -3   8  -3   10.60   19.50
  -3   8  -3   31.00   12.30
   3  -8   3    0.80   16.70
   3  -8   3    8.80   14.60
  -4   8  -3  174.98   30.90
  -4   8  -3  210.38   24.80
   4  -8   3  139.29   36.10
   4  -8   3  226.58   28.20
  -5   8  -3   -9.30   19.40
  -5   8  -3   -9.20   11.80
   5  -8   3  -17.60   17.30
   5  -8   3   19.60   19.00
  -6   8  -3  744.93   68.99
   6  -8   3  801.12   95.49
  -7   8  -3   43.70   27.00
   7  -8   3    4.00   28.40
  -8   8  -3  -25.90   28.60
   8  -8   3   59.69   31.30
  -9   8  -3  -37.40   30.90
   9  -8   3  -17.80   33.00
 -10   8  -3   28.40   36.80
  10  -8   3  -32.20   33.80
  10   7  -3   26.90   41.00
 -10  -7   3   41.40   51.69
   9   7  -3   -8.70   35.50
  -9  -7   3   66.49   48.10
   8   7  -3   -0.30   31.40
  -8  -7   3   40.00   38.80
   7   7  -3   25.30   27.10
  -7  -7   3   12.90   18.70
  -7  -7   3    0.00   32.90
   6   7  -3  111.79   29.10
  -6  -7   3  124.69   33.90
   5   7  -3   -2.90   18.90
  -5  -7   3    7.90   13.50
  -5  -7   3   13.40   23.30
   4   7  -3  117.99   20.50
  -4  -7   3   95.49   27.80
  -4  -7   3   76.79   17.60
   3   7  -3  382.96   34.60
  -3  -7   3  342.07   31.80
  -3  -7   3  370.06   42.50
   2   7  -3  194.68   29.70
  -2  -7   3  141.99   19.30
  -1  -7   3   67.49   12.60
  -1  -7   3    5.60   14.60
   0   7  -3    6.70   15.00
   0  -7   3   40.40   16.80
  -1   7  -3 1885.71  129.29
  -1   7  -3 1920.71  131.79
   1  -7   3 1959.20  131.49
   1  -7   3 1960.30  126.59
  -2   7  -3  233.08   28.30
  -2   7  -3  201.48   21.00
   2  -7   3  226.88   27.20
   2  -7   3  199.48   23.00
  -3   7  -3 3172.48  212.28
  -3   7  -3 3247.88  216.68
   3  -7   3 3436.46  213.78
   3  -7   3 3156.38  216.18
  -4   7  -3   75.99   16.80
  -4   7  -3   81.69   22.80
   4  -7   3   82.19   19.60
   4  -7   3   31.20   19.00
  -5   7  -3  863.11   61.99
  -5   7  -3  753.72   67.19
   5  -7   3  812.12   65.69
   5  -7   3  765.02   66.19
  -6   7  -3  142.29   35.50
  -6   7  -3  126.59   29.80
   6  -7   3  143.59   30.70
  -7   7  -3  156.58   33.50
   7  -7   3  118.19   35.30
  -8   7  -3  200.28   38.90
   8  -7   3  104.59   36.50
  -9   7  -3   61.39   37.00
   9  -7   3   17.60   36.60
 -10   7  -3   63.99   41.00
  10  -7   3   81.59   41.40
  10   6  -3   20.70   41.20
 -10  -6   3  136.79   54.59
   9   6  -3   16.90   33.50
  -9  -6   3  -15.80   39.00
   8   6  -3   -2.10   31.00
  -8  -6   3   12.40   33.40
   7   6  -3    7.40   28.20
  -7  -6   3  -28.10   33.50
  -7  -6   3  -21.70   17.40
   6   6  -3   67.39   26.60
  -6  -6   3   15.90   18.80
   5   6  -3   -4.10   22.70
   5   6  -3    9.60   20.80
  -5  -6   3   -5.60   25.80
  -5  -6   3   19.10   16.60
   4   6  -3  359.56   35.90
  -4  -6   3  332.57   32.40
  -4  -6   3  299.67   38.80
   3   6  -3  346.07   31.00
  -3  -6   3  270.17   28.40
  -3  -6   3  272.57   37.40
   2   6  -3   83.39   14.30
  -2  -6   3   73.99   12.90
  -1  -6   3 1402.66   98.69
  -1  -6   3 1446.16   93.89
   0   6  -3  772.92   60.59
   0   6  -3  811.22   52.99
   0  -6   3  802.92   60.59
   0  -6   3  794.32   53.19
  -1   6  -3  376.96   34.90
  -1   6  -3  282.47   24.00
   1  -6   3  320.77   32.10
   1  -6   3  285.57   25.60
  -2   6  -3  690.53   54.29
  -2   6  -3  657.13   48.90
   2  -6   3  698.73   50.29
   2  -6   3  710.33   53.89
  -3   6  -3  367.76   35.60
  -3   6  -3  446.46   41.40
   3  -6   3  452.25   38.80
   3  -6   3  475.95   41.00
  -4   6  -3 1244.68   87.49
  -4   6  -3 1148.79   82.59
   4  -6   3 1123.39   85.99
   4  -6   3 1175.98   84.99
  -5   6  -3  221.18   34.90
   5  -6   3  212.78   31.50
   5  -6   3  205.28   34.90
  -6   6  -3  380.66   45.50
  -6   6  -3  310.57   37.30
   6  -6   3  352.86   42.50
   6  -6   3  374.66   42.90
  -7   6  -3  308.27   45.50
   7  -6   3  341.87   46.40
  -8   6  -3  165.68   39.80
   8  -6   3  188.68   42.50
  -9   6  -3   16.80   34.70
   9  -6   3  -20.60   32.10
 -10   6  -3   39.00   36.70
  10  -6   3  -14.50   34.50
  10   5  -3    6.20   37.00
 -10  -5   3  -12.40   43.10
   9   5  -3   15.70   35.70
  -9  -5   3   44.60   41.50
   8   5  -3   22.80   33.20
  -8  -5   3   50.59   38.10
   7   5  -3  -14.60   26.30
  -7  -5   3    0.90   16.70
  -7  -5   3   35.10   33.50
   6   5  -3    3.20   23.10
  -6  -5   3   -4.80   16.20
  -6  -5   3    5.80   27.40
   5   5  -3 1062.09   78.49
   5   5  -3  950.20   80.39
  -5  -5   3 1062.69   74.99
  -5  -5   3 1024.20   83.69
   4   5  -3  884.71   69.19
   4   5  -3  837.12   63.79
  -4  -5   3  834.62   61.99
  -4  -5   3  790.72   70.39
   3   5  -3   52.69   14.30
  -3  -5   3   49.70   20.30
  -3  -5   3   16.40   10.80
   2   5  -3 1028.40   69.39
  -2  -5   3 1024.10   75.49
  -2  -5   3 1007.70   68.69
   1   5  -3 1262.17   84.79
  -1  -5   3 1312.77   90.59
  -1  -5   3 1334.37   85.09
   0   5  -3  273.57   20.40
   0   5  -3  324.07   30.30
   0  -5   3  271.07   29.90
   0  -5   3  276.77   20.80
  -1   5  -3  371.36   35.00
  -1   5  -3  377.96   27.90
   1  -5   3  356.96   34.50
   1  -5   3  357.16   28.30
  -2   5  -3   61.39   16.50
  -2   5  -3   80.09   12.60
   2  -5   3   63.19   14.10
   2  -5   3   86.79   16.50
  -3   5  -3  855.31   61.79
  -3   5  -3  868.71   65.49
   3  -5   3  887.21   64.39
   3  -5   3  829.62   63.29
  -4   5  -3 2309.97  160.58
  -4   5  -3 2335.57  157.68
   4  -5   3 2328.07  160.38
   4  -5   3 2495.05  159.98
  -5   5  -3  349.87   36.40
  -5   5  -3  327.77   40.30
   5  -5   3  301.17   38.90
   5  -5   3  418.06   41.80
  -6   5  -3  125.29   23.20
  -6   5  -3  139.29   29.50
   6  -5   3  162.48   30.20
   6  -5   3  150.28   29.60
  -7   5  -3  137.69   33.20
   7  -5   3  102.09   31.30
  -8   5  -3  491.45   58.49
   8  -5   3  451.95   58.99
  -9   5  -3    5.10   34.60
   9  -5   3   26.90   33.80
 -10   5  -3   -1.70   41.00
  10  -5   3   51.49   40.00
  10   4  -3   70.49   42.00
 -10  -4   3   91.59   50.19
   9   4  -3   36.10   35.00
  -9  -4   3   35.60   41.50
   8   4  -3   79.69   32.50
  -8  -4   3   10.80   38.20
   7   4  -3   15.00   26.10
  -7  -4   3   -2.50   18.50
  -7  -4   3   20.10   29.90
   6   4  -3  291.47   40.10
   6   4  -3  315.67   38.40
  -6  -4   3  282.57   43.90
  -6  -4   3  257.17   32.80
   5   4  -3  876.51   63.19
  -5  -4   3  722.23   68.69
  -5  -4   3  742.93   59.29
   4   4  -3 1258.97   83.89
   4   4  -3 1085.39   87.79
  -4  -4   3 1094.59   90.19
  -4  -4   3 1228.08   81.99
   3   4  -3  993.70   72.19
   3   4  -3  987.40   68.19
  -3  -4   3 1003.40   73.49
  -3  -4   3  901.81   66.99
   2   4  -3 1192.38   78.29
  -2  -4   3 1190.28   83.09
  -2  -4   3 1123.19   77.39
   1   4  -3  881.31   58.99
  -1  -4   3  914.21   58.79
   0   4  -3  153.48   12.90
   0   4  -3  270.27   24.10
   0  -4   3  163.38   13.50
  -1   4  -3 1552.14  105.49
  -1   4  -3 1537.55  101.99
   1  -4   3 1600.34  102.39
  -2   4  -3  186.48   20.40
  -2   4  -3  158.68   21.50
   2  -4   3  161.18   21.50
   2  -4   3  195.38   21.40
  -3   4  -3  806.32   59.39
  -3   4  -3  748.83   56.49
   3  -4   3  814.02   58.49
   3  -4   3  739.53   58.39
  -4   4  -3   75.99   19.70
  -4   4  -3   31.50   15.60
   4  -4   3   72.79   19.60
   4  -4   3   36.90   18.20
  -5   4  -3  299.37   34.00
  -5   4  -3  307.67   36.60
   5  -4   3  315.77   37.10
   5  -4   3  296.47   35.70
  -6   4  -3   77.09   25.10
  -6   4  -3   50.99   19.40
   6  -4   3   77.19   26.80
   6  -4   3   29.70   22.00
  -7   4  -3  559.44   64.19
   7  -4   3  535.55   58.39
  -8   4  -3  497.05   60.09
   8  -4   3  468.15   58.99
  -9   4  -3  130.79   44.60
   9  -4   3   24.30   36.10
 -10   4  -3  205.68   51.09
  10  -4   3  212.68   51.49
  10   3  -3  -10.10   35.10
 -10  -3   3    1.00   43.70
   9   3  -3  101.09   38.70
  -9  -3   3   90.09   43.80
   8   3  -3   54.89   33.30
  -8  -3   3   51.69   37.50
   7   3  -3  368.66   43.20
  -7  -3   3  270.37   33.30
  -7  -3   3  215.58   43.60
   6   3  -3  438.16   43.10
   6   3  -3  304.77   42.70
  -6  -3   3  370.06   47.10
  -6  -3   3  369.26   39.10
   5   3  -3  224.48   34.60
   5   3  -3  205.18   29.00
  -5  -3   3  179.78   35.10
  -5  -3   3  251.97   27.40
   4   3  -3  634.24   50.89
   4   3  -3  649.14   55.29
  -4  -3   3  638.14   48.30
  -4  -3   3  617.04   56.99
   3   3  -3  517.95   40.80
   3   3  -3  485.15   45.10
  -3  -3   3  489.45   38.70
  -3  -3   3  589.84   47.10
   2   3  -3 1279.97   85.99
   2   3  -3 1351.26   90.19
  -2  -3   3 1314.37   90.79
  -2  -3   3 1251.17   85.19
  -1  -3   3   66.69    7.50
   0   3  -3  467.85   37.30
   0  -3   3  513.85   33.10
   0  -3   3  485.35   37.40
  -1   3  -3  405.16   33.80
  -1   3  -3  441.86   31.60
   1  -3   3  422.86   33.90
   1  -3   3  413.36   32.20
  -2   3  -3  286.27   29.90
  -3   3  -3  287.87   30.00
  -3   3  -3  233.88   26.90
   3  -3   3  274.47   30.20
   3  -3   3  291.67   30.40
  -4   3  -3  140.59   21.90
  -4   3  -3  134.99   23.60
   4  -3   3  128.09   22.80
   4  -3   3  200.58   27.70
  -5   3  -3  -14.80   17.00
  -5   3  -3   43.10   17.40
   5  -3   3   -5.40   17.90
   5  -3   3   32.20   22.20
  -6   3  -3  337.87   43.40
  -6   3  -3  338.17   38.80
   6  -3   3  399.26   44.50
   6  -3   3  383.36   44.00
   7  -3   3  324.27   44.50
  -8   3  -3  110.19   37.60
   8  -3   3  100.79   36.00
  -9   3  -3  171.88   46.90
   9  -3   3  186.88   41.70
 -10   3  -3   24.10   43.10
  10  -3   3   10.80   36.70
  10   2  -3   63.59   37.30
 -10  -2   3  100.59   49.10
   9   2  -3  -20.50   31.40
  -9  -2   3   84.79   40.30
   8   2  -3  253.07   41.00
  -8  -2   3  184.18   43.50
   7   2  -3  401.96   46.30
  -7  -2   3  380.26   41.00
  -7  -2   3  416.36   53.09
   6   2  -3  352.46   46.80
   6   2  -3  504.85   46.00
  -6  -2   3  440.26   49.20
  -6  -2   3  401.46   47.60
   5   2  -3  405.36   45.60
   5   2  -3  446.56   41.80
  -5  -2   3  444.16   38.30
  -5  -2   3  449.36   49.10
   4   2  -3  254.37   32.00
   4   2  -3  286.37   30.30
  -4  -2   3  250.67   26.90
  -4  -2   3  311.37   36.10
   3   2  -3  145.29   19.00
   3   2  -3  137.39   22.80
  -3  -2   3  150.68   17.40
  -3  -2   3  133.09   24.60
   2   2  -3  518.75   44.00
  -2  -2   3  543.75   44.30
   1   2  -3 2985.50  196.38
  -1  -2   3 3084.99  196.38
  -1  -2   3 3149.28  198.98
   0   2  -3   48.80    7.50
   0   2  -3   37.70    9.00
   0  -2   3   32.50    8.00
   0  -2   3   38.60    7.30
  -1   2  -3 1371.06   89.39
  -1   2  -3 1333.57   89.59
   1  -2   3 1352.66   89.29
  -2   2  -3  984.00   87.89
  -2   2  -3 1217.78   83.19
   2  -2   3 1186.68   81.19
   2  -2   3 1231.78   80.09
  -3   2  -3   34.00   15.10
  -3   2  -3   27.40   14.30
   3  -2   3   14.80   13.70
   3  -2   3   18.10   17.60
  -4   2  -3   39.50   17.90
  -4   2  -3   37.10   16.60
   4  -2   3   19.30   15.80
   4  -2   3   32.30   20.00
  -5   2  -3   73.39   17.80
  -5   2  -3   46.70   21.60
   5  -2   3   84.59   24.80
   5  -2   3    9.60   20.90
  -6   2  -3  304.97   42.30
  -6   2  -3  324.97   37.50
   6  -2   3  344.47   42.20
   6  -2   3  317.77   40.60
  -7   2  -3   91.39   36.20
   7  -2   3  149.59   35.20
  -8   2  -3  629.44   68.29
   8  -2   3  495.55   61.19
  -9   2  -3   50.89   41.20
   9  -2   3   65.89   36.50
 -10   2  -3  483.05   73.49
  10  -2   3  308.47   59.09
  10   1  -3    9.20   37.80
 -10  -1   3   35.00   49.30
   9   1  -3  391.86   50.69
  -9  -1   3  192.68   51.19
   8   1  -3  153.58   37.30
  -8  -1   3  100.99   38.00
   7   1  -3  236.48   36.80
  -7  -1   3  241.68   32.60
  -7  -1   3  257.67   41.60
   6   1  -3    5.80   22.20
   6   1  -3   65.79   21.50
  -6  -1   3   44.80   29.80
  -6  -1   3   37.00   25.30
   5   1  -3  603.24   56.79
   5   1  -3  658.53   53.99
  -5  -1   3  731.63   52.19
  -5  -1   3  618.74   58.89
   4   1  -3   33.00   15.30
   4   1  -3   64.39   20.00
  -4  -1   3   69.09   14.30
  -4  -1   3   35.20   20.20
   3   1  -3  177.98   20.10
   3   1  -3  188.28   24.10
  -3  -1   3  172.38   19.70
  -3  -1   3  193.78   25.40
   2   1  -3 2147.69  134.79
   2   1  -3 1952.70  146.49
  -2  -1   3 2000.30  134.29
  -2  -1   3 2122.99  137.79
   1   1  -3  502.25   36.90
   1   1  -3  501.15   34.00
  -1  -1   3  515.95   36.80
  -1  -1   3  465.45   33.90
   0   1  -3  148.29   14.50
   0  -1   3  153.78   14.50
  -1   1  -3  990.90   65.49
  -1   1  -3 1000.50   67.39
   1  -1   3  990.60   67.79
   1  -1   3  987.10   65.49
  -2   1  -3 3514.15  226.08
  -2   1  -3 3533.05  227.38
   2  -1   3 3483.15  227.68
   2  -1   3 3453.95  226.18
  -3   1  -3  431.06   38.30
  -3   1  -3  454.25   39.20
   3  -1   3  450.95   38.00
   3  -1   3  418.76   40.90
  -4   1  -3   80.39   18.00
  -4   1  -3  123.19   22.20
   4  -1   3   56.29   21.00
   4  -1   3   65.29   19.80
  -5   1  -3  356.96   40.20
  -5   1  -3  388.36   43.60
   5  -1   3  410.96   41.90
   5  -1   3  442.26   44.30
  -6   1  -3   -5.70   16.90
  -6   1  -3   -1.30   23.90
   6  -1   3    7.10   23.80
   6  -1   3   -7.70   28.40
  -7   1  -3  218.78   41.60
   7  -1   3  252.17   40.20
  -8   1  -3  -18.30   36.40
   8  -1   3   34.90   33.10
  -9   1  -3  463.95   64.79
   9  -1   3  423.36   60.09
 -10   1  -3  138.89   52.89
  10  -1   3   66.19   42.30
  10   0  -3  164.08   44.80
 -10   0   3  182.78   54.59
   9   0  -3  106.19   36.40
  -9   0   3   97.99   44.60
   8   0  -3  675.63   68.79
  -8   0   3  760.92   75.69
   7   0  -3  218.88   35.10
  -7   0   3  199.58   38.70
   6   0  -3  420.36   45.40
   6   0  -3  432.76   44.20
  -6   0   3  334.47   45.20
  -6   0   3  438.66   39.00
   5   0  -3    7.30   15.90
   5   0  -3   13.30   18.90
  -5   0   3   17.80   13.00
  -5   0   3   18.30   22.70
   4   0  -3   65.39   17.30
   4   0  -3   84.49   20.70
  -4   0   3   65.39   21.30
  -4   0   3   67.69   15.30
   3   0  -3  186.98   22.30
   3   0  -3  256.97   27.80
  -3   0   3  219.28   27.40
  -3   0   3  182.98   21.30
   2   0  -3  286.87   33.40
   2   0  -3  374.96   28.00
  -2   0   3  371.16   33.10
  -2   0   3  237.08   27.70
   1   0  -3 1917.21  125.29
   1   0  -3 1945.01  126.19
  -1   0   3 1921.01  125.19
  -1   0   3 1956.10  126.09
   0   0  -3  570.74   40.20
   0   0   3  560.44   40.30
  -1   0  -3 1254.47   82.09
  -1   0  -3 1287.57   85.29
   1   0   3 1242.08   82.29
   1   0   3 1282.77   85.49
  -2   0  -3  667.93   51.59
  -2   0  -3  679.33   48.70
   2   0   3  661.63   49.30
   2   0   3  674.53   52.39
  -3   0  -3   83.09   18.90
  -3   0  -3  101.59   17.50
   3   0   3  123.29   21.50
   3   0   3   79.09   18.80
  -4   0  -3  108.79   20.20
  -4   0  -3   75.49   19.90
   4   0   3   68.09   20.20
   4   0   3   94.19   23.50
  -5   0  -3   80.59   24.50
  -5   0  -3   77.49   19.80
   5   0   3   19.00   21.30
   5   0   3   23.80   23.60
  -6   0  -3  314.57   40.40
  -6   0  -3  309.07   36.50
   6   0   3  273.17   40.60
   6   0   3  303.97   46.40
  -7   0  -3   20.40   30.80
   7   0   3   57.19   44.10
   7   0   3   50.39   32.40
  -8   0  -3  329.57   55.59
   8   0   3  358.56   50.99
  -9   0  -3   21.20   43.50
   9   0   3   33.40   36.20
 -10   0  -3  155.88   54.99
  10   0   3  150.18   48.30
  10  -1  -3    8.70   37.00
 -10   1   3  -21.10   37.50
   9  -1  -3  554.64   68.99
  -9   1   3  770.42   77.69
   8  -1  -3  145.09   36.40
  -8   1   3  220.18   45.20
   7  -1  -3  366.96   69.19
  -7   1   3  389.66   49.99
   6  -1  -3   49.40   23.20
   6  -1  -3   74.29   22.50
  -6   1   3   65.79   17.40
  -6   1   3   43.00   24.70
   5  -1  -3  361.26   41.20
   5  -1  -3  402.66   39.40
  -5   1   3  404.96   44.40
  -5   1   3  396.46   36.10
   4  -1  -3  214.68   29.70
   4  -1  -3  286.07   29.30
  -4   1   3  220.88   31.00
  -4   1   3  238.68   25.70
   3  -1  -3  128.79   21.30
   3  -1  -3  121.49   17.80
  -3   1   3  109.89   16.20
  -3   1   3   93.29   20.10
   2  -1  -3  217.58   23.60
  -2   1   3  217.28   22.90
  -2   1   3  261.97   26.50
   1  -1  -3 1736.93  109.49
  -1   1   3 1546.85  108.89
  -1   1   3 1718.63  109.59
   0  -1  -3  158.98   12.70
   0  -1  -3  195.18   19.10
   0   1   3  117.29   13.10
   0   1   3  178.38   18.30
  -1  -1  -3 1232.88   97.69
  -1  -1  -3 1374.46   86.69
   1   1   3 1303.57   89.89
  -2  -1  -3  207.18   25.40
  -2  -1  -3  239.88   25.00
   2   1   3  202.08   26.10
   2   1   3  224.98   24.30
  -3  -1  -3   67.89   18.40
  -3  -1  -3   99.59   17.60
   3   1   3   43.40   16.30
   3   1   3   91.89   21.10
  -4  -1  -3  676.03   55.99
  -4  -1  -3  674.93   56.99
   4   1   3  722.73   56.69
   4   1   3  726.13   59.09
  -5  -1  -3  429.06   44.70
  -5  -1  -3  434.96   42.00
   5   1   3  433.16   45.90
   5   1   3  336.87   41.70
  -6  -1  -3  150.68   30.30
  -6  -1  -3  122.59   25.80
   6   1   3  131.89   33.60
   6   1   3  158.58   31.10
  -7  -1  -3   19.20   30.20
   7   1   3   19.90   29.60
  -8  -1  -3  147.49   45.70
   8   1   3  146.69   40.70
  -9  -1  -3  179.18   49.60
   9   1   3  273.27   49.10
 -10  -1  -3   -9.00   46.10
  10   1   3   13.70   39.40
  10  -2  -3  424.16   60.79
 -10   2   3  392.26   64.09
   9  -2  -3    9.80   32.60
  -9   2   3    7.80   38.40
   8  -2  -3  693.93   65.59
  -8   2   3  578.14   70.99
   7  -2  -3  -25.70   21.90
  -7   2   3  -14.30   26.30
   6  -2  -3  168.78   28.00
   6  -2  -3  164.18   30.50
  -6   2   3  125.09   22.20
  -6   2   3   83.99   29.20
   5  -2  -3  199.88   31.50
   5  -2  -3  161.78   26.40
  -5   2   3  197.98   32.70
  -5   2   3  190.38   24.60
   4  -2  -3   48.90   19.40
   4  -2  -3   40.00   17.30
  -4   2   3   17.20   12.50
  -4   2   3   51.19   20.90
   3  -2  -3  382.26   35.60
   3  -2  -3  389.36   36.90
  -3   2   3  411.86   33.80
  -3   2   3  453.75   39.20
   2  -2  -3   30.80   11.20
   1  -2  -3  632.24   45.80
   1  -2  -3  636.04   46.00
  -1   2   3  683.03   46.60
  -1   2   3  614.04   45.80
   0  -2  -3  216.78   20.40
   0  -2  -3  305.37   31.10
   0   2   3  210.18   20.90
  -1  -2  -3  236.18   23.90
  -1  -2  -3  299.37   29.20
   1   2   3  260.27   28.90
  -2  -2  -3 6173.68  377.16
  -2  -2  -3 5634.94  378.66
   2   2   3 5789.22  378.86
   2   2   3 5834.12  376.56
  -3  -2  -3  703.53   57.49
  -3  -2  -3  800.62   56.89
   3   2   3  742.63   56.29
   3   2   3  702.93   58.49
  -4  -2  -3  114.19   21.00
  -4  -2  -3   64.29   23.20
   4   2   3   43.60   20.50
   4   2   3   83.19   24.40
  -5  -2  -3  135.19   42.20
  -5  -2  -3  100.69   28.50
   5   2   3  140.49   27.00
   5   2   3  169.38   29.10
  -6  -2  -3   68.19   21.20
  -6  -2  -3   99.59   30.70
   6   2   3   40.20   26.40
   6   2   3   84.49   29.00
  -7  -2  -3  197.98   41.90
   7   2   3  225.28   41.00
  -8  -2  -3   82.09   40.10
   8   2   3   55.49   36.40
  -9  -2  -3    9.00   37.70
   9   2   3  -52.99   32.60
 -10  -2  -3   13.40   49.00
  10   2   3   22.10   40.70
  10  -3  -3   60.39   39.40
 -10   3   3   66.59   46.40
   9  -3  -3  276.67   46.40
  -9   3   3  249.48   51.29
   8  -3  -3   65.29   33.10
  -8   3   3   87.89   37.20
   7  -3  -3    9.90   22.30
  -7   3   3  -23.30   27.20
   6  -3  -3  300.87   37.90
   6  -3  -3  326.97   41.80
  -6   3   3  308.47   33.70
  -6   3   3  393.26   46.30
   5  -3  -3   35.60   22.20
   5  -3  -3   46.90   20.30
  -5   3   3   44.30   18.20
  -5   3   3   61.49   23.70
   4  -3  -3  833.72   63.19
   4  -3  -3  729.33   63.69
  -4   3   3  839.82   65.89
  -4   3   3  884.81   60.89
   3  -3  -3  184.88   22.30
   3  -3  -3  143.69   24.20
  -3   3   3  120.09   22.60
  -3   3   3  158.38   19.60
   2  -3  -3    5.50   11.30
   2  -3  -3  -37.70   12.70
  -2   3   3   12.20   13.80
  -2   3   3   -7.20   10.10
   1  -3  -3   21.60   10.20
   1  -3  -3   26.60   10.30
  -1   3   3   37.60   11.00
  -1   3   3   28.80   11.80
   0  -3  -3   16.20   15.50
   0  -3  -3   26.60   10.20
   0  -3  -3   39.40   10.30
   0   3   3   30.90   10.60
  -1  -3  -3   88.89   18.00
  -1  -3  -3   28.90   11.40
   1   3   3   43.20   16.20
  -2  -3  -3   -0.80   14.90
  -2  -3  -3   14.50   11.40
   2   3   3    8.60   16.30
  -3  -3  -3  328.17   36.90
  -3  -3  -3  371.66   37.50
   3   3   3  371.56   35.50
   3   3   3  372.06   39.10
  -4  -3  -3 1263.67   95.29
  -4  -3  -3 1381.06   96.59
   4   3   3 1333.57   94.99
   4   3   3 1337.07   97.49
  -5  -3  -3  178.78   32.90
  -5  -3  -3  213.48   30.00
   5   3   3  147.49   29.70
   5   3   3  212.48   34.90
  -6  -3  -3  572.44   58.39
  -6  -3  -3  597.04   55.09
   6   3   3  508.55   56.49
   6   3   3  564.24   58.39
  -7  -3  -3  -48.10   41.10
   7   3   3    2.10   30.30
  -8  -3  -3  102.69   42.70
   8   3   3  198.98   41.50
  -9  -3  -3    8.20   41.80
   9   3   3   19.20   37.20
 -10  -3  -3  -28.70   47.20
  10   3   3   41.40   42.60
  10  -4  -3  120.09   42.60
 -10   4   3  158.68   50.79
   9  -4  -3  -30.80   29.00
  -9   4   3   13.20   36.10
   8  -4  -3  127.79   36.70
  -8   4   3  179.58   43.00
   7  -4  -3  638.74   64.39
  -7   4   3  759.12   69.29
   6  -4  -3   88.59   25.10
   6  -4  -3   79.19   25.20
  -6   4   3   91.39   20.30
  -6   4   3   97.39   29.80
   5  -4  -3  564.04   51.29
  -5   4   3  542.85   45.40
  -5   4   3  503.35   52.29
   4  -4  -3   16.80   15.20
   4  -4  -3  -17.20   17.50
  -4   4   3   29.90   12.50
  -4   4   3  -20.00   16.50
   3  -4  -3  775.32   62.69
   3  -4  -3  811.72   61.99
  -3   4   3  874.01   64.19
  -3   4   3  856.11   60.29
   2  -4  -3   14.40   13.30
   2  -4  -3   34.60   12.90
  -2   4   3   57.29   15.90
  -2   4   3   33.00   11.30
   1  -4  -3   71.09   16.30
   1  -4  -3   61.09   14.20
  -1   4   3   97.19   15.90
  -1   4   3   73.19   13.80
   0  -4  -3 1767.82  114.59
   0  -4  -3 1644.14  110.99
   0  -4  -3 1694.63  111.89
   0   4   3 1615.84  112.39
  -1  -4  -3  383.66   37.00
  -1  -4  -3  386.36   32.40
   1   4   3  382.16   36.90
  -2  -4  -3  727.83   59.19
  -2  -4  -3  760.42   57.19
   2   4   3  816.12   60.29
  -3  -4  -3  -41.80   15.10
  -3  -4  -3    3.20   18.00
   3   4   3   20.80   19.50
  -4  -4  -3   75.49   23.40
  -4  -4  -3   56.99   21.70
   4   4   3   60.39   20.90
   4   4   3   91.29   24.60
  -5  -4  -3  142.49   27.70
  -5  -4  -3  195.88   34.10
   5   4   3  186.98   30.20
   5   4   3  198.18   35.90
  -6  -4  -3  -20.80   26.30
   6   4   3   35.70   28.50
   6   4   3   15.60   24.50
  -7  -4  -3   18.10   37.70
   7   4   3   22.30   31.90
  -8  -4  -3   11.20   34.60
   8   4   3   42.40   37.00
  -9  -4  -3   56.19   44.40
   9   4   3  -26.40   35.70
 -10  -4  -3   29.50   46.70
  10   4   3  -22.30   38.10
  10  -5  -3   95.39   39.80
 -10   5   3   72.69   41.00
   9  -5  -3  -26.70   32.00
  -9   5   3   16.30   36.10
   8  -5  -3   79.89   32.70
  -8   5   3   82.09   36.60
   7  -5  -3   99.89   31.00
  -7   5   3  124.49   34.20
  -6   5   3  168.38   32.60
   5  -5  -3  732.13   61.89
   5  -5  -3  730.13   62.19
  -5   5   3  714.43   57.79
  -5   5   3  751.52   63.99
   4  -5  -3   94.39   24.70
   4  -5  -3   99.09   22.80
  -4   5   3  119.59   26.00
  -4   5   3  108.39   18.80
   3  -5  -3 1077.09   77.19
   3  -5  -3 1021.70   77.79
  -3   5   3 1096.29   75.39
  -3   5   3 1054.79   78.79
   2  -5  -3   -3.40   11.10
   2  -5  -3  -10.00   12.70
  -2   5   3    6.10   15.30
  -2   5   3   -7.90   10.90
   1  -5  -3  427.66   35.00
   1  -5  -3  409.66   35.10
  -1   5   3  416.16   33.70
  -1   5   3  413.66   37.10
   0  -5  -3  185.18   26.50
   0  -5  -3  216.08   22.40
   0  -5  -3  205.38   22.50
   0   5   3  192.08   23.50
  -1  -5  -3 1702.03  113.59
  -1  -5  -3 1698.53  116.09
   1   5   3 1641.44  115.19
  -2  -5  -3  410.36   38.50
  -2  -5  -3  357.56   39.00
   2   5   3  392.56   39.30
  -3  -5  -3  471.45   47.00
  -3  -5  -3  523.35   48.20
   3   5   3  541.35   49.00
  -4  -5  -3    8.70   22.60
  -4  -5  -3   26.00   20.60
   4   5   3   39.20   24.40
  -5  -5  -3   47.80   21.60
  -5  -5  -3   32.90   24.90
   5   5   3   58.89   25.90
   5   5   3   63.09   24.40
  -6  -5  -3  -32.10   27.00
   6   5   3   19.20   25.60
   6   5   3   10.10   39.30
  -7  -5  -3   -4.80   35.10
   7   5   3   -4.80   35.30
  -8  -5  -3   45.00   40.40
   8   5   3  -18.00   35.00
  -9  -5  -3   43.40   43.20
   9   5   3   -6.00   37.50
  10  -6  -3  -40.80   36.00
 -10   6   3   40.10   41.10
   9  -6  -3   50.29   35.50
  -9   6   3  -11.40   36.80
   8  -6  -3  222.68   43.50
  -8   6   3  181.48   41.70
   7  -6  -3  282.67   42.20
  -7   6   3  221.08   43.70
   6  -6  -3  416.16   48.70
   5  -6  -3  310.57   37.20
   5  -6  -3  238.58   36.00
  -5   6   3  250.47   30.30
  -5   6   3  297.37   39.40
   4  -6  -3  410.36   41.90
   4  -6  -3  401.16   44.90
  -4   6   3  422.76   46.40
  -4   6   3  408.36   37.80
   3  -6  -3  210.98   29.00
   3  -6  -3  248.08   30.20
  -3   6   3  235.38   26.50
  -3   6   3  213.08   31.40
   2  -6  -3 1251.17   89.89
   2  -6  -3 1268.67   90.89
  -2   6   3 1326.07   89.19
  -2   6   3 1309.87   91.79
   1  -6  -3   82.09   17.20
   1  -6  -3   77.89   15.90
  -1   6   3   56.29   18.00
  -1   6   3   75.49   15.10
   0  -6  -3   95.79   23.10
   0  -6  -3  128.89   18.60
   0  -6  -3  119.99   18.70
   0   6   3  108.59   19.60
  -1  -6  -3    2.90   13.50
  -1  -6  -3  -43.70   19.00
   1   6   3  -33.40   18.30
  -2  -6  -3 1324.87   93.19
  -2  -6  -3 1332.77   96.39
   2   6   3 1297.47   95.49
  -3  -6  -3   14.70   26.50
  -3  -6  -3   18.10   21.20
   3   6   3   72.49   24.10
  -4  -6  -3  512.25   48.50
  -4  -6  -3  372.26   45.00
   4   6   3  413.66   46.60
  -5  -6  -3   -5.00   26.80
  -5  -6  -3   14.00   22.70
   5   6   3   10.00   25.70
  -6  -6  -3  -14.50   28.10
   6   6   3  -36.40   27.80
  -7  -6  -3  112.79   39.30
   7   6   3  108.99   38.00
  -8  -6  -3   15.10   38.90
   8   6   3  -40.90   32.50
  -9  -6  -3   86.99   45.70
   9   6   3  -10.30   40.00
  10  -7  -3  -36.20   38.70
 -10   7   3   48.70   38.00
   9  -7  -3  -12.30   30.80
  -9   7   3  -40.50   32.30
   8  -7  -3  -21.70   27.30
  -8   7   3   15.30   31.20
   7  -7  -3   13.60   28.00
  -7   7   3   58.29   32.80
   6  -7  -3   18.40   24.80
  -6   7   3   -6.40   24.70
   5  -7  -3  932.91   79.79
   5  -7  -3 1062.09   81.99
  -5   7   3 1054.59   81.99
   4  -7  -3   27.40   17.80
   4  -7  -3  -56.19   33.20
  -4   7   3  -26.00   22.30
  -4   7   3   11.90   12.30
   3  -7  -3  827.62   65.09
   3  -7  -3  826.82   64.59
  -3   7   3  862.01   66.29
  -3   7   3  806.62   67.19
   2  -7  -3  211.68   28.40
   2  -7  -3  239.88   29.30
  -2   7   3  254.27   28.10
  -2   7   3  208.08   29.50
   1  -7  -3  369.86   33.90
   1  -7  -3  347.27   34.50
  -1   7   3  372.96   37.70
   0  -7  -3  -28.40   13.70
   0  -7  -3  -16.70   18.50
   0  -7  -3   19.10   14.40
   0   7   3   12.20   15.70
  -1  -7  -3  455.95   46.60
  -1  -7  -3  475.55   45.40
  -2  -7  -3  283.37   37.10
  -2  -7  -3  327.17   33.70
   2   7   3  231.48   35.70
  -3  -7  -3  456.95   48.20
  -3  -7  -3  376.26   43.60
   3   7   3  440.16   45.60
  -4  -7  -3  574.04   56.39
  -4  -7  -3  482.65   53.09
   4   7   3  563.24   55.79
  -5  -7  -3   -8.30   26.10
   5   7   3   -7.90   24.30
  -6  -7  -3  207.28   43.80
   6   7   3  224.18   42.90
  -7  -7  -3  -43.00   33.70
   7   7   3    2.80   33.10
  -8  -7  -3  -17.50   38.90
   8   7   3  -81.49   33.40
  -9  -7  -3   33.00   46.00
   9   7   3   27.60   43.10
   9  -8  -3   18.70   34.80
  -9   8   3  -16.90   32.80
   8  -8  -3  -10.80   27.80
  -8   8   3   -1.50   30.80
   7  -8  -3  -26.90   24.60
  -7   8   3   40.10   31.50
   6  -8  -3  526.35   55.39
  -6   8   3  477.55   57.89
   5  -8  -3  204.88   33.50
   5  -8  -3  170.78   42.20
  -5   8   3  161.28   34.20
   4  -8  -3  324.87   39.50
   4  -8  -3  264.97   36.60
  -4   8   3  296.27   33.30
  -4   8   3  347.77   41.60
   3  -8  -3   61.19   19.70
   3  -8  -3   45.70   19.60
  -3   8   3   75.19   17.50
  -3   8   3   58.99   22.50
   2  -8  -3 2393.36  156.68
   2  -8  -3 2210.68  157.78
  -2   8   3 2300.27  159.08
  -2   8   3 2419.36  159.48
   1  -8  -3   -7.10   14.70
   1  -8  -3    4.40   15.10
  -1   8   3   34.10   20.20
   0  -8  -3  389.16   38.30
   0  -8  -3  423.56   36.40
   0  -8  -3  380.56   42.00
   0   8   3  390.86   41.10
  -1  -8  -3  213.08   26.90
  -1  -8  -3   93.69   35.30
  -2  -8  -3   60.19   25.00
  -2  -8  -3   78.59   22.10
   2   8   3  132.99   26.60
  -3  -8  -3  760.92   66.69
  -3  -8  -3  804.92   67.89
  -3  -8  -3  773.62   64.89
   3   8   3  803.22   66.89
  -4  -8  -3   93.99   28.70
  -4  -8  -3  161.58   32.50
   4   8   3  154.48   33.30
  -5  -8  -3  258.07   41.90
   5   8   3  232.18   45.40
  -6  -8  -3    4.60   34.70
   6   8   3   21.20   31.80
  -7  -8  -3   25.40   37.40
   7   8   3    2.70   34.30
  -8  -8  -3   25.50   41.20
   8   8   3   60.29   41.50
  -9  -8  -3   29.10   48.10
   9   8   3  -28.30   40.70
   9  -9  -3  -31.00   32.40
  -9   9   3    8.50   34.20
   8  -9  -3  190.28   41.60
  -8   9   3  139.09   43.40
   7  -9  -3   25.30   29.30
  -7   9   3   -0.30   30.30
   6  -9  -3  -15.50   24.30
  -6   9   3    2.50   28.70
   5  -9  -3  655.63   60.09
  -5   9   3  574.74   71.09
   4  -9  -3   60.49   23.70
  -4   9   3   64.59   26.10
   3  -9  -3  497.85   46.00
   3  -9  -3  489.35   58.09
  -3   9   3  505.05   43.20
  -3   9   3  521.55   51.39
   2  -9  -3   41.60   18.20
   2  -9  -3   75.29   19.30
  -2   9   3   49.10   14.80
  -2   9   3   69.49   22.80
   1  -9  -3  436.96   41.30
   1  -9  -3  432.06   41.80
  -1   9   3  474.25   45.90
   0  -9  -3  114.99   20.90
   0  -9  -3  115.89   22.80
   0   9   3  128.99   24.70
  -1  -9  -3  321.47   35.40
  -1  -9  -3  328.77   33.20
  -1  -9  -3  292.37   49.10
  -2  -9  -3  153.98   27.10
  -2  -9  -3   97.49   28.60
  -3  -9  -3   47.60   21.40
  -3  -9  -3   60.39   26.20
  -3  -9  -3   23.10   26.40
   3   9   3   88.19   26.50
  -4  -9  -3 1261.37   92.99
  -4  -9  -3  998.40   87.19
   4   9   3 1054.99   89.49
  -5  -9  -3   71.09   32.90
   5   9   3   50.39   30.60
  -6  -9  -3  106.79   39.90
   6   9   3   46.30   34.70
  -7  -9  -3  160.28   47.50
   7   9   3  104.09   39.50
  -8  -9  -3    8.10   43.70
   8   9   3  -52.89   35.00
   9 -10  -3   95.09   41.80
  -9  10   3  202.58   48.90
   8 -10  -3   66.39   33.70
  -8  10   3   20.20   34.20
   7 -10  -3  113.89   35.90
  -7  10   3  113.59   38.80
   6 -10  -3   45.90   28.70
  -6  10   3   78.79   31.90
   5 -10  -3   69.59   28.20
   4 -10  -3  997.30   79.49
  -4  10   3 1018.10   84.09
   3 -10  -3  184.48   32.50
   3 -10  -3  160.18   28.30
  -3  10   3  142.19   30.90
   2 -10  -3  490.15   43.60
   2 -10  -3  408.66   57.09
  -2  10   3  397.26   39.10
  -2  10   3  463.65   47.50
   1 -10  -3   35.90   18.00
   1 -10  -3   68.69   20.00
   1 -10  -3   83.99   25.00
  -1  10   3   93.49   23.60
   0 -10  -3  140.59   29.30
   0 -10  -3  128.69   23.70
   0 -10  -3  145.69   23.80
   0  10   3  118.09   26.70
  -1 -10  -3  324.27   38.10
  -1 -10  -3  317.17   41.20
  -1 -10  -3  347.37   35.60
  -2 -10  -3   62.39   22.10
  -2 -10  -3   23.90   25.90
  -3 -10  -3  267.07   58.89
  -3 -10  -3  210.98   38.10
  -3 -10  -3  236.08   34.80
   3  10   3  211.78   39.00
  -4 -10  -3   46.90   24.60
  -4 -10  -3   39.70   31.90
   4  10   3   41.50   29.30
  -5 -10  -3   59.79   39.50
   5  10   3   22.60   30.60
  -6 -10  -3  301.77   53.19
   6  10   3  296.27   48.90
  -7 -10  -3  -16.50   40.30
   7  10   3    4.20   34.90
  -8 -10  -3  116.79   51.49
   8  10   3  127.39   47.50
   8 -11  -3  102.99   37.40
  -8  11   3   88.59   42.90
   7 -11  -3   16.60   29.20
  -7  11   3  -44.70   28.00
   6 -11  -3  608.34   60.89
  -6  11   3  501.15   63.59
   5 -11  -3  -27.40   22.80
  -5  11   3   31.30   30.10
   4 -11  -3  479.25   51.89
  -4  11   3  558.44   57.79
   3 -11  -3   24.20   20.80
   3 -11  -3   42.80   22.00
  -3  11   3   47.80   25.80
   2 -11  -3   39.10   19.40
  -2  11   3   74.39   26.60
   1 -11  -3   43.40   18.80
   1 -11  -3   33.30   26.50
   1 -11  -3   18.10   18.00
  -1  11   3  -16.80   21.20
   0 -11  -3  152.18   33.00
   0 -11  -3  162.18   33.00
   0 -11  -3  141.79   25.00
   0  11   3  206.88   32.10
  -1 -11  -3   13.70   18.90
  -1 -11  -3  -17.20   23.40
  -1 -11  -3   29.40   19.60
  -2 -11  -3   32.80   22.00
  -2 -11  -3    0.20   22.50
  -3 -11  -3   68.19   27.70
  -3 -11  -3   78.89   33.00
  -4 -11  -3   -7.80   58.79
   4  11   3    4.90   28.20
  -5 -11  -3  708.83   75.89
   5  11   3  658.13   70.69
  -6 -11  -3   60.09   43.00
   6  11   3  -19.30   34.40
  -7 -11  -3  144.49   51.59
   7  11   3  136.39   43.90
   8 -12  -3   86.39   37.00
  -8  12   3   74.99   40.70
   7 -12  -3  278.47   49.50
  -7  12   3  285.67   51.89
   6 -12  -3  -12.10   29.10
  -6  12   3  -18.80   32.30
   5 -12  -3  247.68   41.50
  -5  12   3  229.58   42.40
   4 -12  -3   36.20   25.30
  -4  12   3   45.30   29.90
   3 -12  -3  257.77   35.90
  -3  12   3  229.88   41.40
   2 -12  -3   93.29   33.20
   2 -12  -3  147.79   28.90
  -2  12   3  167.88   32.90
   1 -12  -3  221.18   31.10
   1 -12  -3  141.69   28.30
  -1  12   3  238.68   36.80
   0 -12  -3   23.30   21.50
   0 -12  -3   57.59   22.90
   0  12   3   56.99   27.80
  -1 -12  -3   30.20   21.00
  -1 -12  -3   59.89   24.30
  -2 -12  -3   93.79   28.40
  -2 -12  -3  115.79   26.10
  -3 -12  -3   13.40   60.69
  -4 -12  -3  176.18   44.50
   4  12   3  139.99   38.50
  -5 -12  -3  -10.10   37.40
   5  12   3   12.30   30.80
  -6 -12  -3  348.37   60.39
   6  12   3  244.88   50.49
  -7 -12  -3  -37.90   48.70
   7  12   3   35.60   41.00
   7 -13  -3  -32.50   28.50
  -7  13   3  -62.89   30.80
   6 -13  -3  245.28   44.10
  -6  13   3  196.58   44.90
   5 -13  -3   26.20   28.30
  -5  13   3    7.30   32.40
   4 -13  -3   17.10   25.60
  -4  13   3   17.60   29.60
   3 -13  -3  -16.60   21.90
  -3  13   3   15.80   27.20
   2 -13  -3  255.17   36.30
  -2  13   3  213.18   40.90
   1 -13  -3   44.10   24.40
   0 -13  -3   91.79   26.60
  -1 -13  -3   18.50   21.20
  -2 -13  -3  -28.90   21.80
  -3 -13  -3   70.99   40.80
  -4 -13  -3   29.00   39.30
  -5 -13  -3  229.78   52.99
   5  13   3  190.68   45.70
  -6 -13  -3  -10.40   42.50
   6  13   3   -8.20   36.30
   7 -14  -3  -19.30   32.10
  -7  14   3   29.00   39.50
   6 -14  -3   33.40   32.20
  -6  14   3   30.50   34.70
   5 -14  -3   28.70   29.40
  -5  14   3   46.90   32.70
   4 -14  -3  -16.00   26.40
  -4  14   3   32.10   32.80
   3 -14  -3   24.80   25.60
  -3  14   3  -13.10   28.60
   2 -14  -3   13.70   24.60
  -2  14   3   12.20   29.90
   1 -14  -3   25.00   22.30
  -1  14   3   17.00   28.60
   0 -14  -3   17.60   21.30
  -1 -14  -3    7.90   20.60
  -2 -14  -3   54.49   23.50
  -3 -14  -3   17.20   38.70
  -3 -14  -3   12.60   24.30
  -4 -14  -3   47.00   44.30
  -5 -14  -3   50.49   43.10
   6 -15  -3   30.80   30.20
  -6  15   3   -8.50   34.10
   5 -15  -3   29.30   30.70
  -5  15   3   12.30   33.60
   4 -15  -3   29.30   28.90
  -4  15   3   -4.80   32.80
   3 -15  -3  -50.29   24.20
  -3  15   3   -9.50   33.00
   2 -15  -3  -47.90   22.40
  -2  15   3   23.30   32.30
   1 -15  -3   41.30   26.30
  -1  15   3  -15.40   30.50
   0 -15  -3   62.59   25.00
  -1 -15  -3   29.20   24.30
  -2 -15  -3   55.39   26.90
  -3 -15  -3   30.50   26.90
  -3 -15  -3   42.00   46.70
  -4 -15  -3   48.00   28.50
  -4 -15  -3   -3.60   41.70
   5 -16  -3   -7.90   29.30
  -5  16   3    5.40   35.30
   4 -16  -3  -21.00   28.70
  -4  16   3    3.40   33.60
   3 -16  -3   49.30   31.70
  -3  16   3  114.39   41.90
   2 -16  -3  -25.00   25.60
  -2  16   3   44.40   34.00
   1 -16  -3   31.10   26.80
  -1  16   3   23.80   34.70
   0 -16  -3   38.30   26.70
  -1 -16  -3   26.50   25.50
  -2 -16  -3  -18.40   25.30
  -3 -16  -3   62.29   46.80
  -3 -16  -3    4.80   26.60
   3 -17  -3   91.49   32.00
  -3  17   3   54.39   38.80
   2 -17  -3   44.80   30.30
  -2  17   3   86.69   41.30
   1 -17  -3   90.49   30.40
   0 -17  -3   82.19   30.20
  -1 -17  -3   38.50   29.30
   1 -20   4  105.59   30.00
   0 -19   4  120.09   31.60
  -1  19  -4  -11.80   37.90
   1 -19   4   24.90   20.70
  -2  19  -4   37.90   39.00
   2 -19   4   22.40   23.50
  -3  19  -4   24.90   37.00
   3 -19   4    2.80   22.70
  -4  19  -4   -3.30   38.90
   4 -19   4   -2.50   28.50
  -4 -18   4  181.38   58.89
  -3 -18   4   46.20   30.40
  -3 -18   4  160.98   25.90
  -2 -18   4   61.89   21.90
  -2 -18   4   53.29   29.80
  -1 -18   4   52.69   21.40
  -1 -18   4   40.70   30.50
   0 -18   4   21.00   19.50
   0 -18   4  -31.90   28.90
  -1  18  -4   -7.00   34.70
   1 -18   4   30.40   26.10
  -2  18  -4   35.30   34.70
   2 -18   4   14.80   20.60
  -3  18  -4  -20.90   34.40
   3 -18   4   10.60   23.70
  -4  18  -4   89.99   39.30
   4 -18   4   22.10   28.00
  -5  18  -4   45.70   36.80
   5 -18   4  -43.50   25.50
  -5 -17   4  101.99   34.20
  -5 -17   4  120.09   55.89
  -4 -17   4   56.59   28.20
  -4 -17   4  -13.50   46.50
  -4 -17   4   27.10   21.80
  -3 -17   4  147.89   35.20
  -3 -17   4  257.67   30.60
  -2 -17   4    7.70   17.70
  -2 -17   4   10.30   25.60
  -1 -17   4   22.80   17.30
  -1 -17   4   16.70   25.60
   0 -17   4   13.60   27.70
   0 -17   4   25.30   17.90
  -1  17  -4  -14.30   30.80
   1 -17   4  -29.30   25.10
   1 -17   4   15.80   18.40
  -2  17  -4  -13.30   31.40
   2 -17   4   18.60   23.00
  -3  17  -4   10.50   33.70
   3 -17   4   18.70   24.20
  -4  17  -4   32.00   36.30
   4 -17   4   72.79   30.40
  -5  17  -4   93.89   40.80
   5 -17   4  137.29   35.20
  -6  17  -4  107.39   40.20
   6 -17   4   15.00   30.50
  -6 -16   4  224.88   59.79
  -5 -16   4   -3.00   47.20
  -5 -16   4   -1.20   27.00
  -4 -16   4  276.77   58.49
  -4 -16   4  258.87   30.90
  -4 -16   4  179.68   35.60
  -3 -16   4    8.30   16.20
  -2 -16   4  110.29   31.10
  -2 -16   4  181.28   25.00
  -1 -16   4   83.29   19.80
  -1 -16   4   62.89   27.50
   0 -16   4   17.30   29.50
   0 -16   4   56.59   18.80
  -1  16  -4   16.60   30.60
   1 -16   4   46.80   18.70
   1 -16   4   15.90   24.70
  -2  16  -4   52.29   31.40
   2 -16   4   41.70   20.00
  -3  16  -4  -16.50   28.80
  -4  16  -4   54.69   33.10
   4 -16   4   68.69   26.90
  -5  16  -4  132.99   37.70
   5 -16   4   73.29   29.80
  -6  16  -4   25.00   35.90
   6 -16   4   35.90   30.40
  -7  16  -4   31.20   36.70
   7 -16   4   17.60   35.00
  -6 -15   4   22.80   47.90
  -5 -15   4  234.08   38.30
  -5 -15   4  326.67   59.69
  -4 -15   4   43.70   42.40
  -3 -15   4  141.39   29.20
  -3 -15   4  157.98   23.40
  -2 -15   4  181.48   31.60
  -2 -15   4  223.98   25.10
  -1 -15   4  136.99   21.80
  -1 -15   4  163.28   30.10
   0 -15   4   35.30   16.10
   0 -15   4   -1.40   22.90
  -1  15  -4   36.30   30.10
   1 -15   4   55.89   16.80
   1 -15   4    5.20   21.40
  -2  15  -4   40.60   14.40
  -2  15  -4   23.50   30.90
   2 -15   4   20.30   18.20
  -3  15  -4  145.19   38.50
  -3  15  -4  101.89   21.20
   3 -15   4  129.59   26.20
  -4  15  -4   53.89   31.50
   4 -15   4    5.70   22.00
  -5  15  -4  -12.10   29.30
   5 -15   4   20.60   25.20
  -6  15  -4  156.78   39.60
   6 -15   4   90.49   33.90
  -7  15  -4   36.90   34.70
   7 -15   4  159.58   39.20
   8 -15   4  118.19   43.70
   7  14  -4  -30.30   32.10
  -7 -14   4  -17.50   47.70
   6  14  -4  219.68   40.10
  -6 -14   4  269.97   55.39
   5  14  -4   46.60   27.40
  -5 -14   4   17.90   22.00
  -5 -14   4   74.39   40.70
  -4 -14   4  115.99   26.50
  -4 -14   4  321.57   52.99
  -3 -14   4  179.18   23.80
  -3 -14   4  196.88   29.70
  -2 -14   4  102.79   18.40
  -2 -14   4   89.89   23.50
  -1 -14   4  448.36   36.10
  -1 -14   4  380.16   42.30
   0  14  -4  220.88   40.10
   0 -14   4  212.08   24.50
   0 -14   4  190.28   29.90
  -1  14  -4  497.35   59.29
   1 -14   4  543.05   44.00
  -2  14  -4   68.99   16.20
  -2  14  -4   73.89   30.00
   2 -14   4   96.19   21.60
  -3  14  -4   36.00   29.30
  -3  14  -4   28.60   14.90
   3 -14   4   38.60   20.50
  -4  14  -4  135.19   36.10
   4 -14   4  195.08   34.30
  -5  14  -4  104.89   35.50
   5 -14   4  112.49   30.20
  -6  14  -4  120.49   37.40
   6 -14   4   59.19   31.20
  -7  14  -4  113.19   39.70
   7 -14   4  187.48   41.10
  -8  14  -4   44.10   35.20
   8 -14   4  194.68   48.40
   7  13  -4  153.28   38.80
  -7 -13   4  200.78   55.19
   6  13  -4   93.69   30.50
  -6 -13   4   91.79   44.20
  -6 -13   4   39.50   23.90
   5  13  -4  125.19   29.70
  -5 -13   4  145.89   47.30
   4  13  -4  156.58   27.60
  -4 -13   4   95.19   22.80
  -4 -13   4  124.09   39.80
  -3 -13   4   65.69   20.20
  -2 -13   4  359.46   31.30
  -2 -13   4  334.97   36.70
  -1 -13   4  242.08   24.80
  -1 -13   4  240.68   30.40
   0 -13   4  360.56   31.50
   0 -13   4  315.17   35.40
   1 -13   4  311.37   31.10
  -2  13  -4  136.39   34.50
  -2  13  -4  175.48   22.40
   2 -13   4  186.18   25.00
  -3  13  -4   91.69   28.40
  -3  13  -4   13.90   15.30
   3 -13   4   80.79   21.20
  -4  13  -4   10.60   27.10
  -4  13  -4    6.00   13.50
   4 -13   4   29.50   19.70
  -5  13  -4  156.78   37.50
   5 -13   4  250.57   36.50
  -6  13  -4  134.39   36.70
   6 -13   4  149.99   34.70
  -7  13  -4  135.89   42.00
   7 -13   4  297.87   45.80
  -8  13  -4  144.79   43.90
   8 -13   4  143.79   42.50
   8  12  -4   43.20   36.60
  -8 -12   4  124.49   52.39
   7  12  -4   46.30   37.70
  -7 -12   4  -33.40   39.50
   6  12  -4   38.70   26.80
  -6 -12   4   26.60   20.70
  -6 -12   4   44.00   40.50
   5  12  -4   47.90   26.00
  -5 -12   4   53.29   21.90
  -5 -12   4   66.79   40.10
   4  12  -4   97.19   24.30
  -4 -12   4   73.89   36.90
  -4 -12   4   50.99   19.30
  -3 -12   4   83.39   20.30
  -2 -12   4  312.47   27.60
  -2 -12   4  305.37   32.30
  -1 -12   4  561.44   54.79
  -1 -12   4  528.45   42.20
  -1 -12   4  565.64   47.60
   0  12  -4  679.93   64.09
   0 -12   4  742.43   50.19
   0 -12   4  636.44   60.39
   0 -12   4  624.34   53.89
  -1  12  -4  311.27   43.00
  -1  12  -4  356.56   32.20
   1 -12   4  444.96   35.00
   1 -12   4  380.46   44.40
  -2  12  -4 1250.17   94.09
  -2  12  -4 1205.68   83.69
   2 -12   4 1112.09   91.89
   2 -12   4 1233.08   85.39
  -3  12  -4  110.09   18.60
   3 -12   4  167.98   24.00
  -4  12  -4  421.16   40.70
  -4  12  -4  523.35   57.09
   4 -12   4  542.25   47.00
  -5  12  -4   -5.80   24.40
  -6  12  -4  294.97   47.50
   6 -12   4  200.98   39.20
  -7  12  -4   43.60   31.50
   7 -12   4   75.39   34.20
  -8  12  -4   36.60   37.40
   8 -12   4   64.09   37.20
  -9  12  -4   22.70   37.80
   9 -12   4   33.40   38.40
   8  11  -4   65.39   36.60
  -8 -11   4   21.20   45.40
   7  11  -4   77.19   37.80
  -7 -11   4   49.40   42.10
   6  11  -4   32.70   28.70
  -6 -11   4   56.19   23.50
  -6 -11   4  112.19   40.50
   5  11  -4   39.60   24.70
  -5 -11   4   25.30   35.90
  -5 -11   4   16.20   18.10
   4  11  -4  -12.20   18.50
  -4 -11   4   32.30   28.50
  -4 -11   4    0.60   15.30
   3  11  -4  488.05   42.10
  -3 -11   4  523.25   56.09
  -3 -11   4  480.25   41.60
  -2 -11   4  203.58   26.90
  -2 -11   4  226.48   22.50
  -2 -11   4  236.88   32.60
  -1 -11   4 1424.46   96.69
  -1 -11   4 1359.96  104.09
  -1 -11   4 1420.76   93.89
   0 -11   4  122.09   20.50
   0 -11   4  147.89   30.00
  -1  11  -4 2069.99  135.59
  -1  11  -4 2078.09  145.29
   1 -11   4 1917.71  143.39
   1 -11   4 2122.19  136.39
  -2  11  -4   61.79   16.20
  -2  11  -4   82.89   28.00
   2 -11   4  110.19   25.40
   2 -11   4   82.29   20.00
  -3  11  -4  468.85   39.60
  -3  11  -4  492.45   51.79
   3 -11   4  515.05   43.40
   3 -11   4  447.26   48.10
  -4  11  -4   29.50   13.40
   4 -11   4    2.40   19.30
  -5  11  -4  231.18   29.80
  -5  11  -4  292.37   42.10
   5 -11   4  253.57   35.80
  -6  11  -4    3.80   27.50
   6 -11   4    5.20   23.30
  -7  11  -4  219.28   41.10
   7 -11   4   99.29   35.50
  -8  11  -4   27.10   33.00
   8 -11   4    9.20   31.70
  -9  11  -4   18.20   35.00
   9 -11   4   31.40   36.30
   9  10  -4   43.70   38.10
  -9 -10   4    6.30   46.90
   8  10  -4  -27.80   34.60
  -8 -10   4  -34.20   41.90
   7  10  -4   16.40   30.40
  -7 -10   4  -39.10   35.40
  -7 -10   4  -24.90   23.80
   6  10  -4  -50.39   23.90
  -6 -10   4    6.50   17.40
  -6 -10   4   14.20   32.40
   5  10  -4   40.70   23.30
  -5 -10   4   38.30   25.90
  -5 -10   4   23.90   17.60
   4  10  -4   29.60   17.10
  -4 -10   4  -13.40   13.50
  -4 -10   4   14.60   32.10
   3  10  -4  101.49   19.40
  -3 -10   4  140.59   32.80
  -3 -10   4   54.09   15.90
  -3 -10   4   34.50   21.10
  -2 -10   4   91.49   25.10
  -2 -10   4  135.59   18.90
  -1 -10   4    3.20   20.70
   0  10  -4 1922.71  141.89
   0 -10   4 1911.61  140.49
   0 -10   4 2142.39  132.09
  -1  10  -4  -36.30   15.10
  -1  10  -4   75.69   27.40
   1 -10   4   50.49   24.60
   1 -10   4  -62.09   17.90
  -2  10  -4 2394.16  157.08
  -2  10  -4 2347.67  164.38
   2 -10   4 2424.76  158.28
  -3  10  -4   37.40   13.00
  -3  10  -4   30.40   21.00
   3 -10   4   40.50   17.80
   3 -10   4   58.39   20.30
  -4  10  -4  485.35   53.69
  -4  10  -4  548.75   42.70
   4 -10   4  495.75   45.90
   4 -10   4  442.56   49.60
  -5  10  -4   40.60   15.80
  -5  10  -4   43.60   26.20
   5 -10   4   -5.70   21.50
  -6  10  -4  205.98   38.60
   6 -10   4  279.47   38.70
  -7  10  -4   91.79   34.30
   7 -10   4   55.79   30.70
  -8  10  -4  -17.70   28.70
   8 -10   4  -24.50   31.20
  -9  10  -4   78.69   41.80
   9 -10   4  103.99   39.90
   9   9  -4   17.70   35.10
  -9  -9   4   26.30   47.70
   8   9  -4    0.10   31.90
  -8  -9   4  -58.09   38.20
   7   9  -4   64.29   31.70
  -7  -9   4  125.49   42.90
  -7  -9   4   87.69   23.30
   6   9  -4   27.90   25.80
  -6  -9   4    1.00   30.60
  -6  -9   4   30.60   30.60
   5   9  -4  -27.40   20.50
  -5  -9   4  -32.40   14.30
  -5  -9   4   17.00   27.50
   4   9  -4   22.20   17.20
  -4  -9   4   15.00   26.10
  -4  -9   4  -12.70   13.30
   3   9  -4  106.69   19.00
  -3  -9   4   69.99   14.70
  -3  -9   4   51.99   26.70
  -2  -9   4   10.00   17.10
  -2  -9   4   -4.80   21.50
  -1  -9   4 3226.78  227.38
  -1  -9   4 3563.74  221.28
   0   9  -4   63.59   24.90
   0  -9   4   64.59   24.80
   0  -9   4   20.30   14.50
  -1   9  -4 1388.46   92.09
  -1   9  -4 1380.36  101.69
   1  -9   4 1309.37  100.79
   1  -9   4 1442.66   93.19
  -2   9  -4   82.39   25.70
  -2   9  -4   57.99   15.90
   2  -9   4   78.59   19.70
   2  -9   4  109.49   24.40
  -3   9  -4  631.44   55.19
  -3   9  -4  560.24   45.60
   3  -9   4  587.44   48.50
   3  -9   4  616.54   57.59
  -4   9  -4  126.19   27.50
  -4   9  -4  116.19   19.40
   4  -9   4  162.78   25.70
   4  -9   4  136.79   26.80
  -5   9  -4  626.14   53.49
  -5   9  -4  682.03   62.09
   5  -9   4  678.93   58.49
   5  -9   4  771.02   81.19
  -6   9  -4  108.09   30.40
   6  -9   4  132.69   33.70
  -7   9  -4  122.29   36.20
   7  -9   4   52.79   31.90
  -8   9  -4  188.08   43.40
   8  -9   4  194.88   45.30
  -9   9  -4   37.40   35.30
   9  -9   4  -39.50   32.50
 -10   9  -4   91.29   43.80
  10  -9   4   38.10   40.00
   9   8  -4  -47.50   33.20
  -9  -8   4   13.90   43.90
   8   8  -4   43.60   32.90
  -8  -8   4   14.00   40.60
   7   8  -4  -38.90   26.40
  -7  -8   4    2.50   18.80
  -7  -8   4    0.70   36.30
   6   8  -4  -15.50   23.10
  -6  -8   4   -7.80   16.60
  -6  -8   4   -4.70   29.90
   5   8  -4   55.19   23.00
  -5  -8   4   36.80   16.30
  -5  -8   4   82.69   32.40
   4   8  -4   93.29   19.80
  -4  -8   4    3.10   23.60
  -4  -8   4   40.80   14.80
   3   8  -4  102.49   19.10
  -3  -8   4   96.39   26.20
  -3  -8   4   73.69   16.10
   2   8  -4   -1.70   12.00
  -2  -8   4  -43.30   17.20
  -2  -8   4   10.90   10.40
  -1  -8   4  492.85   34.90
  -1  -8   4  550.24   45.60
  -1  -8   4  454.05   38.50
   0   8  -4 1000.10   74.39
   0  -8   4  988.90   64.69
   0  -8   4  897.11   73.29
  -1   8  -4  303.97   26.00
  -1   8  -4  399.96   38.40
   1  -8   4  374.06   36.70
   1  -8   4  263.27   26.60
  -2   8  -4 2468.25  160.88
  -2   8  -4 2462.75  166.98
   2  -8   4 2396.66  166.28
   2  -8   4 2507.45  161.88
  -3   8  -4  106.59   16.90
  -3   8  -4  103.09   23.90
   3  -8   4  161.08   22.00
   3  -8   4  103.29   23.40
  -4   8  -4  198.48   23.80
  -4   8  -4  172.18   30.50
   4  -8   4  204.98   27.60
   4  -8   4  174.78   49.00
  -5   8  -4  194.68   32.40
  -5   8  -4  204.68   25.90
   5  -8   4  137.79   28.90
   5  -8   4  168.98   28.80
  -6   8  -4  146.39   34.60
   6  -8   4  204.48   42.50
  -7   8  -4  347.57   48.50
   7  -8   4  280.47   46.10
  -8   8  -4  141.79   37.90
   8  -8   4   62.89   36.80
  -9   8  -4  114.59   40.20
   9  -8   4   87.49   41.10
 -10   8  -4   -6.40   40.00
  10  -8   4   20.30   40.80
  10   7  -4  -43.90   37.10
 -10  -7   4   73.39   54.49
   9   7  -4  -52.69   33.00
  -9  -7   4  -43.20   38.30
   8   7  -4    0.90   30.70
  -8  -7   4   47.50   39.60
   7   7  -4   11.10   26.90
  -7  -7   4   15.70   33.30
  -7  -7   4   15.90   19.50
   6   7  -4  293.17   38.30
  -6  -7   4  266.57   32.00
  -6  -7   4  243.38   41.50
   5   7  -4   15.30   19.00
  -5  -7   4   18.50   15.10
  -5  -7   4   12.10   24.30
   4   7  -4  266.97   27.50
  -4  -7   4  182.98   34.50
  -4  -7   4  157.18   21.60
   3   7  -4  509.55   39.40
  -3  -7   4  465.85   49.90
  -3  -7   4  460.65   38.00
   2   7  -4 2919.31  189.78
  -2  -7   4 2947.10  189.58
  -1  -7   4  945.21   69.59
  -1  -7   4  939.31   62.79
  -1  -7   4  932.91   61.39
   0   7  -4   28.00   15.50
   0  -7   4    9.30    6.90
   0  -7   4  -17.30   14.10
  -1   7  -4  117.09   22.10
  -1   7  -4  131.59   14.20
   1  -7   4  129.39   21.90
  -2   7  -4  588.24   46.50
  -2   7  -4  504.55   37.70
   2  -7   4  457.15   43.60
   2  -7   4  462.35   39.00
  -3   7  -4 2696.83  181.78
  -3   7  -4 2676.63  177.28
   3  -7   4 2845.22  178.98
   3  -7   4 2575.44  181.38
  -4   7  -4  108.99   28.10
  -4   7  -4  205.18   24.30
   4  -7   4  205.08   28.00
   4  -7   4  199.18   29.50
  -5   7  -4  166.78   31.30
  -5   7  -4  154.08   23.60
   5  -7   4  182.68   29.80
   5  -7   4  159.98   28.10
  -6   7  -4  492.85   51.79
  -6   7  -4  458.35   55.99
   6  -7   4  429.36   50.69
  -7   7  -4  176.08   36.30
   7  -7   4  118.19   35.70
  -8   7  -4   85.49   37.10
   8  -7   4  200.18   41.00
  -9   7  -4   83.69   36.20
   9  -7   4    1.20   36.10
 -10   7  -4  -21.00   36.30
  10  -7   4   -4.80   35.70
  10   6  -4   19.20   37.80
 -10  -6   4   54.99   48.30
   9   6  -4  -25.30   35.10
  -9  -6   4  -19.60   40.60
   8   6  -4   15.10   31.40
  -8  -6   4   19.00   36.10
   7   6  -4  129.49   33.40
  -7  -6   4   91.09   39.90
  -7  -6   4   94.39   24.50
   6   6  -4  171.18   30.90
  -6  -6   4  149.79   24.90
  -6  -6   4  218.18   44.60
   5   6  -4  694.93   64.29
   5   6  -4  773.32   59.79
  -5  -6   4  698.43   55.19
  -5  -6   4  691.13   66.89
   4   6  -4  965.70   68.99
  -4  -6   4  901.61   75.99
  -4  -6   4  931.51   66.89
   3   6  -4 3202.68  211.38
  -3  -6   4 3328.37  213.38
  -3  -6   4 3207.68  217.48
   2   6  -4  121.79   15.30
  -2  -6   4  125.79   23.30
  -2  -6   4  128.79   14.40
  -1  -6   4  429.36   38.90
   0   6  -4  103.29    9.20
   0   6  -4   83.29   18.50
   0  -6   4   71.39   17.90
   0  -6   4   83.69    9.50
  -1   6  -4  190.38   18.70
  -1   6  -4  234.48   28.00
   1  -6   4  209.18   19.80
   1  -6   4  237.68   26.50
  -2   6  -4   15.10    9.30
  -2   6  -4  -13.90   13.50
   2  -6   4   -7.50   13.40
   2  -6   4   15.60   10.90
  -3   6  -4 2768.62  188.08
  -3   6  -4 2868.11  191.38
   3  -6   4 2914.41  191.38
   3  -6   4 2934.71  189.78
  -4   6  -4   21.10   15.10
  -4   6  -4    1.80   20.00
   4  -6   4   28.90   19.50
   4  -6   4   65.89   19.70
  -5   6  -4  -13.30   19.90
   5  -6   4   11.10   19.70
   5  -6   4   -1.80   28.30
  -6   6  -4   42.70   25.40
  -6   6  -4   67.59   18.00
   6  -6   4   75.09   24.20
   6  -6   4   57.29   25.10
  -7   6  -4   77.29   29.10
   7  -6   4   76.29   30.70
  -8   6  -4  335.37   49.80
   8  -6   4  243.68   45.20
  -9   6  -4  180.58   47.00
   9  -6   4  136.39   42.20
 -10   6  -4  174.78   48.20
  10  -6   4   91.89   42.60
  10   5  -4   30.70   40.30
 -10  -5   4   68.19   47.90
   9   5  -4   -7.40   34.20
  -9  -5   4   46.30   42.90
   8   5  -4  179.78   40.10
  -8  -5   4  225.78   47.50
   7   5  -4  114.09   31.20
  -7  -5   4   49.50   35.40
  -7  -5   4   93.09   22.50
   6   5  -4  -12.70   21.70
  -6  -5   4   37.90   17.40
  -6  -5   4   36.00   31.50
   5   5  -4  848.12   65.79
   5   5  -4  789.42   68.99
  -5  -5   4  877.71   72.99
  -5  -5   4  813.72   61.99
   4   5  -4 2672.63  176.18
   4   5  -4 2544.15  180.38
  -4  -5   4 2793.62  182.48
  -4  -5   4 2642.64  174.68
   3   5  -4  242.48   25.00
  -3  -5   4  216.18   32.50
  -3  -5   4  247.98   32.20
   2   5  -4 2429.86  160.98
  -2  -5   4 2500.15  160.58
  -2  -5   4 2551.74  166.98
   0   5  -4  590.94   47.70
   0  -5   4  603.34   47.30
  -1   5  -4   -6.60    7.80
  -1   5  -4    1.80   13.30
   1  -5   4   17.40   13.30
   1  -5   4   -0.90    8.50
  -2   5  -4  503.35   43.20
  -2   5  -4  511.55   38.80
   2  -5   4  501.95   40.10
   2  -5   4  522.85   42.90
  -3   5  -4   24.90   12.70
  -3   5  -4   25.80   15.80
   3  -5   4    1.10   13.90
   3  -5   4   28.30   14.60
  -4   5  -4 1708.03  121.99
  -4   5  -4 1699.93  119.39
   4  -5   4 1768.62  121.99
   4  -5   4 1839.62  122.29
  -5   5  -4   12.90   19.70
  -5   5  -4   11.30   15.70
   5  -5   4    9.80   19.50
   5  -5   4   26.50   19.90
  -6   5  -4   10.60   22.60
  -6   5  -4   21.60   17.50
   6  -5   4   15.60   23.40
   6  -5   4    4.10   21.40
  -7   5  -4   71.49   29.90
   7  -5   4   87.29   33.60
  -8   5  -4  140.59   39.90
   8  -5   4  158.88   41.50
  -9   5  -4   94.69   42.10
   9  -5   4  154.58   43.20
 -10   5  -4    4.30   43.10
  10  -5   4   -9.70   37.60
  10   4  -4   65.59   40.20
 -10  -4   4    2.60   43.80
   9   4  -4    8.20   33.90
  -9  -4   4  -15.60   38.70
   8   4  -4  160.38   36.60
  -8  -4   4   71.49   38.50
   7   4  -4    5.40   24.20
  -7  -4   4  -22.20   29.20
  -7  -4   4  -11.70   15.70
   6   4  -4  634.34   52.59
   6   4  -4  482.75   57.09
  -6  -4   4  531.45   46.70
  -6  -4   4  561.14   59.89
   5   4  -4  544.85   56.29
   5   4  -4  574.94   50.39
  -5  -4   4  605.94   57.59
  -5  -4   4  589.24   46.50
   4   4  -4  319.77   41.90
   4   4  -4  397.36   36.30
  -4  -4   4  325.27   43.10
  -4  -4   4  405.56   32.80
   3   4  -4 1271.37   90.29
   3   4  -4 1337.77   94.89
  -3  -4   4 1415.06   91.89
  -3  -4   4 1328.57   95.89
   2   4  -4   97.79   13.20
  -2  -4   4  100.59   19.10
  -2  -4   4   72.69   10.60
   0   4  -4   19.30   13.50
  -1   4  -4  508.95   38.10
  -1   4  -4  511.95   42.70
   1  -4   4  603.94   39.70
   1  -4   4  433.26   54.09
  -2   4  -4   28.40   13.90
  -2   4  -4   26.00   11.60
   2  -4   4   30.30   14.20
   2  -4   4   24.20   13.50
  -3   4  -4  313.87   32.60
  -3   4  -4  289.27   31.10
   3  -4   4  312.87   33.70
   3  -4   4  343.37   32.20
  -4   4  -4  160.68   25.40
  -4   4  -4  137.99   23.00
   4  -4   4  101.09   26.00
   4  -4   4  164.18   24.60
  -5   4  -4   36.10   20.00
  -5   4  -4   58.49   21.30
   5  -4   4   23.80   23.90
   5  -4   4   33.60   19.70
  -6   4  -4   58.69   18.60
  -6   4  -4   56.99   22.40
   6  -4   4   20.70   21.30
   6  -4   4   33.30   24.40
  -7   4  -4  124.79   44.60
   7  -4   4   13.50   27.70
  -8   4  -4  602.54   64.59
   8  -4   4  449.16   57.59
  -9   4  -4  -12.40   36.40
   9  -4   4   16.90   34.20
 -10   4  -4  260.77   60.09
  10  -4   4  257.47   51.19
  10   3  -4  -10.10   36.00
 -10  -3   4    2.30   45.20
   9   3  -4  477.65   58.59
  -9  -3   4  493.55   67.49
   8   3  -4   13.30   29.80
  -8  -3   4   12.30   38.00
   7   3  -4  369.76   45.50
  -7  -3   4  379.66   39.30
  -7  -3   4  371.06   51.79
   6   3  -4   40.50   26.00
   6   3  -4   85.99   24.50
  -6  -3   4   49.10   29.50
  -6  -3   4   73.29   19.10
   5   3  -4  571.64   46.10
   5   3  -4  403.96   52.19
  -5  -3   4  505.65   41.50
  -5  -3   4  433.96   50.49
   4   3  -4   51.09   19.90
   4   3  -4   45.50   15.30
  -4  -3   4   27.20   20.30
  -4  -3   4   24.50   11.90
   3   3  -4   26.80   16.80
   3   3  -4   11.50   12.00
  -3  -3   4   38.90   10.70
  -3  -3   4   45.70   17.80
   2   3  -4   77.49   17.80
   2   3  -4   78.29   12.40
  -2  -3   4   97.89   19.40
  -2  -3   4   88.79   11.30
   1   3  -4  848.22   57.49
  -1  -3   4  866.91   57.39
  -1  -3   4 1001.80   67.19
   0   3  -4  101.59   17.00
   0   3  -4  131.39   12.80
   0  -3   4  142.39   12.90
   0  -3   4   92.59   16.50
  -2   3  -4  240.28   25.30
  -2   3  -4  250.27   25.20
   2  -3   4  242.68   27.30
   2  -3   4  259.67   27.10
  -3   3  -4   22.90   14.60
  -3   3  -4   65.69   16.20
   3  -3   4   50.49   15.90
   3  -3   4   47.20   17.90
  -4   3  -4  340.57   36.20
  -4   3  -4  364.96   36.10
   4  -3   4  358.86   38.20
   4  -3   4  303.17   35.30
  -5   3  -4  466.35   47.80
  -5   3  -4  527.05   47.10
   5  -3   4  487.65   46.80
   5  -3   4  562.74   51.09
  -6   3  -4   14.20   17.10
  -6   3  -4   46.10   23.20
   6  -3   4   12.50   22.50
   6  -3   4   36.40   24.30
  -7   3  -4    3.70   32.50
   7  -3   4   31.40   28.60
  -8   3  -4  -13.80   33.50
   8  -3   4  -14.50   31.80
  -9   3  -4  388.26   59.59
   9  -3   4  362.36   56.49
 -10   3  -4   -5.80   42.60
  10  -3   4   31.70   41.40
  10   2  -4  233.78   45.70
 -10  -2   4  181.78   55.69
   9   2  -4  -27.90   32.90
  -9  -2   4    5.20   38.10
   8   2  -4  459.25   53.19
  -8  -2   4  411.76   59.19
   7   2  -4   -3.80   24.70
  -7  -2   4   45.80   29.30
  -7  -2   4   23.20   15.70
   6   2  -4  499.65   47.40
   6   2  -4  457.05   51.59
  -6  -2   4  528.75   54.19
  -6  -2   4  480.25   47.80
   5   2  -4   24.60   22.00
   5   2  -4   68.79   20.00
  -5  -2   4   63.39   26.50
  -5  -2   4   45.50   15.00
   4   2  -4   71.99   16.70
   4   2  -4   72.99   22.00
  -4  -2   4  111.79   26.30
  -4  -2   4   79.39   15.30
   3   2  -4  162.58   22.30
   3   2  -4  130.29   17.60
  -3  -2   4  122.19   15.90
  -3  -2   4  199.48   25.00
   2   2  -4  371.66   34.40
   2   2  -4  358.96   28.10
  -2  -2   4  400.56   35.80
  -2  -2   4  313.67   27.20
   1   2  -4 2245.88  143.39
  -1  -2   4 2164.18  143.19
  -1  -2   4 2276.97  146.19
   0   2  -4 1337.17   86.99
   0  -2   4 1324.87   86.79
   0  -2   4 1297.77   86.99
  -1   2  -4 1608.14  109.29
  -1   2  -4 1687.23  108.09
   1  -2   4 1661.63  109.59
   1  -2   4 1631.64  108.09
  -2   2  -4  521.15   43.60
  -2   2  -4  527.75   44.10
   2  -2   4  506.25   44.70
   2  -2   4  598.44   41.80
  -3   2  -4  584.04   46.50
  -3   2  -4  574.24   48.30
   3  -2   4  574.74   50.09
   3  -2   4  640.84   47.20
  -4   2  -4    5.60   16.80
  -4   2  -4  -23.60   15.70
   4  -2   4   -9.60   17.80
   4  -2   4  -22.30   16.40
  -5   2  -4  293.57   35.10
  -5   2  -4  359.56   38.80
   5  -2   4  287.77   36.50
   5  -2   4  325.57   38.80
  -6   2  -4   91.69   28.10
  -6   2  -4   79.09   22.80
   6  -2   4   58.29   25.70
   6  -2   4   99.49   28.60
  -7   2  -4   62.79   32.40
   7  -2   4   34.50   30.60
  -8   2  -4  335.37   51.69
   8  -2   4  298.87   49.60
  -9   2  -4   33.70   42.40
   9  -2   4   27.40   38.90
 -10   2  -4  247.68   60.69
  10  -2   4  258.57   54.79
  10   1  -4   55.89   37.90
 -10  -1   4   41.00   42.20
   9   1  -4  835.12   79.59
  -9  -1   4  825.42   86.29
   8   1  -4   40.60   30.70
  -8  -1   4   50.89   35.40
   7   1  -4  714.63   62.79
  -7  -1   4  688.13   68.39
  -7  -1   4  662.83   58.79
   6   1  -4    3.00   22.70
   6   1  -4   68.09   21.40
  -6  -1   4    0.30   23.20
  -6  -1   4   17.30   16.90
   5   1  -4  375.56   36.50
   5   1  -4  307.77   38.90
  -5  -1   4  399.36   34.50
  -5  -1   4  316.67   40.90
   4   1  -4  872.11   70.59
   4   1  -4  950.40   66.99
  -4  -1   4  931.71   65.59
  -4  -1   4  919.11   71.89
   3   1  -4  151.48   18.60
   3   1  -4  132.79   21.70
  -3  -1   4  147.79   23.70
  -3  -1   4  133.59   16.70
   2   1  -4  255.27   33.10
   2   1  -4  350.26   31.10
  -2  -1   4  251.87   24.80
  -2  -1   4  372.66   33.00
   1   1  -4 1793.92  115.09
   1   1  -4 1757.52  116.89
  -1  -1   4 1727.23  114.89
  -1  -1   4 1806.32  117.09
   0   1  -4   22.20   11.70
   0  -1   4   31.90   10.80
  -1   1  -4 1941.11  125.09
  -1   1  -4 1905.11  127.99
   1  -1   4 2069.79  130.69
   1  -1   4 1861.51  125.09
  -2   1  -4  133.49   16.00
  -2   1  -4  114.09   19.40
   2  -1   4  118.49   20.30
   2  -1   4  123.79   16.20
  -3   1  -4  334.57   32.50
  -3   1  -4  343.67   34.20
   3  -1   4  356.16   35.50
   3  -1   4  302.97   31.60
  -4   1  -4 1326.57   96.69
  -4   1  -4 1418.86   96.29
   4  -1   4 1382.36   98.69
   4  -1   4 1304.97   95.69
  -5   1  -4  609.44   59.59
  -5   1  -4  785.32   60.39
   5  -1   4  699.33   59.89
   5  -1   4  793.22   63.89
  -6   1  -4   98.39   28.00
  -6   1  -4   44.30   20.40
   6  -1   4  100.49   41.70
   6  -1   4   33.70   27.90
  -7   1  -4   84.49   32.00
   7  -1   4  109.19   34.20
   7  -1   4   72.79   33.40
  -8   1  -4   87.99   41.80
   8  -1   4   76.99   36.10
  -9   1  -4  105.19   44.50
   9  -1   4  165.88   43.80
 -10   1  -4   69.89   51.29
  10  -1   4   -9.40   37.40
  10   0  -4  175.58   46.00
 -10   0   4  358.06   60.39
   9   0  -4   34.10   33.30
  -9   0   4  -55.79   36.00
   8   0  -4  487.45   56.59
  -8   0   4  537.05   65.09
   7   0  -4   22.80   23.30
  -7   0   4   32.10   30.20
   6   0  -4  249.28   38.20
   6   0  -4  238.98   33.70
  -6   0   4  270.17   39.30
  -6   0   4  299.67   31.10
   5   0  -4   59.29   18.90
   5   0  -4   77.09   23.50
  -5   0   4   49.70   15.00
  -5   0   4   57.49   23.50
   4   0  -4   54.59   16.30
   4   0  -4   29.10   19.70
  -4   0   4   27.40   20.80
  -4   0   4   25.80   13.00
   3   0  -4   29.50   16.70
   3   0  -4   15.40   11.80
  -3   0   4  -18.00   14.70
  -3   0   4   21.30    9.80
   2   0  -4 1877.81  140.79
   2   0  -4 2074.89  132.59
  -2   0   4 1990.10  132.09
  -2   0   4 2101.29  134.59
   1   0  -4   37.80   11.20
   1   0  -4   34.90   13.20
  -1   0   4   61.09   13.30
  -1   0   4   39.60   10.30
   0   0  -4   79.39   14.80
   0   0   4   92.09   16.40
  -1   0  -4  263.27   19.90
  -1   0  -4  365.96   33.10
   1   0   4  308.57   28.50
   1   0   4  227.18   20.60
  -2   0  -4 1341.27   89.29
   2   0   4 1411.76   93.19
   2   0   4 1275.47   89.59
  -3   0  -4   34.50   14.50
  -3   0  -4   30.10   15.50
   3   0   4   29.90   18.00
   3   0   4   15.20   15.00
  -4   0  -4   53.39   18.60
  -4   0  -4   10.00   18.20
   4   0   4  -19.50   18.10
   4   0   4   40.20   19.40
  -5   0  -4  192.08   30.80
   5   0   4  101.69   27.10
   5   0   4  231.98   32.20
  -6   0  -4   99.19   30.90
  -6   0  -4  145.79   27.80
   6   0   4  141.79   30.80
  -7   0  -4  164.48   37.10
   7   0   4  151.28   36.60
   7   0   4  107.69   33.00
  -8   0  -4   42.20   37.60
   8   0   4    9.00   33.10
  -9   0  -4   21.70   38.40
   9   0   4  -36.70   35.10
 -10   0  -4    0.80   46.30
  10   0   4    0.90   39.50
  10  -1  -4   72.69   40.00
 -10   1   4  -33.50   40.80
   9  -1  -4  152.68   39.40
  -9   1   4  171.48   48.00
   8  -1  -4   74.49   30.10
  -8   1   4   63.09   35.70
  -7   1   4   -3.60   30.40
   6  -1  -4  271.77   39.00
   6  -1  -4  314.57   37.00
  -6   1   4  304.57   32.60
  -6   1   4  260.97   40.40
   5  -1  -4  347.67   40.70
   5  -1  -4  367.06   37.80
  -5   1   4  333.07   33.60
  -5   1   4  406.36   43.60
   4  -1  -4  918.91   65.59
   4  -1  -4  824.22   67.49
  -4   1   4  868.21   63.39
  -4   1   4  896.61   68.69
   3  -1  -4  748.33   56.59
   3  -1  -4  769.42   54.59
  -3   1   4  711.43   52.89
  -3   1   4  706.83   57.39
   2  -1  -4  653.63   51.39
   2  -1  -4  621.74   45.30
  -2   1   4  628.14   47.50
  -2   1   4  563.74   44.50
   1  -1  -4    4.00    8.60
   1  -1  -4    1.60   10.90
  -1   1   4   -5.60    8.90
  -1   1   4   16.50   10.60
   0  -1  -4  169.58   15.60
   0  -1  -4  259.27   25.40
  -1  -1  -4  166.28   17.70
  -1  -1  -4  244.58   24.90
   1   1   4  220.58   25.10
  -2  -1  -4  663.03   48.20
  -2  -1  -4  653.43   52.79
   2   1   4  625.84   48.20
   2   1   4  718.53   53.69
  -3  -1  -4 1874.81  133.59
  -3  -1  -4 2019.90  131.59
   3   1   4 2011.30  134.89
   3   1   4 1956.20  131.79
  -4  -1  -4 1242.48   87.09
  -4  -1  -4 1145.09   86.79
   4   1   4 1177.28   87.09
   4   1   4 1238.78   89.79
  -5  -1  -4  306.37   39.40
  -5  -1  -4  422.06   41.30
   5   1   4  455.25   45.10
   5   1   4  239.68   37.10
  -6  -1  -4  243.08   37.50
  -6  -1  -4  218.28   33.20
   6   1   4  245.28   38.10
  -7  -1  -4  -49.40   30.40
   7   1   4  -24.90   32.90
   7   1   4    3.10   29.90
  -8  -1  -4   91.29   39.60
   8   1   4   85.29   34.40
  -9  -1  -4   -1.50   41.50
   9   1   4   35.70   35.00
 -10  -1  -4   25.30   49.00
  10   1   4   17.70   39.60
  10  -2  -4   51.39   36.70
 -10   2   4   64.29   45.50
   9  -2  -4    7.20   31.30
  -9   2   4   22.40   38.30
   8  -2  -4   31.10   31.30
  -8   2   4   51.19   35.80
   7  -2  -4  458.45   51.39
  -7   2   4  478.85   57.49
   6  -2  -4   80.59   24.70
   6  -2  -4   88.29   24.90
  -6   2   4   47.40   26.90
  -6   2   4   88.09   18.90
   5  -2  -4  594.54   49.99
   5  -2  -4  508.25   51.59
  -5   2   4  565.84   46.40
  -5   2   4  615.44   55.09
   4  -2  -4  186.58   27.60
   4  -2  -4  199.98   26.10
  -4   2   4  157.28   29.60
  -4   2   4  167.38   22.30
   3  -2  -4  637.54   56.29
   3  -2  -4  745.13   55.59
  -3   2   4  850.61   58.99
  -3   2   4  718.03   53.69
   2  -2  -4 2723.03  176.78
   2  -2  -4 2662.33  177.18
  -2   2   4 2747.82  177.48
  -2   2   4 2679.83  176.48
   1  -2  -4   21.20   10.00
   1  -2  -4   -0.20    9.70
  -1   2   4   19.50   11.20
  -1   2   4    6.40    9.40
   0  -2  -4   57.59   16.10
   0  -2  -4   81.39   10.00
   0   2   4   70.79   10.70
  -1  -2  -4   33.00   16.40
  -1  -2  -4   32.70    9.50
   1   2   4   22.90   15.40
  -2  -2  -4 1634.84  118.79
  -2  -2  -4 1813.02  115.99
   2   2   4 1767.42  119.89
  -3  -2  -4   53.29   18.40
  -3  -2  -4   -2.80   17.40
   3   2   4  -16.10   16.70
   3   2   4   56.09   21.20
  -4  -2  -4  358.06   39.40
  -4  -2  -4  357.66   38.70
   4   2   4  369.56   40.00
   4   2   4  328.77   37.60
  -5  -2  -4   27.20   25.30
  -5  -2  -4   88.39   23.10
   5   2   4   48.40   24.60
   5   2   4   50.89   25.90
  -6  -2  -4  -26.40   23.70
   6   2   4   -3.70   24.40
   6   2   4  -51.49   26.00
  -7  -2  -4  -11.00   27.80
   7   2   4   18.80   30.40
  -8  -2  -4  139.49   43.20
   8   2   4  171.28   42.40
  -9  -2  -4   13.30   42.90
   9   2   4   24.80   36.40
 -10  -2  -4   45.10   47.20
  10   2   4  -47.50   37.80
  10  -3  -4  112.69   43.50
 -10   3   4  174.68   49.80
   9  -3  -4   47.50   33.50
  -9   3   4  -37.40   35.00
   8  -3  -4   33.70   27.80
  -8   3   4   42.60   33.80
   7  -3  -4   11.50   26.00
  -7   3   4   36.90   30.50
   6  -3  -4  117.69   27.40
   6  -3  -4  151.38   29.30
  -6   3   4   78.99   28.50
  -6   3   4  149.29   23.70
   5  -3  -4 1060.69   80.59
   5  -3  -4 1114.19   86.29
  -5   3   4 1114.49   79.89
  -5   3   4 1000.10   82.89
   4  -3  -4  139.89   26.50
   4  -3  -4  116.99   24.50
  -4   3   4  114.69   26.10
  -4   3   4  119.69   21.20
   3  -3  -4 1658.63  108.29
   3  -3  -4 1500.15  108.89
  -3   3   4 1651.43  106.99
  -3   3   4 1510.75  109.39
   2  -3  -4   38.30   14.80
   2  -3  -4   56.79   14.60
  -2   3   4   60.29   15.70
  -2   3   4   54.59   12.30
   1  -3  -4  694.13   47.30
   1  -3  -4  608.24   47.50
  -1   3   4  624.24   47.00
  -1   3   4  661.93   47.80
   0  -3  -4   75.49   11.50
   0  -3  -4   73.19   18.30
   0   3   4   64.89   11.80
  -1  -3  -4 1832.52  121.79
  -1  -3  -4 1713.23  117.39
   1   3   4 1825.22  121.59
  -2  -3  -4  272.77   30.70
  -2  -3  -4  339.67   42.20
   2   3   4  210.68   29.50
  -3  -3  -4 1169.68   88.19
  -3  -3  -4 1183.18   86.09
   3   3   4 1240.78   84.99
   3   3   4 1242.88   89.89
  -4  -3  -4   51.39   20.90
  -4  -3  -4   39.90   24.30
   4   3   4   52.19   20.70
   4   3   4   32.50   23.70
  -5  -3  -4   13.00   22.80
  -5  -3  -4    9.50   18.80
   5   3   4    8.30   20.60
   5   3   4   -9.10   22.90
  -6  -3  -4  -18.60   24.30
   6   3   4  -22.70   23.30
   6   3   4  -39.10   49.30
  -7  -3  -4  -40.40   31.40
   7   3   4  -10.90   30.20
  -8  -3  -4   37.80   39.00
   8   3   4   57.69   36.00
  -9  -3  -4   17.30   40.20
   9   3   4   -3.00   36.70
 -10  -3  -4   43.60   47.60
  10   3   4   -4.40   40.80
  10  -4  -4   -9.60   34.30
 -10   4   4    8.00   42.10
   9  -4  -4  -22.70   31.00
  -9   4   4  -49.60   29.40
   8  -4  -4   92.59   32.90
  -8   4   4   51.89   34.10
   7  -4  -4  177.88   35.00
  -7   4   4  124.69   34.80
   6  -4  -4  636.64   57.39
   6  -4  -4  542.25   61.19
  -6   4   4  599.64   58.89
   5  -4  -4  106.29   34.00
   5  -4  -4  152.28   26.80
  -5   4   4  100.49   19.80
  -5   4   4  125.69   29.10
   4  -4  -4 1094.29   83.99
   4  -4  -4 1091.99   83.59
  -4   4   4 1142.39   85.29
  -4   4   4 1208.08   81.29
   3  -4  -4  -14.30   17.40
   3  -4  -4  -16.90   13.90
  -3   4   4  -20.50   17.80
  -3   4   4    7.60   11.70
   2  -4  -4 1185.68   86.69
   2  -4  -4 1313.27   86.79
  -2   4   4 1325.27   86.19
  -2   4   4 1180.88   87.09
   1  -4  -4   89.19   17.60
   1  -4  -4  119.19   19.90
  -1   4   4  133.89   18.00
  -1   4   4  115.29   16.20
   0  -4  -4 1519.45  100.79
   0  -4  -4 1580.24  104.59
   0  -4  -4 1563.04  100.99
   0   4   4 1346.77  103.79
  -1  -4  -4   98.89   14.50
  -1  -4  -4   76.79   20.60
   1   4   4   93.29   21.10
  -2  -4  -4  903.81   70.39
  -2  -4  -4  939.81   67.19
   2   4   4  916.41   71.49
  -3  -4  -4   87.99   23.10
  -3  -4  -4  150.28   25.10
   3   4   4  106.79   24.30
  -4  -4  -4 1339.87  118.29
  -4  -4  -4 1627.14  109.29
   4   4   4 1597.74  107.39
   4   4   4 1437.66  110.89
  -5  -4  -4   79.29   27.50
  -5  -4  -4   77.49   24.20
   5   4   4   40.40   28.00
   5   4   4   68.19   22.90
  -6  -4  -4   44.40   28.80
   6   4   4   11.80   28.30
   6   4   4   58.59   26.70
   7   4   4   31.10   31.80
  -8  -4  -4    0.60   36.60
   8   4   4   -3.80   37.30
  -9  -4  -4  -19.20   41.00
   9   4   4  -53.59   33.90
 -10  -4  -4   77.39   51.09
  10   4   4   47.10   43.20
  10  -5  -4    4.40   35.40
 -10   5   4   26.80   39.10
   9  -5  -4   -0.50   33.50
  -9   5   4   25.40   35.30
   8  -5  -4  -19.70   28.20
  -8   5   4    5.70   30.50
   7  -5  -4   77.59   31.10
  -7   5   4   55.79   29.80
   6  -5  -4  -20.20   22.60
  -6   5   4   13.50   25.80
   5  -5  -4  591.84   56.49
   5  -5  -4  621.34   55.39
  -5   5   4  586.74   50.79
  -5   5   4  670.33   57.99
   4  -5  -4   35.50   18.80
   4  -5  -4   48.30   20.60
  -4   5   4   31.20   22.80
  -4   5   4   70.49   24.50
   3  -5  -4  591.94   47.80
   3  -5  -4  541.05   48.90
  -3   5   4  515.95   49.70
  -3   5   4  608.24   45.70
   2  -5  -4  -15.30   13.50
   2  -5  -4    5.80   12.40
  -2   5   4    5.50   14.40
  -2   5   4    0.70   12.40
   1  -5  -4  218.68   24.50
   1  -5  -4  221.18   24.30
  -1   5   4  226.08   25.80
   0  -5  -4   31.90   18.90
   0  -5  -4   46.00   13.10
   0  -5  -4   52.19   14.10
   0   5   4    6.80   12.60
  -1  -5  -4 1389.56   99.99
  -1  -5  -4 1406.36   96.09
   1   5   4 1423.06   99.49
  -2  -5  -4  102.69   23.40
  -2  -5  -4  125.49   21.50
  -2  -5  -4   86.09   18.60
   2   5   4   76.99   22.90
  -3  -5  -4  169.78   29.80
  -3  -5  -4  239.18   28.80
   3   5   4  219.68   31.40
  -4  -5  -4 1339.67   96.39
  -4  -5  -4 1177.68   94.99
   4   5   4 1323.97   97.89
  -5  -5  -4  -21.70   19.60
  -5  -5  -4   15.80   25.90
   5   5   4  -14.50   24.30
  -6  -5  -4  271.97   42.30
   6   5   4  204.18   41.30
   6   5   4  199.98   37.70
  -7  -5  -4  -13.50   31.10
   7   5   4   17.20   33.10
  -8  -5  -4   58.19   40.30
   8   5   4   13.30   35.80
  -9  -5  -4   34.50   44.50
   9   5   4    4.30   40.60
  10  -6  -4   20.10   38.50
 -10   6   4   10.40   40.50
   9  -6  -4  -11.20   33.50
  -9   6   4   49.40   39.30
   8  -6  -4  113.69   34.80
  -8   6   4   59.89   35.70
   7  -6  -4   12.30   25.70
  -7   6   4  -25.10   27.70
   6  -6  -4  513.75   52.19
  -6   6   4  384.96   60.29
   5  -6  -4   21.50   23.70
   5  -6  -4   84.89   24.50
  -5   6   4   63.09   22.70
  -5   6   4   40.80   27.70
   4  -6  -4  849.02   67.89
   4  -6  -4  819.12   68.99
  -4   6   4  777.22   69.79
  -4   6   4  946.61   65.29
   3  -6  -4   33.80   17.50
   3  -6  -4  -16.90   16.10
  -3   6   4   12.00   12.80
  -3   6   4  -21.40   18.50
   2  -6  -4   70.49   16.50
   2  -6  -4   80.39   18.80
  -2   6   4   60.59   18.70
  -2   6   4   66.59   16.00
   1  -6  -4   40.10   16.60
   1  -6  -4   91.09   17.30
  -1   6   4   74.59   19.80
   0  -6  -4  533.45   49.70
   0  -6  -4  608.14   44.90
   0  -6  -4  565.44   44.30
   0   6   4  482.95   45.30
  -1  -6  -4  261.87   34.30
  -1  -6  -4  286.47   30.30
  -2  -6  -4  398.16   43.00
  -2  -6  -4  421.46   38.10
  -2  -6  -4  370.96   41.00
   2   6   4  427.86   43.50
  -3  -6  -4  881.31   67.99
  -3  -6  -4  701.23   90.89
   3   6   4  777.42   69.39
  -4  -6  -4   42.10   23.90
  -4  -6  -4   24.00   21.50
   4   6   4   31.70   24.40
  -5  -6  -4  786.22   67.09
   5   6   4  637.24   72.79
  -6  -6  -4   42.50   31.50
   6   6   4    7.00   29.10
  -7  -6  -4   65.69   39.30
   7   6   4   40.60   36.10
  -8  -6  -4   80.19   41.80
   8   6   4   50.99   38.00
  -9  -6  -4   -2.50   44.40
   9   6   4   23.70   39.90
   9  -7  -4   26.60   35.30
  -9   7   4  -15.40   31.50
   8  -7  -4   -8.80   30.10
  -8   7   4    0.90   32.90
   7  -7  -4   34.90   30.70
  -7   7   4   19.40   28.90
   6  -7  -4  667.93   63.09
  -6   7   4  699.73   67.39
   5  -7  -4  449.56   50.49
   5  -7  -4  487.55   52.19
  -5   7   4  501.25   52.79
   4  -7  -4  199.88   28.20
   4  -7  -4   20.10   40.60
  -4   7   4  145.49   22.80
  -4   7   4  128.79   30.30
   3  -7  -4  349.07   38.20
   3  -7  -4  362.06   38.90
  -3   7   4  342.37   40.40
  -3   7   4  346.17   36.40
   2  -7  -4  424.86   42.20
   2  -7  -4  455.75   42.10
  -2   7   4  480.75   41.60
  -2   7   4  517.75   45.20
   1  -7  -4  595.84   48.40
   1  -7  -4  616.64   48.40
  -1   7   4  586.14   50.49
   0  -7  -4  -27.40   19.70
   0  -7  -4    6.30   14.30
   0  -7  -4  -27.10   14.20
   0   7   4   -6.80   15.10
  -1  -7  -4  215.38   33.50
  -1  -7  -4  231.58   27.40
  -2  -7  -4  893.31   66.89
  -2  -7  -4  871.81   77.39
   2   7   4  836.92   70.99
  -3  -7  -4   34.20   18.50
  -3  -7  -4    5.40   21.70
  -3  -7  -4    3.40   21.80
   3   7   4   37.00   23.70
  -4  -7  -4  583.04   59.19
  -4  -7  -4  637.84   61.09
   4   7   4  701.83   62.89
  -5  -7  -4  -18.10   27.50
   5   7   4   63.99   30.20
  -6  -7  -4  650.93   66.89
   6   7   4  528.75   63.99
  -7  -7  -4    4.20   38.00
   7   7   4   15.70   35.70
  -8  -7  -4   22.60   43.60
   8   7   4  -62.29   34.20
  -9  -7  -4  185.78   56.69
   9   7   4  205.58   52.59
   9  -8  -4   78.79   39.90
  -9   8   4   83.09   40.40
   8  -8  -4   -8.80   29.60
  -8   8   4   -4.00   32.90
   7  -8  -4  113.99   34.50
  -7   8   4  115.19   35.50
   6  -8  -4  574.14   57.69
  -6   8   4  545.95   61.39
   5  -8  -4  145.89   30.00
  -5   8   4  130.99   33.80
   4  -8  -4  185.28   30.50
   4  -8  -4  175.68   33.30
  -4   8   4  152.98   30.80
   3  -8  -4  129.29   23.80
   3  -8  -4  145.89   25.50
  -3   8   4  137.09   27.40
  -3   8   4  128.69   21.90
   2  -8  -4  145.29   25.10
   2  -8  -4  175.58   25.90
  -2   8   4  167.08   22.80
  -2   8   4  163.68   26.80
   1  -8  -4   51.89   17.30
   1  -8  -4   47.50   25.90
   1  -8  -4   94.99   19.40
  -1   8   4   83.39   21.10
   0  -8  -4    5.50   13.20
   0  -8  -4   46.90   15.90
   0   8   4   20.30   17.20
  -1  -8  -4  -11.50   15.10
  -1  -8  -4   23.50   15.80
  -1  -8  -4   -8.10   24.20
  -2  -8  -4   68.99   21.10
  -2  -8  -4   98.69   27.90
   2   8   4   58.49   24.90
  -3  -8  -4  386.66   42.60
  -3  -8  -4  288.17   42.00
  -3  -8  -4  393.76   39.90
   3   8   4  288.47   41.60
  -4  -8  -4    6.40   26.60
   4   8   4   38.70   33.40
  -5  -8  -4   76.49   32.60
   5   8   4   32.00   32.70
  -6  -8  -4  243.78   51.99
   6   8   4  189.98   42.20
  -7  -8  -4   41.90   40.10
   7   8   4   14.50   37.30
  -8  -8  -4  279.97   59.39
   8   8   4  238.48   52.39
   9  -9  -4   70.49   36.60
  -9   9   4   26.00   36.00
   8  -9  -4  155.68   40.80
  -8   9   4  145.69   43.00
   7  -9  -4   87.29   32.20
  -7   9   4   83.89   34.60
   6  -9  -4  116.99   32.70
  -6   9   4  119.39   35.10
   5  -9  -4   10.10   24.50
  -5   9   4   36.20   26.90
   4  -9  -4  207.18   32.70
   4  -9  -4  236.48   34.40
  -4   9   4  235.58   36.80
   3  -9  -4  242.48   33.90
   3  -9  -4  227.18   32.20
  -3   9   4  233.38   34.80
   2  -9  -4   18.10   16.30
   2  -9  -4   -2.70   14.70
  -2   9   4   40.90   21.20
  -2   9   4    1.80   12.10
   1  -9  -4   21.40   15.60
   1  -9  -4    4.00   14.50
   1  -9  -4   -2.70   19.40
  -1   9   4   -4.50   17.30
   0  -9  -4    2.50   14.30
   0  -9  -4  -32.30   18.60
   0  -9  -4    1.70   14.90
   0   9   4   -8.40   16.80
  -1  -9  -4   44.40   17.30
  -1  -9  -4   45.80   24.30
  -1  -9  -4   30.30   17.00
  -2  -9  -4   66.99   20.50
  -2  -9  -4   11.20   24.30
  -3  -9  -4   74.49   23.60
  -3  -9  -4  156.48   31.20
   3   9   4  105.59   29.90
  -4  -9  -4  132.19   30.00
  -4  -9  -4  175.28   37.90
   4   9   4  135.79   35.80
  -5  -9  -4   55.69   35.90
   5   9   4   23.10   33.00
  -6  -9  -4   26.30   37.70
   6   9   4   45.10   32.90
  -7  -9  -4  426.66   60.29
   7   9   4  296.17   52.49
  -8  -9  -4  -12.90   41.70
   8   9   4   91.79   43.90
   8 -10  -4  362.06   53.39
  -8  10   4  302.87   54.09
   7 -10  -4  306.17   47.80
  -7  10   4  296.57   50.09
   6 -10  -4   19.20   27.80
  -6  10   4   12.60   31.70
   5 -10  -4  146.99   33.10
  -5  10   4   86.19   31.70
   4 -10  -4  125.39   28.60
  -4  10   4  128.69   32.60
   3 -10  -4    2.90   20.40
   3 -10  -4    7.40   17.40
  -3  10   4    8.90   22.70
   2 -10  -4   71.19   33.80
   2 -10  -4   31.30   22.60
  -2  10   4   71.29   24.80
   1 -10  -4  133.89   32.20
   1 -10  -4  131.79   25.00
   1 -10  -4  216.98   28.70
  -1  10   4  205.58   31.60
   0 -10  -4  113.09   29.50
   0 -10  -4  150.68   26.00
   0 -10  -4  184.38   26.80
   0  10   4  121.79   27.80
  -1 -10  -4   41.30   19.10
  -1 -10  -4   46.10   19.10
  -1 -10  -4   43.00   26.50
  -2 -10  -4    5.80   18.90
  -3 -10  -4   65.79   29.90
  -3 -10  -4   85.49   26.30
   3  10   4   42.40   29.20
  -4 -10  -4   64.79   35.10
  -4 -10  -4   51.49   26.90
   4  10   4   83.99   32.10
  -5 -10  -4  -41.70   48.20
   5  10   4   15.40   32.50
  -6 -10  -4  231.78   49.30
   6  10   4  199.58   44.80
  -7 -10  -4   31.60   44.80
   7  10   4   56.09   38.40
   8 -11  -4   72.89   36.30
  -8  11   4   74.69   39.90
   7 -11  -4   28.30   31.40
  -7  11   4  -15.30   34.90
   6 -11  -4  153.28   34.60
  -6  11   4  113.19   38.60
   5 -11  -4  -39.80   24.00
  -5  11   4   34.30   31.00
   4 -11  -4   52.59   26.60
  -4  11   4   73.49   31.80
   3 -11  -4   60.09   24.50
   3 -11  -4   59.29   23.70
  -3  11   4   77.59   29.00
   2 -11  -4   52.49   21.10
   2 -11  -4   44.70   23.30
  -2  11   4   64.39   26.40
   1 -11  -4  170.78   28.80
   1 -11  -4  169.38   28.90
  -1  11   4  190.88   33.10
   0 -11  -4   29.20   24.70
   0 -11  -4   34.50   21.90
   0  11   4   56.89   27.00
  -1 -11  -4    2.30   19.80
  -1 -11  -4  -31.50   18.80
  -2 -11  -4  163.48   28.00
  -2 -11  -4  108.79   28.30
  -3 -11  -4   11.90   30.90
  -3 -11  -4   -5.40   24.10
  -4 -11  -4   20.30   41.20
   4  11   4   49.90   33.50
  -5 -11  -4  265.77   51.19
   5  11   4  271.17   46.80
  -6 -11  -4    5.40   41.50
   6  11   4   38.40   36.60
  -7 -11  -4  212.48   52.39
   7  11   4   96.89   44.90
   8 -12  -4   14.10   39.30
  -8  12   4   33.30   41.40
   7 -12  -4   11.60   32.40
  -7  12   4   55.29   37.10
   6 -12  -4  -11.40   27.20
  -6  12   4  -14.60   30.40
   5 -12  -4   -5.90   26.50
  -5  12   4   -3.90   29.60
   4 -12  -4  -48.50   22.30
  -4  12   4   16.20   28.20
   3 -12  -4  -50.79   20.70
  -3  12   4   10.90   27.10
   2 -12  -4   54.59   32.70
   2 -12  -4   47.30   23.90
  -2  12   4   53.49   28.30
   1 -12  -4   11.40   19.20
   1 -12  -4   21.50   21.10
  -1  12   4   20.20   26.30
   0 -12  -4   15.40   20.70
   0 -12  -4  -13.00   19.10
  -1 -12  -4  228.98   32.80
  -1 -12  -4  147.59   30.40
  -2 -12  -4   -8.80   21.10
  -2 -12  -4    8.80   23.10
  -3 -12  -4   32.80   39.50
  -4 -12  -4  201.68   45.40
   4  12   4  132.59   38.80
  -5 -12  -4  104.29   44.90
   5  12   4  121.59   39.50
  -6 -12  -4   38.90   46.10
   6  12   4  173.38   44.80
   7 -13  -4   16.30   33.00
  -7  13   4  -18.00   34.70
   6 -13  -4   61.09   30.90
  -6  13   4   20.50   32.00
   5 -13  -4   10.60   28.70
  -5  13   4   12.50   32.10
   4 -13  -4    4.90   27.70
  -4  13   4  104.89   36.10
   3 -13  -4   -8.50   23.80
  -3  13   4   16.10   28.80
   2 -13  -4    4.90   23.00
  -2  13   4   23.50   30.40
   1 -13  -4   30.30   23.90
   0 -13  -4  402.06   45.30
  -1 -13  -4   -0.40   21.00
  -2 -13  -4   72.89   27.30
  -3 -13  -4   30.80   39.70
  -3 -13  -4   18.40   25.60
  -4 -13  -4  -44.50   37.10
  -5 -13  -4   44.70   48.20
   5  13   4  105.09   40.90
   6 -14  -4   21.30   31.50
  -6  14   4   37.70   35.80
   5 -14  -4   -9.10   25.60
  -5  14   4  -59.19   28.80
   4 -14  -4   21.40   27.40
  -4  14   4   12.20   31.70
   3 -14  -4   11.30   26.20
  -3  14   4  -12.80   31.20
   2 -14  -4   35.00   27.30
  -2  14   4   62.79   34.30
   1 -14  -4  104.79   29.50
  -1  14   4  135.59   36.70
   0 -14  -4   -0.20   25.90
  -1 -14  -4   30.40   24.50
  -2 -14  -4   27.20   24.40
  -3 -14  -4   30.80   27.50
  -3 -14  -4   70.39   41.00
  -4 -14  -4  -30.20   41.20
  -5 -14  -4   40.60   47.80
   5 -15  -4    3.30   28.50
  -5  15   4   -5.70   34.90
   4 -15  -4    1.40   27.50
  -4  15   4   34.60   35.40
   3 -15  -4  255.37   41.90
  -3  15   4  290.47   50.19
   2 -15  -4  143.19   35.70
  -2  15   4  121.49   38.20
   1 -15  -4  335.27   45.50
  -1  15   4  295.17   49.99
   0 -15  -4   96.59   31.50
  -1 -15  -4   -2.70   27.20
  -2 -15  -4   86.89   31.50
  -3 -15  -4  -82.89   40.40
  -3 -15  -4   32.30   28.20
  -4 -15  -4   26.40   45.70
  -4 -15  -4  -32.80   26.80
   4 -16  -4   72.79   35.10
  -4  16   4   81.69   42.10
   3 -16  -4   15.10   31.10
  -3  16   4   37.70   38.00
   2 -16  -4  300.37   43.40
  -2  16   4  156.28   44.50
   1 -16  -4  102.89   34.70
  -1  16   4  115.69   42.00
   0 -16  -4  187.48   37.50
  -1 -16  -4   39.30   27.50
  -2 -16  -4   57.89   28.70
   1 -17  -4  153.58   36.50
   1 -20   5   27.60   21.50
  -2  20  -5   -4.90   40.50
   2 -20   5  -11.10   23.00
  -3 -19   5   48.00   32.40
  -3 -19   5   78.29   23.30
  -2 -19   5   22.40   29.10
  -2 -19   5   16.40   18.60
  -1 -19   5   38.30   30.60
  -1 -19   5   95.59   24.20
   0 -19   5   20.20   31.10
   0 -19   5   -3.30   18.40
  -1  19  -5   -7.50   36.30
  -2  19  -5   74.89   39.50
   2 -19   5    8.70   20.60
  -3  19  -5   14.20   35.30
   3 -19   5  -25.00   25.20
  -4  19  -5   17.40   37.30
   4 -19   5   10.50   26.50
  -4 -18   5  112.69   34.50
  -4 -18   5  283.87   64.19
  -4 -18   5  260.47   32.00
  -3 -18   5   19.90   19.00
  -3 -18   5    8.10   25.50
  -2 -18   5   95.99   21.70
  -1 -18   5   18.80   18.10
  -1 -18   5    3.50   34.30
   0 -18   5   55.09   19.90
   0 -18   5   58.59   29.20
  -1  18  -5  212.58   47.20
   1 -18   5   55.99   31.20
   1 -18   5  132.09   25.00
  -2  18  -5   20.70   36.10
   2 -18   5   32.60   27.80
  -3  18  -5   32.70   36.90
   3 -18   5   36.50   25.30
  -4  18  -5  -40.40   32.40
   4 -18   5  -12.60   22.70
  -5  18  -5   42.00   37.20
   5 -18   5   35.70   29.10
  -5 -17   5  132.69   35.40
  -5 -17   5  326.47   65.99
  -5 -17   5  291.87   32.80
  -4 -17   5   40.30   20.00
  -4 -17   5  -17.40   44.90
  -4 -17   5   41.00   26.90
  -3 -17   5   33.80   26.30
  -3 -17   5   10.40   17.30
  -2 -17   5   43.50   17.60
  -2 -17   5   82.79   25.40
  -1 -17   5   48.10   19.00
  -1 -17   5   31.30   26.40
   0 -17   5   56.59   30.20
   0 -17   5   74.29   19.90
  -1  17  -5   28.30   34.30
   1 -17   5   10.40   24.90
   1 -17   5   54.39   19.20
  -2  17  -5   62.39   34.30
   2 -17   5   82.59   24.20
  -3  17  -5   24.60   35.40
   3 -17   5   26.30   25.70
  -4  17  -5  -24.00   30.90
   4 -17   5   -7.80   23.00
  -5  17  -5   15.00   35.30
   5 -17   5   12.70   26.50
  -6  17  -5   56.59   38.00
   6 -17   5   57.99   32.10
  -6 -16   5  227.08   64.79
  -5 -16   5   88.39   50.79
  -5 -16   5   37.00   25.00
  -4 -16   5  159.38   31.70
  -4 -16   5  175.58   25.70
  -4 -16   5  161.48   50.89
  -3 -16   5   37.00   24.20
  -3 -16   5  133.49   21.20
  -2 -16   5  103.29   19.40
  -2 -16   5   91.59   25.80
  -1 -16   5  468.15   38.30
  -1 -16   5  368.06   44.80
   0 -16   5   83.59   20.30
   0 -16   5  113.29   29.00
  -1  16  -5   98.39   35.20
   1 -16   5   70.09   19.50
   1 -16   5   38.80   25.10
  -2  16  -5  395.16   55.89
   2 -16   5  473.75   43.50
  -3  16  -5  -12.20   30.30
  -3  16  -5    9.60   15.00
   3 -16   5  -23.70   17.80
  -4  16  -5   82.69   33.70
   4 -16   5   60.09   25.10
  -5  16  -5   24.60   32.20
   5 -16   5   53.29   26.30
  -6  16  -5  107.89   41.10
   6 -16   5  101.29   33.40
  -7  16  -5   80.99   41.00
   7 -16   5   94.19   38.30
   6  15  -5  117.39   33.00
  -6 -15   5   87.89   28.00
  -6 -15   5  184.28   52.09
  -5 -15   5   95.19   49.00
  -4 -15   5   99.69   45.90
  -4 -15   5   48.50   21.90
  -3 -15   5   91.79   17.90
  -3 -15   5   34.10   21.50
  -2 -15   5  555.64   42.00
  -2 -15   5  434.86   47.20
  -1 -15   5   -3.60   13.40
  -1 -15   5   -4.10   21.20
   0 -15   5  462.25   38.80
   0 -15   5  428.26   44.80
  -1  15  -5  129.99   34.80
   1 -15   5  130.89   21.30
  -2  15  -5    8.90   13.90
  -2  15  -5   33.70   30.30
   2 -15   5   36.50   18.00
  -3  15  -5  442.36   53.29
  -3  15  -5  354.26   37.30
   3 -15   5  378.86   41.10
  -4  15  -5   26.20   30.80
  -5  15  -5  347.57   53.39
   5 -15   5  392.16   48.30
  -6  15  -5   99.09   37.30
   6 -15   5   88.59   33.10
  -7  15  -5  235.18   50.19
   7 -15   5  336.07   52.59
  -8  15  -5   82.19   58.39
   8 -15   5    2.70   36.00
   7  14  -5  -24.60   38.70
  -7 -14   5   73.89   49.80
   6  14  -5   38.50   28.70
  -6 -14   5   44.70   24.50
  -6 -14   5   32.50   45.50
   5  14  -5  110.79   29.40
  -5 -14   5   68.49   44.10
  -5 -14   5  119.09   26.60
  -4 -14   5   82.09   39.70
  -4 -14   5    9.00   17.40
  -3 -14   5  256.17   30.90
  -3 -14   5  279.87   28.70
  -2 -14   5  102.89   22.30
  -2 -14   5  137.59   18.30
  -1 -14   5  201.38   28.90
  -1 -14   5  269.17   25.80
   0 -14   5  741.23   63.89
   0 -14   5  853.11   59.09
  -1  14  -5  402.66   49.00
   1 -14   5  346.77   34.50
  -2  14  -5  653.53   66.19
  -2  14  -5  554.44   48.70
   2 -14   5  694.53   51.29
  -3  14  -5   14.70   12.80
  -3  14  -5   22.00   28.10
   3 -14   5   44.10   19.50
  -4  14  -5  424.76   54.39
  -4  14  -5  380.56   39.50
   4 -14   5  504.85   47.40
  -5  14  -5  -25.70   27.70
   5 -14   5    6.80   23.80
  -6  14  -5  508.95   62.09
   6 -14   5  379.86   50.99
  -7  14  -5   13.30   33.10
   7 -14   5   41.90   34.10
  -8  14  -5   83.99   38.30
   8 -14   5   28.90   38.90
   7  13  -5   16.20   37.20
  -7 -13   5   18.50   45.30
   6  13  -5   61.79   30.30
  -6 -13   5   18.20   42.70
  -6 -13   5   15.00   21.10
   5  13  -5   -2.90   22.30
  -5 -13   5    9.50   34.10
  -5 -13   5   29.30   19.40
  -4 -13   5   91.99   21.60
  -4 -13   5   87.39   37.70
  -3 -13   5  104.49   20.20
  -2 -13   5  212.68   22.40
  -2 -13   5  203.08   25.50
  -1 -13   5  633.64   45.20
  -1 -13   5  585.74   50.19
   0 -13   5  215.18   27.80
   0 -13   5  218.48   23.30
   1 -13   5  635.84   48.90
  -2  13  -5  132.89   19.90
  -2  13  -5  181.88   34.90
   2 -13   5  167.98   24.20
  -3  13  -5  714.43   66.59
  -3  13  -5  670.43   53.49
   3 -13   5  724.83   56.79
  -4  13  -5    3.30   25.20
  -4  13  -5   66.89   16.00
   4 -13   5   25.30   19.60
  -5  13  -5  613.14   64.59
   5 -13   5  579.94   58.79
  -6  13  -5   48.60   29.10
   6 -13   5  -12.50   25.30
  -7  13  -5  202.78   45.10
   7 -13   5  182.08   41.80
  -8  13  -5   58.89   38.40
   8 -13   5   63.79   36.80
   8  12  -5   25.90   36.30
  -8 -12   5   19.80   49.30
   7  12  -5  -34.40   29.20
  -7 -12   5   74.89   47.40
   6  12  -5   51.79   27.70
  -6 -12   5   15.30   23.30
  -6 -12   5   20.60   37.60
   5  12  -5   22.50   24.50
  -5 -12   5   12.00   35.60
  -5 -12   5    0.30   17.70
   4  12  -5   83.49   20.80
  -4 -12   5   13.60   32.80
  -4 -12   5   78.29   18.10
  -3 -12   5   69.59   17.20
  -2 -12   5  462.75   38.70
  -2 -12   5  431.56   34.10
   0  12  -5 1879.21  139.29
   0 -12   5 1891.21  129.69
   0 -12   5 1980.70  127.39
   0 -12   5 1942.21  137.79
   1 -12   5   61.39   19.70
  -2  12  -5 1708.63  118.09
  -2  12  -5 1753.52  128.19
   2 -12   5 1806.62  119.89
   2 -12   5 1776.82  127.79
  -3  12  -5  191.88   23.60
   3 -12   5  198.48   28.00
  -4  12  -5  177.08   23.70
  -4  12  -5  144.19   34.70
   4 -12   5  185.68   30.10
  -5  12  -5   40.10   26.30
   5 -12   5    2.40   21.60
  -6  12  -5  249.18   44.00
   6 -12   5  246.18   40.60
  -7  12  -5  176.38   42.10
   7 -12   5  184.18   39.40
  -8  12  -5   67.59   36.50
   8 -12   5   73.39   36.50
  -9  12  -5  142.59   45.50
   9 -12   5   54.69   40.20
   8  11  -5   -0.80   31.10
  -8 -11   5  -62.99   43.30
   7  11  -5  199.78   37.80
  -7 -11   5  115.49   28.40
  -7 -11   5  185.38   49.80
   6  11  -5  -19.40   23.90
  -6 -11   5   35.00   36.50
  -6 -11   5   68.99   30.10
   5  11  -5    0.70   20.00
  -5 -11   5   26.30   17.80
  -5 -11   5   38.80   34.90
   4  11  -5    3.90   17.80
  -4 -11   5   -4.50   13.50
  -4 -11   5   -9.20   30.00
  -3 -11   5  198.18   22.30
  -3 -11   5  155.48   35.80
  -2 -11   5   13.70   19.90
  -2 -11   5    6.90   11.70
  -2 -11   5  -28.90   14.90
  -1 -11   5 1490.45   94.29
  -1 -11   5 1334.07  100.79
  -1 -11   5 1423.66  105.39
   0  11  -5  145.99   31.60
   0 -11   5   85.09   27.90
   0 -11   5   98.69   23.10
   0 -11   5  108.39   18.30
  -1  11  -5  789.12   52.89
  -1  11  -5  762.92   65.99
   1 -11   5  710.23   63.39
   1 -11   5  701.73   54.29
  -2  11  -5   38.60   24.40
  -2  11  -5  -27.80   14.90
   2 -11   5   65.19   22.00
   2 -11   5  -31.20   18.10
  -3  11  -5 1025.60   86.09
  -3  11  -5 1135.19   77.09
   3 -11   5 1005.30   84.79
   3 -11   5 1179.08   79.99
  -4  11  -5   38.20   46.20
   4 -11   5   26.40   20.10
  -5  11  -5  154.78   24.70
  -5  11  -5  213.58   36.90
   5 -11   5  192.58   32.20
  -6  11  -5  258.17   43.60
   6 -11   5  279.17   41.90
  -7  11  -5   69.49   33.70
   7 -11   5   92.59   32.90
  -8  11  -5  258.47   48.00
   8 -11   5  196.18   45.90
  -9  11  -5    8.50   34.10
   9 -11   5  -10.50   33.40
   9  10  -5   -3.50   37.20
  -9 -10   5  -32.70   43.10
   8  10  -5  -32.10   31.10
  -8 -10   5   18.90   43.80
   7  10  -5   13.40   28.70
  -7 -10   5   40.20   20.80
  -7 -10   5    9.60   39.30
   6  10  -5   92.19   28.90
  -6 -10   5   70.79   35.30
  -6 -10   5   59.89   20.60
   5  10  -5    6.20   20.10
  -5 -10   5   32.20   26.30
  -5 -10   5   -8.10   15.00
   4  10  -5  -37.80   15.30
  -4 -10   5  -19.10   12.70
   3  10  -5   55.99   15.80
  -3 -10   5   47.90   13.00
  -3 -10   5   20.40   24.40
  -2 -10   5  117.89   25.30
  -2 -10   5  120.49   17.20
  -1 -10   5  193.88   39.00
  -1 -10   5  168.58   23.80
  -1 -10   5  198.38   20.20
   0  10  -5 1337.27   97.19
   0 -10   5 1168.48   94.09
   0 -10   5 1283.77   85.19
  -1  10  -5  439.46   48.80
  -1  10  -5  447.46   36.90
   1 -10   5  411.96   38.30
   1 -10   5  504.05   49.70
  -2  10  -5  735.63   61.39
  -2  10  -5  668.23   50.99
   2 -10   5  731.23   52.99
  -3  10  -5   39.00   12.70
  -3  10  -5   80.69   25.40
   3 -10   5   32.30   18.20
   3 -10   5   78.29   17.80
  -4  10  -5   92.69   27.00
  -4  10  -5  157.48   21.40
   4 -10   5  130.29   25.40
   4 -10   5  134.39   27.10
  -5  10  -5   83.69   29.00
  -5  10  -5   47.80   16.60
   5 -10   5   43.40   22.00
  -6  10  -5  129.89   32.80
   6 -10   5  152.88   31.70
  -7  10  -5  337.17   47.90
   7 -10   5  274.47   46.10
  -8  10  -5   55.99   35.40
   8 -10   5  111.89   39.10
  -9  10  -5  234.08   53.19
   9 -10   5  216.38   50.39
   9   9  -5   32.00   37.70
  -9  -9   5   23.00   45.90
   8   9  -5   10.00   33.20
  -8  -9   5   38.20   42.40
   7   9  -5   70.79   30.10
  -7  -9   5   67.69   21.60
  -7  -9   5  120.59   40.70
   6   9  -5  114.59   29.90
  -6  -9   5  123.79   22.90
  -6  -9   5  108.29   37.80
   5   9  -5   13.40   19.30
  -5  -9   5    2.40   14.30
  -5  -9   5   32.60   27.40
   4   9  -5   72.49   19.50
  -4  -9   5   96.39   16.90
  -4  -9   5   88.39   30.40
   3   9  -5   -0.40   13.40
  -3  -9   5   14.90   23.80
  -3  -9   5    1.70   10.70
  -2  -9   5  646.54   57.99
  -2  -9   5  696.73   48.10
  -1  -9   5 1565.34  104.29
  -1  -9   5 1620.54  114.29
  -1  -9   5 1645.84  105.79
   0   9  -5  381.96   44.20
   0  -9   5  416.26   43.00
  -1   9  -5  464.55   47.10
  -1   9  -5  422.16   33.40
   1  -9   5  409.36   44.60
   1  -9   5  484.65   35.20
  -2   9  -5  364.66   40.00
  -2   9  -5  250.17   28.60
   2  -9   5  382.16   33.10
   2  -9   5  420.16   41.20
  -3   9  -5  490.85   39.70
  -3   9  -5  477.75   49.90
   3  -9   5  504.65   42.90
   3  -9   5  532.35   51.89
  -4   9  -5  268.47   30.60
  -4   9  -5  335.87   41.60
   4  -9   5  431.76   37.90
   4  -9   5  318.97   40.00
  -5   9  -5   77.49   18.90
  -5   9  -5   71.69   27.10
   5  -9   5   80.99   24.60
   5  -9   5   63.19   27.20
  -6   9  -5  234.08   38.00
   6  -9   5  161.78   39.10
  -7   9  -5  125.89   34.90
   7  -9   5   35.90   28.50
  -8   9  -5  115.89   40.20
   8  -9   5  105.39   39.40
  -9   9  -5   25.30   38.70
   9  -9   5   67.29   39.50
 -10   9  -5  122.99   47.90
  10  -9   5   37.20   41.80
   9   8  -5  -10.60   33.30
  -9  -8   5  -21.50   41.90
   8   8  -5   99.69   37.30
  -8  -8   5   70.09   43.50
   7   8  -5  150.08   35.00
  -7  -8   5  181.08   44.00
  -7  -8   5   95.99   24.70
   6   8  -5   11.80   25.60
  -6  -8   5   -7.10   29.20
  -6  -8   5   31.30   17.00
   5   8  -5  701.73   53.49
  -5  -8   5  609.54   48.50
  -5  -8   5  403.66   69.89
   4   8  -5  136.39   21.70
  -4  -8   5  112.09   17.60
  -4  -8   5   80.39   31.20
   3   8  -5 1074.49   75.49
  -3  -8   5 1107.99   85.89
   2   8  -5   30.90   11.10
  -2  -8   5   61.79   10.10
  -2  -8   5   57.59   20.10
  -1  -8   5 1098.89   80.79
   0   8  -5   -2.20   16.50
   0  -8   5   13.90    7.20
   0  -8   5   41.00   17.50
  -1   8  -5  105.19   24.50
  -1   8  -5  129.59   14.10
   1  -8   5   94.59   23.40
   1  -8   5  115.79   18.80
  -2   8  -5   41.70   11.70
  -2   8  -5   41.50   20.10
   2  -8   5   40.30   14.50
   2  -8   5   -4.10   17.30
  -3   8  -5  271.87   27.90
  -3   8  -5  285.57   35.60
   3  -8   5  284.37   32.20
   3  -8   5  331.67   36.30
  -4   8  -5   -1.50   21.40
  -4   8  -5   29.60   14.10
   4  -8   5   43.70   18.40
  -5   8  -5   16.10   15.30
  -5   8  -5   61.29   23.20
   5  -8   5    2.10   17.70
   5  -8   5   -3.40   19.70
  -6   8  -5   30.40   28.10
   6  -8   5   52.99   30.70
  -7   8  -5   15.20   29.90
   7  -8   5   42.30   31.90
  -8   8  -5  213.48   44.80
   8  -8   5  226.78   44.30
  -9   8  -5   89.49   40.90
   9  -8   5   35.40   35.10
 -10   8  -5   90.89   45.90
  10  -8   5  107.99   43.60
  10   7  -5   56.69   40.60
 -10  -7   5   52.49   64.59
   9   7  -5   67.79   39.20
  -9  -7   5   98.69   49.20
   8   7  -5   42.00   32.70
  -8  -7   5   38.20   38.70
   7   7  -5  134.09   31.90
  -7  -7   5   63.39   22.10
  -7  -7   5   42.90   36.30
   6   7  -5  406.96   43.60
  -6  -7   5  412.36   51.79
  -6  -7   5  339.97   37.10
   5   7  -5  188.48   29.10
  -5  -7   5  169.78   33.40
  -5  -7   5  238.28   25.90
   4   7  -5  652.33   50.39
  -4  -7   5  609.24   58.89
  -4  -7   5  628.74   47.30
   3   7  -5  308.07   33.80
  -3  -7   5  219.08   33.50
  -3  -7   5  223.28   22.60
   2   7  -5 2144.79  137.69
  -2  -7   5 2104.79  137.29
  -1  -7   5   48.80   15.90
   0   7  -5   87.59    9.30
   0   7  -5   62.49   20.10
   0  -7   5  104.59   10.10
   0  -7   5   99.39   19.00
  -1   7  -5  109.09   13.00
  -1   7  -5   98.19   21.20
   1  -7   5  112.59   20.60
   1  -7   5  123.19   14.70
  -2   7  -5  743.83   54.39
  -2   7  -5  774.22   61.29
   2  -7   5  793.32   60.89
   2  -7   5  783.62   56.69
  -3   7  -5  100.39   17.30
  -3   7  -5  116.89   24.00
   3  -7   5   83.79   19.30
   3  -7   5  113.69   23.10
  -4   7  -5  485.65   40.40
  -4   7  -5  472.75   46.00
   4  -7   5  517.25   44.70
   4  -7   5  411.56   44.20
  -5   7  -5  -32.40   21.10
  -5   7  -5   29.00   15.70
   5  -7   5   25.90   21.50
   5  -7   5    9.60   18.60
  -6   7  -5   33.20   25.70
   6  -7   5   22.60   25.90
  -7   7  -5   30.60   29.40
   7  -7   5   66.49   31.70
  -8   7  -5   65.99   35.80
   8  -7   5  114.99   38.70
  -9   7  -5  152.88   43.00
   9  -7   5   24.10   36.50
 -10   7  -5   77.49   42.80
  10  -7   5   24.10   38.30
  10   6  -5   60.19   42.40
 -10  -6   5   35.20   48.60
   9   6  -5  -25.40   33.40
  -9  -6   5   10.80   41.90
   8   6  -5  205.98   41.10
  -8  -6   5  206.18   46.40
   7   6  -5   91.49   30.00
  -7  -6   5   38.50   19.60
  -7  -6   5   51.79   35.30
   6   6  -5  749.53   61.19
  -6  -6   5  634.34   54.89
  -6  -6   5  755.52   70.19
   5   6  -5  518.05   45.50
   5   6  -5  510.15   52.39
  -5  -6   5  506.85   54.49
  -5  -6   5  413.36   40.40
   4   6  -5   86.79   20.80
  -4  -6   5  135.79   17.00
  -4  -6   5   80.59   26.50
   3   6  -5  553.74   46.90
  -3  -6   5  468.65   45.20
  -3  -6   5  374.06   32.80
   2   6  -5  196.78   16.50
  -2  -6   5  131.69   14.50
  -2  -6   5  182.08   26.80
  -1  -6   5  130.89   20.90
   0   6  -5  223.58   29.20
   0  -6   5  263.27   28.50
  -1   6  -5  356.26   28.50
  -1   6  -5  403.66   36.70
   1  -6   5  345.97   35.90
   1  -6   5  421.66   30.10
  -2   6  -5  185.68   20.10
  -2   6  -5  212.08   26.20
   2  -6   5  184.28   22.00
   2  -6   5  175.08   24.60
  -3   6  -5   71.39   19.90
  -3   6  -5   57.89   16.30
   3  -6   5   73.69   19.60
   3  -6   5   83.89   19.40
  -4   6  -5   40.60   15.30
  -4   6  -5   18.50   20.70
   4  -6   5   62.19   20.40
   4  -6   5   28.50   17.30
  -5   6  -5  597.44   56.79
  -5   6  -5  629.34   74.79
   5  -6   5  706.13   57.79
  -6   6  -5   10.50   17.00
  -6   6  -5   31.00   23.40
   6  -6   5   22.30   26.70
   6  -6   5   13.20   22.00
  -7   6  -5  158.38   34.80
   7  -6   5   69.39   33.20
  -8   6  -5  378.66   54.49
   8  -6   5  368.16   52.09
  -9   6  -5   40.50   36.50
   9  -6   5   44.70   36.50
 -10   6  -5  207.88   53.09
  10  -6   5  147.79   46.20
  10   5  -5   -8.30   37.40
 -10  -5   5   -8.50   42.90
   9   5  -5  201.78   44.00
  -9  -5   5  292.77   56.59
   8   5  -5   22.50   29.50
  -8  -5   5   25.00   38.30
   7   5  -5  362.26   41.60
  -7  -5   5  310.87   48.30
  -7  -5   5  290.17   35.40
   6   5  -5    2.50   21.90
  -6  -5   5   -6.20   15.00
  -6  -5   5   65.99   60.89
   5   5  -5  197.18   28.90
   5   5  -5  235.18   34.90
  -5  -5   5  213.58   24.70
  -5  -5   5  151.68   34.50
   4   5  -5  432.76   44.90
   4   5  -5  400.36   38.10
  -4  -5   5  414.46   34.70
  -4  -5   5  445.16   47.30
   3   5  -5  316.27   30.40
  -3  -5   5  309.67   35.80
  -3  -5   5  257.47   25.30
   2   5  -5  137.29   14.50
  -2  -5   5  138.39   23.00
  -2  -5   5  135.29   12.90
   0   5  -5  140.79   21.10
   0  -5   5  128.89   19.10
  -1   5  -5  487.75   35.60
  -1   5  -5  457.35   41.20
   1  -5   5  501.15   36.50
   1  -5   5  488.65   40.70
  -2   5  -5   20.70   14.60
  -2   5  -5   36.60   11.90
   2  -5   5   41.00   14.90
   2  -5   5   29.90   14.90
  -3   5  -5  371.86   36.20
  -3   5  -5  326.87   33.40
   3  -5   5  396.66   35.40
   3  -5   5  331.87   36.40
  -4   5  -5  240.58   30.50
  -4   5  -5  343.27   35.60
   4  -5   5  321.47   34.20
   4  -5   5  294.87   35.50
  -5   5  -5  296.67   37.00
   5  -5   5  262.17   35.50
   5  -5   5  291.17   36.70
  -6   5  -5  478.05   49.20
  -6   5  -5  431.56   42.70
   6  -5   5  419.76   47.70
   6  -5   5  377.06   47.80
  -7   5  -5   55.29   29.70
   7  -5   5   98.59   32.00
  -8   5  -5  -26.20   32.60
   8  -5   5   -1.60   32.00
  -9   5  -5  209.78   49.90
   9  -5   5  158.48   43.50
 -10   5  -5   20.20   47.50
  10  -5   5   29.60   38.60
  10   4  -5  201.08   46.00
 -10  -4   5  140.69   53.09
   9   4  -5   23.00   35.00
  -9  -4   5   32.50   39.30
   8   4  -5  561.14   60.19
  -8  -4   5  493.85   67.39
   7   4  -5  115.39   27.80
  -7  -4   5   60.99   20.10
  -7  -4   5   64.39   34.20
   6   4  -5  660.93   54.09
  -6  -4   5  616.94   62.39
  -6  -4   5  510.95   47.80
   5   4  -5   20.50   20.10
   5   4  -5   29.10   18.90
  -5  -4   5  -15.20   13.20
  -5  -4   5   23.40   24.70
   4   4  -5   -1.50   18.90
   4   4  -5   12.80   14.40
  -4  -4   5    2.90   10.50
  -4  -4   5    8.00   19.90
   3   4  -5   43.90   12.50
   2   4  -5   28.10    9.20
  -2  -4   5   55.29   17.80
  -2  -4   5   30.30    7.70
   0   4  -5  100.19   11.60
   0   4  -5   84.69   17.70
   0  -4   5   88.39   11.50
  -1   4  -5  341.67   28.20
  -1   4  -5  325.27   31.10
   1  -4   5  310.07   28.40
   1  -4   5  368.86   43.90
  -2   4  -5  247.68   26.70
  -2   4  -5  275.87   28.60
   2  -4   5  302.97   29.00
   2  -4   5  265.27   27.80
  -3   4  -5  915.41   65.29
  -3   4  -5  866.11   65.69
   3  -4   5  915.51   65.39
   3  -4   5  863.81   66.69
  -4   4  -5   77.49   21.50
  -4   4  -5   77.19   21.30
   4  -4   5   57.59   20.30
   4  -4   5   71.09   24.60
  -5   4  -5  572.34   69.99
  -5   4  -5  688.53   57.99
   5  -4   5  652.73   57.19
   5  -4   5  726.13   59.99
  -6   4  -5  103.49   26.60
  -6   4  -5   44.70   20.30
   6  -4   5   36.70   24.00
   6  -4   5   85.19   28.50
   7  -4   5  418.66   53.59
  -8   4  -5  351.76   52.19
   8  -4   5  271.17   49.20
  -9   4  -5    1.20   37.90
   9  -4   5   73.19   38.10
 -10   4  -5  328.37   64.49
  10  -4   5  212.68   52.49
  10   3  -5   96.39   39.70
 -10  -3   5   13.50   44.10
   9   3  -5  891.51   77.49
  -9  -3   5  664.03   83.29
   8   3  -5   62.79   29.30
  -8  -3   5   62.69   37.80
   7   3  -5  432.26   44.90
  -7  -3   5  307.57   36.40
  -7  -3   5  288.07   48.10
   6   3  -5  260.17   40.90
   6   3  -5  279.67   34.90
  -6  -3   5  344.87   33.40
  -6  -3   5  331.47   45.80
   5   3  -5  357.26   36.70
   5   3  -5  227.98   60.99
  -5  -3   5  375.26   46.60
  -5  -3   5  362.26   32.90
   4   3  -5  691.63   51.39
   4   3  -5  599.84   56.59
  -4  -3   5  735.73   59.49
  -4  -3   5  634.84   49.00
   3   3  -5  205.38   21.90
   3   3  -5  248.28   28.80
  -3  -3   5  208.78   20.70
  -3  -3   5  168.98   27.10
   2   3  -5   64.49   10.90
   2   3  -5   86.19   17.50
  -2  -3   5   82.59   16.80
  -2  -3   5   50.99    9.70
   1   3  -5  117.09   13.00
  -1  -3   5  141.09   20.10
   0   3  -5  213.68   19.50
   0  -3   5  200.38   22.70
   0  -3   5  209.38   20.90
  -1   3  -5   17.90   13.30
  -1   3  -5   39.00   12.80
   1  -3   5   49.99   12.60
   1  -3   5   21.20   13.10
  -2   3  -5  167.98   19.90
  -2   3  -5  189.98   22.30
   2  -3   5  163.78   32.60
   2  -3   5  143.29   22.10
  -3   3  -5    6.20   15.20
  -3   3  -5   25.50   14.90
   3  -3   5   20.70   18.30
   3  -3   5   26.70   14.30
  -4   3  -5  623.94   51.79
  -4   3  -5  609.74   50.59
   4  -3   5  630.14   50.59
   4  -3   5  532.35   53.99
  -5   3  -5   14.60   35.80
  -5   3  -5   89.29   22.60
   5  -3   5  105.69   29.10
   5  -3   5  100.49   23.00
  -6   3  -5  202.48   33.10
  -6   3  -5  205.18   30.90
   6  -3   5  210.48   33.60
   6  -3   5  211.08   36.70
  -7   3  -5   10.00   30.40
   7  -3   5   69.29   31.40
  -8   3  -5   36.50   37.10
   8  -3   5   53.99   35.00
  -9   3  -5  215.78   47.30
   9  -3   5  115.09   41.80
 -10   3  -5   59.69   48.50
  10  -3   5   35.30   41.00
  10   2  -5  382.86   56.89
 -10  -2   5  364.06   65.89
   9   2  -5   34.20   33.00
  -9  -2   5   44.80   40.20
   8   2  -5  351.96   47.10
  -8  -2   5  287.57   51.69
   7   2  -5  211.08   33.50
  -7  -2   5  254.07   43.10
  -7  -2   5  197.38   27.60
   6   2  -5  282.17   45.50
   6   2  -5  431.56   42.10
  -6  -2   5  446.86   51.59
  -6  -2   5  454.05   53.99
   5   2  -5  184.08   36.00
   5   2  -5  218.48   28.60
  -5  -2   5  268.57   27.00
  -5  -2   5  238.38   35.70
   4   2  -5   91.09   17.40
   4   2  -5   51.49   21.20
  -4  -2   5   57.09   24.10
  -4  -2   5  101.39   15.10
   3   2  -5  649.43   51.59
   3   2  -5  615.54   46.40
  -3  -2   5  601.04   45.40
  -3  -2   5  661.73   52.69
   2   2  -5 1100.79   82.29
   2   2  -5 1175.48   81.19
  -2  -2   5 1179.28   81.89
  -2  -2   5 1154.98   76.89
   1   2  -5  171.68   16.60
  -1  -2   5  185.88   22.60
  -1  -2   5  176.28   16.30
   0   2  -5  623.94   45.40
   0  -2   5  653.63   44.10
   0  -2   5  594.94   45.50
  -1   2  -5  450.05   36.70
  -1   2  -5  440.16   33.00
   1  -2   5  424.86   32.90
   1  -2   5  421.46   39.90
  -2   2  -5 2406.16  154.68
  -2   2  -5 2258.67  155.98
   2  -2   5 2419.86  154.28
   2  -2   5 2330.07  156.68
  -3   2  -5 1091.49   75.99
  -3   2  -5 1046.80   77.89
   3  -2   5 1113.19   76.69
   3  -2   5 1076.89   79.39
  -4   2  -5  392.16   39.20
  -4   2  -5  359.36   38.30
   4  -2   5  440.56   43.70
   4  -2   5  364.66   39.00
  -5   2  -5  243.38   33.30
   5  -2   5  245.28   32.60
   5  -2   5  235.78   36.30
  -6   2  -5   53.99   21.40
  -6   2  -5   62.49   28.20
   6  -2   5  123.49   39.50
   6  -2   5   64.49   30.00
  -7   2  -5  184.08   37.30
   7  -2   5  203.68   41.30
   7  -2   5  182.18   42.50
  -8   2  -5   27.30   35.30
   8  -2   5   68.39   37.70
  -9   2  -5   35.80   38.30
   9  -2   5    6.20   36.90
 -10   2  -5   79.19   47.40
  10  -2   5   29.20   41.20
  10   1  -5   46.50   36.90
 -10  -1   5  -13.90   44.90
   9   1  -5  163.18   41.90
  -9  -1   5  240.98   52.59
   8   1  -5  228.28   38.00
  -8  -1   5  103.69   40.50
   7   1  -5   30.10   23.00
  -7  -1   5   79.69   34.50
   6   1  -5  568.44   58.99
   6   1  -5  646.04   55.39
  -6  -1   5  646.94   62.19
  -6  -1   5  683.73   52.59
   5   1  -5  302.77   42.90
   5   1  -5  395.46   39.40
  -5  -1   5  447.56   36.20
  -5  -1   5  457.45   46.60
   4   1  -5 1032.30   71.79
   4   1  -5  911.21   75.79
  -4  -1   5 1086.89   77.99
  -4  -1   5  984.40   70.59
   3   1  -5 1728.53  118.89
   3   1  -5 1733.13  115.59
  -3  -1   5 1725.83  119.19
  -3  -1   5 1736.33  114.79
   2   1  -5  296.27   26.40
   2   1  -5  301.67   31.20
  -2  -1   5  316.47   25.40
  -2  -1   5  284.77   32.20
   1   1  -5  263.57   26.40
  -1  -1   5  195.88   23.40
  -1  -1   5  262.17   21.20
   0   1  -5  165.08   20.30
   0  -1   5  139.89   14.60
   0  -1   5  165.38   27.90
  -1   1  -5  620.54   41.40
  -1   1  -5  607.34   46.70
   1  -1   5  634.44   47.40
   1  -1   5  575.24   41.20
  -2   1  -5  378.76   34.80
  -2   1  -5  376.56   29.70
   2  -1   5  330.47   30.10
   2  -1   5  402.06   36.30
  -3   1  -5 2732.23  183.68
  -3   1  -5 2763.62  181.68
   3  -1   5 2652.03  181.48
   3  -1   5 2940.61  185.28
  -4   1  -5  684.33   56.19
  -4   1  -5  676.23   56.39
   4  -1   5  627.74   55.59
   4  -1   5  748.63   59.19
  -5   1  -5  374.56   42.90
  -5   1  -5  352.86   42.20
   5  -1   5  310.37   40.20
   5  -1   5  433.06   44.70
  -6   1  -5  166.08   32.70
   6  -1   5  135.09   52.09
   6  -1   5  145.69   32.40
  -7   1  -5  -36.60   30.00
   7  -1   5  -56.99   27.00
   7  -1   5   53.19   29.60
  -8   1  -5  115.09   39.40
   8  -1   5   14.60   32.60
  -9   1  -5   30.30   43.30
   9  -1   5   15.70   35.90
 -10   1  -5    4.30   45.60
  10  -1   5    3.50   41.40
  10   0  -5   45.40   37.50
 -10   0   5   -4.00   43.50
   9   0  -5   26.70   30.90
  -9   0   5  -22.20   36.20
   8   0  -5    2.10   27.70
  -8   0   5   60.49   37.70
   7   0  -5  358.86   57.49
  -7   0   5  323.87   48.60
   6   0  -5   43.50   22.30
   6   0  -5   34.50   20.20
  -6   0   5   37.70   14.70
  -6   0   5  -19.40   22.40
   5   0  -5  742.03   58.19
   5   0  -5  648.04   61.39
  -5   0   5  774.22   56.09
  -5   0   5  780.12   64.69
   4   0  -5  549.25   50.49
   4   0  -5  610.74   46.40
  -4   0   5  626.24   52.69
  -4   0   5  496.45   43.70
   3   0  -5   46.60   15.10
   3   0  -5   48.00   18.20
  -3   0   5   47.80   19.90
  -3   0   5   28.40   11.70
   2   0  -5 1992.70  133.99
   2   0  -5 2181.78  136.59
  -2   0   5 1973.90  133.49
  -2   0   5 2015.10  135.59
   1   0  -5  120.49   15.70
   1   0  -5  111.79   14.60
  -1   0   5  103.49   14.00
  -1   0   5  128.89   16.20
   0   0  -5 2053.99  133.49
   0   0   5 1964.40  133.09
  -1   0  -5   44.30   15.60
   1   0   5   49.00   16.40
  -2   0  -5 1945.31  122.49
  -2   0  -5 1818.22  126.59
   2   0   5 1860.01  127.09
   2   0   5 1839.92  122.59
  -3   0  -5   16.30   16.60
  -3   0  -5   -0.30   15.10
   3   0   5   27.30   18.80
   3   0   5  -49.10   14.70
  -4   0  -5 1984.40  133.59
  -4   0  -5 1874.31  131.89
   4   0   5 1911.71  131.89
   4   0   5 1970.40  135.69
  -5   0  -5  274.97   32.20
  -5   0  -5  173.28   32.70
   5   0   5  149.49   31.90
   5   0   5  223.08   33.80
  -6   0  -5  -21.90   23.90
   6   0   5   25.90   24.30
   6   0   5  -23.40   28.40
  -7   0  -5  -47.60   27.10
   7   0   5   32.00   29.30
   7   0   5    2.70   29.60
  -8   0  -5  354.96   53.09
   8   0   5  395.36   55.09
  -9   0  -5  -35.70   39.00
   9   0   5   59.49   37.30
 -10   0  -5   15.50   47.80
  10   0   5   -8.20   42.40
  10  -1  -5   87.79   39.50
 -10   1   5   73.19   43.80
   9  -1  -5   -9.60   34.20
  -9   1   5   47.40   39.40
   8  -1  -5  256.27   42.10
  -8   1   5  252.97   49.20
   7  -1  -5  -15.00   22.30
  -7   1   5    8.10   29.60
   6  -1  -5   16.10   19.50
   6  -1  -5   13.60   21.20
  -6   1   5   42.40   16.30
  -6   1   5   49.00   25.80
   5  -1  -5  949.11   69.59
   5  -1  -5  867.21   71.69
  -5   1   5  866.61   73.79
  -5   1   5  939.51   66.59
   4  -1  -5  357.36   35.80
   4  -1  -5  355.76   39.40
  -4   1   5  265.67   31.30
  -4   1   5  421.96   41.60
   3  -1  -5 2168.58  150.68
   3  -1  -5 2333.97  149.59
  -3   1   5 2321.27  151.68
  -3   1   5 2190.68  148.39
   2  -1  -5  110.69   17.20
   2  -1  -5  128.79   19.10
  -2   1   5  108.69   15.10
  -2   1   5  104.79   18.90
   1  -1  -5 1664.73  104.89
   1  -1  -5 1546.35  105.19
  -1   1   5 1662.43  104.69
  -1   1   5 1464.85  104.69
   0  -1  -5   64.69   16.30
  -1  -1  -5 2430.26  165.48
   1   1   5 2551.54  165.68
  -2  -1  -5   17.70   15.30
  -2  -1  -5  -28.90   10.30
   2   1   5   34.40   17.80
   2   1   5  -16.00   10.20
  -3  -1  -5 2474.85  168.48
  -3  -1  -5 2606.74  165.48
   3   1   5 2584.24  169.78
   3   1   5 2371.06  165.28
  -4  -1  -5  -26.30   18.60
  -4  -1  -5    4.90   17.00
   4   1   5  -63.69   17.20
   4   1   5   -6.90   20.60
  -5  -1  -5   -8.10   19.40
  -5  -1  -5   33.90   18.90
   5   1   5    5.80   23.20
   5   1   5  -12.10   20.40
  -6  -1  -5    0.30   28.20
   6   1   5   54.79   40.90
   6   1   5   28.20   32.20
  -7  -1  -5   50.79   31.40
   7   1   5   44.10   30.90
   7   1   5   47.20   30.00
  -8  -1  -5   32.60   38.00
   8   1   5   46.60   34.50
  -9  -1  -5   -0.90   38.50
   9   1   5    7.70   39.10
 -10  -1  -5   14.60   46.60
  10   1   5   -6.40   35.60
  10  -2  -5  -32.90   34.80
 -10   2   5    2.70   39.40
   9  -2  -5   10.00   32.00
  -9   2   5   19.40   39.50
   8  -2  -5   20.70   26.10
  -8   2   5    8.50   33.80
   7  -2  -5   15.90   23.40
  -7   2   5   17.40   30.80
   6  -2  -5  133.09   29.40
   6  -2  -5  225.88   33.10
  -6   2   5  139.69   22.40
  -6   2   5  178.68   34.60
   5  -2  -5   39.60   21.90
   5  -2  -5   46.00   20.30
  -5   2   5   28.30   22.80
   4  -2  -5 1216.98   88.49
   4  -2  -5 1222.58   90.09
  -4   2   5 1290.07   91.69
  -4   2   5 1234.28   86.89
   3  -2  -5  301.97   31.80
   3  -2  -5  277.37   33.40
  -3   2   5  337.87   35.40
  -3   2   5  295.47   28.80
   2  -2  -5 2078.79  138.09
   2  -2  -5 2066.49  137.79
  -2   2   5 2118.59  138.29
  -2   2   5 2057.49  137.39
   1  -2  -5  205.98   20.60
   1  -2  -5  184.38   21.80
  -1   2   5  196.28   19.90
   0  -2  -5 2006.10  129.49
   0  -2  -5 1956.30  123.59
   0   2   5 1788.82  123.69
  -1  -2  -5   31.50    8.30
  -1  -2  -5   13.40   16.50
  -1  -2  -5   20.70    9.70
   1   2   5   43.50   15.90
  -2  -2  -5 2180.68  153.88
  -2  -2  -5 2324.37  149.79
   2   2   5 2347.57  154.78
  -3  -2  -5  390.16   40.90
  -3  -2  -5  310.97   36.80
   3   2   5  384.76   36.30
   3   2   5  422.96   42.90
  -4  -2  -5  750.92   64.29
  -4  -2  -5  801.72   62.19
   4   2   5  776.82   61.99
   4   2   5  788.52   66.89
  -5  -2  -5    9.90   21.90
  -5  -2  -5   47.80   21.10
   5   2   5   23.50   19.50
   5   2   5   14.30   25.90
  -6  -2  -5   16.30   27.80
   6   2   5    4.30   30.60
  -7  -2  -5  208.88   39.70
   7   2   5  123.39   39.70
   7   2   5  106.79   37.60
  -8  -2  -5   65.29   37.00
   8   2   5   12.60   35.70
  -9  -2  -5    6.10   41.40
   9   2   5   15.50   38.40
 -10  -2  -5   33.20   47.60
  10   2   5   37.80   45.20
  10  -3  -5  -40.30   30.20
 -10   3   5  -16.50   39.00
   9  -3  -5  -19.30   31.60
  -9   3   5   -5.70   36.50
   8  -3  -5  -31.60   26.10
  -8   3   5   -0.60   31.40
   7  -3  -5  -18.30   24.50
  -7   3   5  -35.50   26.90
   6  -3  -5  154.38   28.80
   6  -3  -5  122.89   27.90
  -6   3   5  143.69   33.30
   5  -3  -5  510.15   50.69
  -5   3   5  624.44   55.09
  -5   3   5  551.14   46.90
   4  -3  -5   10.30   15.80
   4  -3  -5    0.20   18.00
  -4   3   5   -2.10   11.70
  -4   3   5   26.30   20.00
   3  -3  -5 1227.78   84.49
   3  -3  -5 1123.69   85.09
  -3   3   5 1178.98   85.59
  -3   3   5 1227.78   83.29
   2  -3  -5   -6.90   13.10
   2  -3  -5   35.10   13.40
  -2   3   5   34.40   12.30
  -2   3   5   27.80   15.00
   1  -3  -5 1271.17   86.79
   1  -3  -5 1303.17   88.09
  -1   3   5 1294.87   88.09
   0  -3  -5   29.60    8.60
   0  -3  -5  -11.00   15.70
   0   3   5   37.70    9.70
  -1  -3  -5  343.37   32.00
  -1  -3  -5  380.46   31.50
  -1  -3  -5  521.75   40.70
  -2  -3  -5   16.20   17.80
  -2  -3  -5   33.00   13.60
   2   3   5   45.60   19.60
  -3  -3  -5 1192.58   91.69
  -3  -3  -5 1317.07   88.89
   3   3   5 1231.88   92.89
  -4  -3  -5   98.89   22.60
  -4  -3  -5  175.48   38.60
   4   3   5   80.19   21.00
   4   3   5   88.09   26.50
  -5  -3  -5   88.59   25.40
  -5  -3  -5  165.08   29.60
   5   3   5  140.19   31.20
   5   3   5  144.09   27.80
  -6  -3  -5  311.87   42.50
   6   3   5  306.57   45.40
   6   3   5  331.57   45.30
  -7  -3  -5  -59.69   29.40
   7   3   5  -32.90   32.20
  -8  -3  -5  -34.90   34.60
   8   3   5   21.00   35.80
  -9  -3  -5   21.30   41.80
   9   3   5   90.59   42.20
 -10  -3  -5   40.60   50.79
  10   3   5   29.30   44.50
  10  -4  -5  -13.70   36.40
 -10   4   5  -52.79   34.30
   9  -4  -5   -1.90   30.90
  -9   4   5    8.10   36.30
   8  -4  -5  -10.00   26.80
  -8   4   5  -23.10   30.40
   7  -4  -5   16.10   29.00
  -7   4   5   16.60   28.90
   6  -4  -5  211.08   39.50
  -6   4   5  193.98   39.60
   5  -4  -5   59.99   22.80
   5  -4  -5   45.40   20.80
  -5   4   5   66.49   24.20
  -5   4   5   64.19   16.60
   4  -4  -5  192.48   28.80
   4  -4  -5  254.57   31.50
  -4   4   5  186.88   29.30
   3  -4  -5  169.88   27.90
   3  -4  -5  217.28   26.40
  -3   4   5  188.78   23.50
  -3   4   5  204.28   29.60
   2  -4  -5  240.28   26.80
   2  -4  -5  247.48   26.40
  -2   4   5  210.78   24.40
  -2   4   5  230.38   27.10
   1  -4  -5  122.09   19.60
   1  -4  -5  108.09   19.30
  -1   4   5  175.68   19.40
   0  -4  -5  213.48   22.50
   0  -4  -5  239.88   24.60
   0  -4  -5  253.67   30.40
   0   4   5  226.38   23.90
  -1  -4  -5   14.90   17.70
  -1  -4  -5   14.10   11.10
   1   4   5    7.90   19.80
  -2  -4  -5  339.37   34.40
  -2  -4  -5  360.56   38.20
   2   4   5  345.67   38.20
  -3  -4  -5 1060.49   79.79
  -3  -4  -5 1036.90   76.49
   3   4   5  968.40   79.39
  -4  -4  -5  -25.40   22.90
  -4  -4  -5   -1.30   20.30
   4   4   5  104.49   28.00
  -5  -4  -5 1051.49   81.79
  -5  -4  -5  928.41   91.09
   5   4   5 1102.99   81.09
   5   4   5  968.00   85.19
  -6  -4  -5  -17.90   27.40
   6   4   5   -1.40   28.50
   6   4   5   25.10   26.10
  -7  -4  -5  -29.30   47.40
   7   4   5   22.00   34.40
  -8  -4  -5   96.29   43.10
   8   4   5   52.89   39.20
  -9  -4  -5  -32.00   41.10
   9   4   5   37.40   39.60
  10  -5  -5  -43.30   34.60
 -10   5   5  -12.00   39.40
   9  -5  -5   27.80   32.90
  -9   5   5   56.39   38.40
   8  -5  -5  197.28   40.30
  -8   5   5  109.29   38.10
   7  -5  -5   12.20   25.80
  -7   5   5   13.60   30.60
   6  -5  -5  967.90   79.39
   5  -5  -5  333.27   40.40
   5  -5  -5  299.57   39.80
  -5   5   5  276.47   40.90
  -5   5   5  333.87   35.60
   4  -5  -5 1095.09   79.89
   4  -5  -5 1006.10   80.19
  -4   5   5 1102.79   77.59
  -4   5   5 1054.19   81.99
   3  -5  -5  973.80   76.69
   3  -5  -5  995.40   75.89
  -3   5   5 1076.39   74.69
  -3   5   5 1085.09   77.79
   2  -5  -5   31.10   15.90
   2  -5  -5   24.20   14.60
  -2   5   5   23.60   14.00
  -2   5   5   22.70   16.50
   1  -5  -5    8.90   11.10
   1  -5  -5    7.40   14.20
  -1   5   5   23.60   14.00
   0  -5  -5  311.07   28.40
   0  -5  -5  273.47   29.60
   0  -5  -5  314.37   35.00
   0   5   5  276.27   28.70
  -1  -5  -5  329.27   36.00
  -1  -5  -5  279.37   30.90
   1   5   5  309.07   35.70
  -2  -5  -5  413.16   46.40
  -2  -5  -5  503.45   41.40
  -2  -5  -5  476.95   38.80
   2   5   5  359.36   43.00
  -3  -5  -5  226.98   46.40
  -3  -5  -5  144.09   25.30
   3   5   5  126.59   30.70
  -4  -5  -5  795.12   70.19
  -4  -5  -5  893.21   69.29
   4   5   5  823.72   72.49
  -5  -5  -5   84.99   29.70
  -6  -5  -5  277.47   45.40
   6   5   5  275.77   44.80
  -7  -5  -5   90.39   40.80
   7   5   5   15.50   33.00
  -8  -5  -5   10.50   38.70
   8   5   5  -17.50   33.40
  -9  -5  -5   85.49   53.39
   9   5   5  133.89   44.90
  10  -6  -5    2.20   38.40
 -10   6   5  -21.00   39.80
   9  -6  -5    2.50   34.10
  -9   6   5    5.10   36.60
   8  -6  -5  -35.40   28.00
  -8   6   5   -2.60   34.50
   7  -6  -5  211.88   39.20
  -7   6   5  149.09   40.10
   6  -6  -5  120.09   30.80
  -6   6   5  126.69   37.30
   5  -6  -5  251.67   50.19
   5  -6  -5  299.77   39.30
  -5   6   5  360.76   43.60
   4  -6  -5  262.37   34.30
   4  -6  -5  226.08   36.00
  -4   6   5  248.88   37.30
  -4   6   5  289.97   30.30
   3  -6  -5  420.76   42.20
   3  -6  -5  428.66   42.90
  -3   6   5  440.26   39.80
  -3   6   5  512.65   45.20
   2  -6  -5   37.70   18.50
   2  -6  -5   67.29   17.50
  -2   6   5   54.59   16.60
  -2   6   5   79.49   19.80
   1  -6  -5  407.36   38.30
   1  -6  -5  398.76   36.70
  -1   6   5  456.15   39.00
   0  -6  -5  328.47   33.10
   0  -6  -5  279.67   30.20
   0  -6  -5  360.66   39.80
   0   6   5  290.77   31.90
  -1  -6  -5  558.54   44.80
  -1  -6  -5  539.45   52.19
  -2  -6  -5   46.70   19.90
  -2  -6  -5   82.69   18.00
   2   6   5   32.70   24.60
  -3  -6  -5  168.08   28.60
  -3  -6  -5  197.18   33.60
   3   6   5  178.58   32.50
  -4  -6  -5   37.90   25.20
  -4  -6  -5   65.59   25.50
   4   6   5   70.89   28.90
  -5  -6  -5  125.89   32.50
   5   6   5  127.39   36.30
  -6  -6  -5  175.18   38.60
   6   6   5  153.18   37.70
  -7  -6  -5   10.30   36.20
   7   6   5  -15.50   34.50
  -8  -6  -5  212.58   50.49
   8   6   5  215.98   49.60
  -9  -6  -5  -68.59   41.90
   9   6   5   -2.90   41.70
   9  -7  -5   51.29   36.90
  -9   7   5   20.80   34.20
   8  -7  -5   32.00   33.40
  -8   7   5   68.09   37.10
   7  -7  -5  166.98   36.30
  -7   7   5   91.99   36.70
   6  -7  -5 1037.80   85.09
  -6   7   5 1041.00   87.69
   5  -7  -5  113.39   28.30
   5  -7  -5  104.99   27.10
  -5   7   5  114.09   30.10
   4  -7  -5   73.69   30.00
   4  -7  -5  180.58   30.50
  -4   7   5  179.88   30.20
   3  -7  -5   46.70   19.70
   3  -7  -5   36.00   19.50
  -3   7   5   36.20   15.20
  -3   7   5   60.59   22.90
   2  -7  -5   31.90   15.50
   2  -7  -5   55.19   17.10
  -2   7   5   20.70   15.00
  -2   7   5   38.70   18.70
   1  -7  -5   10.00   14.30
   1  -7  -5    4.30   23.20
   1  -7  -5    5.70   12.80
  -1   7   5    8.50   15.80
   0  -7  -5    1.00   13.10
   0  -7  -5   21.90   15.90
   0  -7  -5    1.80   37.00
   0   7   5   17.10   15.30
  -1  -7  -5   56.99   24.00
  -1  -7  -5   70.79   17.40
  -2  -7  -5  211.08   34.60
  -2  -7  -5  211.58   26.90
   2   7   5  210.18   33.60
  -3  -7  -5   23.80   22.30
  -3  -7  -5   46.10   19.20
  -3  -7  -5   29.70   22.20
   3   7   5   49.60   25.90
  -4  -7  -5   74.89   27.80
  -5  -7  -5  185.98   37.80
   5   7   5  256.67   41.60
  -6  -7  -5   61.39   33.90
   6   7   5  -16.70   33.20
  -7  -7  -5  117.19   42.70
   7   7   5  133.09   41.10
  -8  -7  -5  -50.59   40.70
   8   7   5  -54.89   39.80
   9  -8  -5   88.79   40.80
  -9   8   5   51.39   38.50
   8  -8  -5   43.30   33.70
  -8   8   5   92.49   39.50
   7  -8  -5   34.40   31.40
  -7   8   5   20.40   30.70
   6  -8  -5   45.70   26.40
  -6   8   5   70.89   32.70
   5  -8  -5   58.69   25.10
  -5   8   5   49.99   30.40
   4  -8  -5  -35.10   21.60
   4  -8  -5   21.20   20.40
  -4   8   5   54.09   25.50
   3  -8  -5   48.50   20.90
   3  -8  -5   90.59   23.60
  -3   8   5  101.59   25.50
   2  -8  -5   31.90   16.20
   2  -8  -5   43.30   18.20
  -2   8   5   54.89   20.60
  -2   8   5   11.00   15.50
   1  -8  -5   54.99   17.40
   1  -8  -5   34.50   22.10
   1  -8  -5   67.89   17.00
  -1   8   5   73.99   19.90
   0  -8  -5   -9.30   20.40
   0  -8  -5  -21.60   15.00
   0  -8  -5   13.40   13.70
   0   8   5   20.30   16.80
  -1  -8  -5  202.88   33.90
  -1  -8  -5  275.57   29.20
  -1  -8  -5  201.58   26.50
  -2  -8  -5  137.59   30.90
  -2  -8  -5  130.29   24.00
   2   8   5  107.79   29.70
  -3  -8  -5   13.50   18.90
  -3  -8  -5   15.80   24.60
   3   8   5  -21.40   25.10
  -4  -8  -5   31.10   23.40
  -4  -8  -5   36.50   28.00
   4   8   5   27.50   29.80
  -5  -8  -5    1.90   30.40
   5   8   5    7.40   32.90
   6   8   5   94.29   40.00
  -7  -8  -5  113.19   43.80
   7   8   5    8.70   36.70
  -8  -8  -5  186.08   51.09
   8   8   5  161.18   48.70
   9  -9  -5   83.29   48.70
  -9   9   5  100.29   42.60
   8  -9  -5   12.80   29.90
  -8   9   5   19.10   35.30
   7  -9  -5  271.17   43.60
  -7   9   5  167.78   44.50
   6  -9  -5   81.69   31.00
  -6   9   5   37.90   32.10
   5  -9  -5  100.89   30.40
  -5   9   5   67.49   29.80
   4  -9  -5   58.89   24.50
   4  -9  -5   26.90   21.80
  -4   9   5   57.89   25.50
   3  -9  -5  337.97   38.10
   3  -9  -5  256.87   35.70
  -3   9   5  308.37   38.30
   2  -9  -5   98.59   21.70
   2  -9  -5  169.98   31.00
  -2   9   5  119.39   26.70
   1  -9  -5  112.59   22.20
   1  -9  -5  140.99   24.70
   1  -9  -5  177.48   33.20
  -1   9   5  154.88   26.80
   0  -9  -5  210.78   27.90
   0  -9  -5  171.58   25.30
   0  -9  -5  196.18   33.80
   0   9   5  164.48   28.00
  -1  -9  -5   10.40   25.10
  -1  -9  -5   19.90   17.80
  -1  -9  -5   -4.80   15.70
  -2  -9  -5  194.28   28.70
  -3  -9  -5   78.29   24.90
  -3  -9  -5  151.28   32.60
   3   9   5  125.89   32.00
  -4  -9  -5  -18.80   27.90
  -4  -9  -5   -1.50   22.70
   4   9   5  -10.30   29.70
  -5  -9  -5   71.99   35.90
   5   9   5   64.39   34.30
  -6  -9  -5   -8.80   35.40
   6   9   5   88.19   39.40
  -7  -9  -5  266.77   53.09
   7   9   5  171.48   46.90
  -8  -9  -5  -33.50   41.30
   8   9   5   18.80   41.50
   8 -10  -5  159.58   44.10
  -8  10   5  229.68   48.80
   7 -10  -5    0.30   28.00
  -7  10   5   62.29   36.60
   6 -10  -5  -19.70   28.00
  -6  10   5   -7.00   30.60
   5 -10  -5   40.90   29.10
  -5  10   5  112.69   33.20
   4 -10  -5   51.89   26.10
  -4  10   5   68.59   33.40
   3 -10  -5    5.90   21.40
   3 -10  -5    6.50   17.70
  -3  10   5   -0.70   22.00
   2 -10  -5  106.79   31.00
   2 -10  -5  127.79   27.10
  -2  10   5  121.19   28.40
   1 -10  -5   36.40   19.40
   1 -10  -5   20.60   17.30
  -1  10   5    4.30   20.00
   0 -10  -5   -4.10   16.00
   0 -10  -5    7.10   19.50
   0  10   5  -20.20   19.30
  -1 -10  -5  402.16   42.70
  -1 -10  -5  461.25   44.00
  -2 -10  -5   -4.60   20.70
  -3 -10  -5  360.56   45.60
  -3 -10  -5  224.78   50.29
   3  10   5  303.67   44.90
  -4 -10  -5  153.78   38.20
  -4 -10  -5   50.49   27.90
   4  10   5  124.79   38.00
   5  10   5  -15.60   31.50
  -6 -10  -5  108.19   41.40
   6  10   5   29.90   39.40
  -7 -10  -5   62.59   43.50
   7  10   5   30.90   41.70
   8 -11  -5    7.30   33.70
  -8  11   5   -4.80   34.70
   7 -11  -5   56.89   31.90
  -7  11   5   77.39   36.70
   6 -11  -5   57.39   30.20
  -6  11   5   68.29   34.80
   5 -11  -5  -17.20   25.20
  -5  11   5  -19.10   27.80
   4 -11  -5  157.08   36.60
  -4  11   5  171.08   36.80
   3 -11  -5  117.89   29.30
   3 -11  -5  113.69   38.00
  -3  11   5  140.39   32.30
   2 -11  -5   14.20   18.90
   2 -11  -5   -0.80   21.30
  -2  11   5    7.40   25.60
   1 -11  -5   74.59   22.40
   1 -11  -5   63.99   24.90
  -1  11   5   63.29   27.30
   0 -11  -5  439.16   44.80
   0 -11  -5  429.26   69.49
  -1 -11  -5   75.69   24.10
  -1 -11  -5   81.79   40.80
  -2 -11  -5  428.06   42.70
  -2 -11  -5  290.27   41.00
  -3 -11  -5   62.59   27.50
  -3 -11  -5   30.60   32.40
  -4 -11  -5   -4.60   35.50
  -4 -11  -5    2.60   33.20
   4  11   5  -34.60   28.40
  -5 -11  -5   31.70   41.30
   5  11   5   71.09   38.10
  -6 -11  -5   10.80   38.80
   6  11   5   -5.60   36.90
   7 -12  -5   -4.00   31.90
  -7  12   5   32.90   35.20
   6 -12  -5   69.89   32.40
  -6  12   5   53.59   36.30
   5 -12  -5   -5.80   26.80
  -5  12   5   23.00   30.90
   4 -12  -5   82.29   30.30
  -4  12   5  145.69   37.70
   3 -12  -5  -12.00   24.80
  -3  12   5   45.30   31.00
   2 -12  -5   46.00   25.00
   2 -12  -5   96.09   38.20
  -2  12   5   37.20   28.30
   1 -12  -5   86.79   27.50
   1 -12  -5   50.99   23.00
  -1  12   5   98.39   31.30
   0 -12  -5   55.39   25.70
   0 -12  -5   54.99   23.50
  -1 -12  -5  281.37   36.60
  -1 -12  -5  130.69   28.50
  -2 -12  -5    1.20   23.30
  -2 -12  -5   20.60   23.90
  -3 -12  -5   20.40   37.90
  -3 -12  -5    1.70   30.60
  -4 -12  -5  103.89   43.30
   4  12   5   91.69   36.60
  -5 -12  -5   25.90   40.60
   5  12   5   30.20   36.30
  -6 -12  -5   66.89   44.50
   6  12   5   35.70   40.30
   7 -13  -5   76.59   48.70
   6 -13  -5  134.59   38.80
  -6  13   5  168.68   45.30
   5 -13  -5   41.60   31.30
  -5  13   5   18.80   32.20
   4 -13  -5   -1.50   27.70
  -4  13   5  -66.49   28.70
   3 -13  -5  732.13   69.29
  -3  13   5  806.82   75.49
   2 -13  -5  196.98   35.50
  -2  13   5  173.38   41.30
   1 -13  -5  210.08   35.60
   0 -13  -5  112.79   28.90
  -1 -13  -5  136.39   30.90
  -2 -13  -5  134.19   31.40
  -3 -13  -5  -30.30   27.50
  -3 -13  -5  -56.19   36.20
  -4 -13  -5   12.00   39.60
  -5 -13  -5   59.49   44.90
   5  13   5  -57.49   33.80
   6 -14  -5  176.68   41.20
  -6  14   5  134.09   43.40
   5 -14  -5   26.20   28.30
  -5  14   5  -35.60   32.00
   4 -14  -5  342.57   48.40
  -4  14   5  364.26   53.39
   3 -14  -5  -11.40   25.80
  -3  14   5    1.00   33.10
   2 -14  -5  328.07   45.40
  -2  14   5  349.07   49.50
   1 -14  -5  184.68   36.70
  -1  14   5  221.68   42.90
   0 -14  -5  257.07   38.90
  -1 -14  -5   36.70   27.40
  -2 -14  -5   44.70   28.90
  -3 -14  -5  -24.80   39.00
  -3 -14  -5   56.09   29.50
  -4 -14  -5   83.69   44.30
   5 -15  -5  144.09   39.60
  -5  15   5  174.98   46.00
   4 -15  -5  -29.50   28.10
  -4  15   5  -14.20   33.20
   3 -15  -5  379.36   49.99
  -3  15   5  425.66   57.79
   2 -15  -5   18.90   28.10
  -2  15   5  -26.50   31.70
   1 -15  -5  271.17   42.10
  -1  15   5  268.47   46.90
   0 -15  -5   70.49   31.20
  -1 -15  -5  106.79   33.60
  -2 -15  -5   54.69   29.90
  -3 -15  -5   -2.30   29.50
  -3 -15  -5   36.90   45.40
   3 -16  -5   -3.60   30.70
  -3  16   5  -13.20   33.60
   2 -16  -5  231.48   41.40
  -2  16   5  233.18   46.90
   1 -16  -5   32.80   30.20
   0 -16  -5   77.99   31.60
  -1 -16  -5    9.20   28.60
  -1 -20   6   19.70   30.80
  -1 -20   6   37.90   18.90
   0 -20   6   19.80   19.80
   0 -20   6   -9.70   30.30
   1 -20   6   16.90   21.80
  -2  20  -6   80.79   41.60
   2 -20   6   46.20   24.20
  -3  20  -6   62.09   49.80
   3 -20   6   61.79   28.00
  -3 -19   6   58.19   19.90
  -2 -19   6   43.90   32.70
  -2 -19   6   39.80   17.80
  -1 -19   6   28.30   19.40
  -1 -19   6   83.89   44.60
   0 -19   6   76.99   36.50
   0 -19   6  143.69   24.80
   1 -19   6   63.79   22.50
   1 -19   6    9.50   29.40
  -2  19  -6   25.90   38.70
  -3  19  -6   88.39   41.00
   3 -19   6   65.49   27.50
  -4  19  -6  -17.70   35.30
   4 -19   6    8.00   24.80
  -4 -18   6  136.69   52.19
  -4 -18   6   88.29   21.20
  -3 -18   6  125.79   29.40
  -3 -18   6  152.08   23.70
  -2 -18   6  -19.70   22.50
  -2 -18   6   -7.20   14.50
  -1 -18   6   17.70   25.30
  -1 -18   6   39.00   16.90
   0 -18   6  221.18   27.60
   0 -18   6  144.49   35.50
  -1  18  -6  417.86   61.09
   1 -18   6  460.45   42.20
   1 -18   6  343.07   50.09
  -2  18  -6   65.39   36.70
   2 -18   6   52.19   21.60
  -3  18  -6    5.70   35.00
   3 -18   6  -16.60   21.30
  -4  18  -6  214.28   47.50
   4 -18   6  201.38   36.10
  -5  18  -6   19.50   37.10
   5 -18   6   39.90   26.70
  -5 -17   6   54.09   49.80
  -5 -17   6   55.99   20.50
  -4 -17   6  106.09   20.60
  -4 -17   6  130.69   50.49
  -4 -17   6   47.20   23.60
  -3 -17   6    9.70   16.30
  -3 -17   6   13.40   21.20
  -2 -17   6  100.79   26.80
  -2 -17   6   87.89   18.70
  -1 -17   6   31.00   23.60
  -1 -17   6   28.90   16.30
   0 -17   6  277.27   29.50
   0 -17   6  203.08   36.50
  -1  17  -6  197.38   43.50
   1 -17   6  151.58   25.40
   1 -17   6  153.88   31.90
  -2  17  -6    5.40   32.80
   2 -17   6   29.40   19.80
  -3  17  -6  258.57   34.80
  -3  17  -6  327.67   52.79
   3 -17   6  354.46   39.40
  -4  17  -6  -40.00   29.80
   4 -17   6   23.20   24.20
  -5  17  -6  421.76   63.29
   5 -17   6  490.05   54.89
  -6  17  -6   22.00   32.50
   6 -17   6   -8.30   28.80
  -6 -16   6   -1.60   22.50
  -6 -16   6  -44.60   50.89
  -5 -16   6  165.58   51.59
  -5 -16   6   68.29   24.20
  -4 -16   6  -27.20   39.80
  -4 -16   6   -2.10   18.60
  -4 -16   6   -4.80   15.80
  -3 -16   6  151.58   27.90
  -3 -16   6  292.77   27.30
  -2 -16   6    3.10   18.70
  -2 -16   6   18.80   13.10
  -1 -16   6  282.47   37.00
  -1 -16   6  369.06   32.60
   0 -16   6  109.89   27.30
   0 -16   6   73.29   18.60
  -1  16  -6   34.10   31.60
   1 -16   6   37.10   18.40
   1 -16   6   10.80   22.50
  -2  16  -6  591.84   61.39
  -2  16  -6  861.81   77.29
   2 -16   6  852.51   61.49
  -3  16  -6   14.40   31.20
  -3  16  -6   13.40   15.20
   3 -16   6    6.70   20.10
  -4  16  -6  434.36   60.09
   4 -16   6  496.25   53.89
  -5  16  -6   32.80   33.40
   5 -16   6   57.69   28.80
  -6  16  -6  615.14   75.99
   6 -16   6  706.13   68.79
  -7  16  -6   44.90   37.30
   7 -16   6   37.00   36.90
   6  15  -6   73.09   29.20
  -6 -15   6   90.99   46.00
  -6 -15   6   40.30   24.10
  -5 -15   6  -56.49   40.10
  -5 -15   6   14.30   20.30
  -4 -15   6   25.40   17.80
  -4 -15   6   64.39   42.20
  -3 -15   6    9.90   16.70
  -3 -15   6   -7.00   12.70
  -2 -15   6  162.98   24.00
  -2 -15   6  149.88   19.10
  -1 -15   6   45.30   20.90
  -1 -15   6   72.29   14.60
   0 -15   6  117.49   23.80
   0 -15   6  106.59   17.90
  -1  15  -6  358.06   50.59
   1 -15   6  394.66   36.00
  -2  15  -6   12.70   13.50
  -2  15  -6   38.70   30.20
   2 -15   6   51.19   17.50
  -3  15  -6  586.64   63.89
  -3  15  -6  509.45   47.20
   3 -15   6  662.03   52.29
  -4  15  -6   45.20   33.20
  -4  15  -6   -4.90   16.60
   4 -15   6   41.60   21.90
  -5  15  -6  354.86   52.29
   5 -15   6  289.57   43.00
  -6  15  -6   24.30   32.80
   6 -15   6   17.30   30.00
  -7  15  -6  526.55   69.89
   7 -15   6  593.24   69.09
  -8  15  -6   73.59   54.49
   8 -15   6   88.39   38.90
   7  14  -6    3.70   29.50
  -7 -14   6    6.80   25.00
  -7 -14   6  -38.00   45.00
   6  14  -6   14.40   25.30
  -6 -14   6  -12.60   41.00
   5  14  -6   34.10   24.70
  -5 -14   6   48.70   43.30
  -5 -14   6   73.69   21.60
  -4 -14   6   31.30   16.70
  -4 -14   6   10.90   36.00
  -3 -14   6  103.19   16.30
  -3 -14   6   81.59   18.60
  -2 -14   6   82.29   18.00
  -2 -14   6   63.89   13.60
  -1 -14   6  252.27   25.30
  -1 -14   6  274.67   29.40
   0 -14   6  421.26   34.30
   0 -14   6  372.16   39.20
  -1  14  -6  126.59   33.10
   1 -14   6  157.98   22.50
  -2  14  -6 1226.28   95.69
  -2  14  -6 1138.39   80.79
   2 -14   6 1126.69   82.39
  -3  14  -6   11.00   13.30
  -3  14  -6   32.80   27.80
   3 -14   6   21.60   17.50
  -4  14  -6  495.45   44.50
  -4  14  -6  544.45   60.69
   4 -14   6  553.84   50.99
  -5  14  -6   50.09   31.00
   5 -14   6   18.60   25.70
  -6  14  -6  243.08   47.10
   6 -14   6  367.36   48.50
  -7  14  -6  156.78   44.10
   7 -14   6   93.79   36.30
  -8  14  -6   27.10   39.10
   8 -14   6   36.60   35.70
   7  13  -6  187.48   37.00
  -7 -13   6  124.49   29.00
  -7 -13   6  115.69   52.89
   6  13  -6  -12.10   24.80
  -6 -13   6    8.50   23.20
  -6 -13   6  -41.20   37.60
   5  13  -6   17.70   21.80
  -5 -13   6    9.40   16.30
  -5 -13   6   22.90   36.20
  -4 -13   6   36.90   16.40
  -4 -13   6   69.69   36.90
  -3 -13   6   26.10   12.20
  -3 -13   6   42.20   14.70
  -2 -13   6   66.19   15.70
  -2 -13   6   77.59   13.10
  -1 -13   6  787.72   51.99
  -1 -13   6  669.03   55.49
   0  13  -6  394.76   66.69
   0 -13   6  325.07   32.20
   0 -13   6  264.57   27.40
  -1  13  -6  235.48   24.00
  -1  13  -6  286.87   55.69
   1 -13   6  270.87   26.80
  -2  13  -6   25.70   13.90
  -2  13  -6  116.79   30.10
   2 -13   6   51.99   18.90
  -3  13  -6   32.80   12.80
  -3  13  -6   40.40   26.50
   3 -13   6   73.49   20.10
  -4  13  -6  -30.10   24.00
  -4  13  -6   37.80   13.80
   4 -13   6   27.90   19.80
  -5  13  -6  285.37   46.20
  -6  13  -6  117.89   36.40
   6 -13   6   69.79   31.90
  -7  13  -6   21.30   32.70
   7 -13   6  100.99   37.90
  -8  13  -6  256.27   51.39
   8 -13   6  231.98   49.40
   8  12  -6    3.70   32.10
  -8 -12   6    5.40   45.00
   7  12  -6   23.20   31.50
  -7 -12   6    9.40   41.90
  -7 -12   6   18.60   19.80
   6  12  -6   40.80   26.70
  -6 -12   6   32.90   37.10
  -6 -12   6   46.90   19.50
   5  12  -6  -15.20   20.30
  -5 -12   6   18.30   17.60
  -5 -12   6   -5.20   35.70
   4  12  -6   14.30   18.00
  -4 -12   6  -15.70   31.80
  -4 -12   6   16.20   13.50
  -3 -12   6   68.39   32.00
  -3 -12   6   93.59   16.00
  -2 -12   6  217.88   20.30
  -1 -12   6  390.66   41.50
  -1 -12   6  318.57   30.30
  -1 -12   6  383.26   44.30
   0  12  -6  601.14   60.39
   0 -12   6  603.74   46.00
   0 -12   6  550.54   55.59
   0 -12   6  564.24   42.50
  -1  12  -6  471.25   49.50
  -1  12  -6  348.77   32.10
   1 -12   6  375.76   36.00
   1 -12   6  415.76   45.80
  -2  12  -6  374.96   46.50
  -2  12  -6  365.96   34.00
   2 -12   6  458.25   37.20
   2 -12   6  379.66   46.40
  -3  12  -6  133.19   19.10
   3 -12   6  116.49   23.30
  -4  12  -6   90.09   29.10
  -4  12  -6   33.10   15.50
   4 -12   6   89.89   23.40
  -5  12  -6  145.09   34.50
  -5  12  -6  115.39   22.80
   5 -12   6   94.69   29.10
  -6  12  -6   13.60   29.40
   6 -12   6   48.90   27.30
  -7  12  -6  307.97   50.49
   7 -12   6  296.57   48.10
  -8  12  -6  174.18   45.40
   8 -12   6  193.38   43.30
  -9  12  -6  212.58   50.59
   9 -12   6  134.99   46.40
   8  11  -6  -20.90   31.50
  -8 -11   6   31.00   48.70
   7  11  -6   47.00   29.60
  -7 -11   6   57.19   22.30
  -7 -11   6   39.10   41.80
   6  11  -6   -6.30   26.00
  -6 -11   6   95.89   38.10
  -6 -11   6   21.50   19.00
   5  11  -6    3.00   20.00
  -5 -11   6   11.20   33.00
  -5 -11   6  -17.10   14.10
   4  11  -6    2.60   16.40
  -4 -11   6  -17.30   12.20
  -4 -11   6  -13.10   26.90
  -3 -11   6  207.48   46.90
  -3 -11   6  214.18   23.30
  -2 -11   6  575.94   44.80
  -2 -11   6  653.83   56.69
  -2 -11   6  654.83   43.90
  -1 -11   6  618.04   60.79
  -1 -11   6  742.63   48.90
  -1 -11   6  737.13   50.99
   0  11  -6  613.34   59.09
   0 -11   6  591.64   55.09
   0 -11   6  604.84   49.30
  -1  11  -6    8.60   23.80
  -1  11  -6   21.60   11.40
   1 -11   6   28.60   22.20
   1 -11   6   -6.20   14.20
  -2  11  -6  168.28   31.00
  -2  11  -6  122.69   19.50
   2 -11   6  134.29   23.40
   2 -11   6  231.18   31.80
  -3  11  -6    1.90   11.80
  -3  11  -6   20.50   21.60
   3 -11   6   -1.60   18.40
   3 -11   6    6.40   17.50
  -4  11  -6   46.40   40.40
  -4  11  -6    2.00   12.50
   4 -11   6   14.80   17.40
  -5  11  -6   20.70   14.00
  -5  11  -6   -9.50   23.10
   5 -11   6    0.50   20.40
  -6  11  -6   77.69   31.20
   6 -11   6  132.19   34.00
  -7  11  -6  229.98   44.30
   7 -11   6  181.38   40.40
  -8  11  -6  114.79   42.70
   8 -11   6  149.39   41.10
  -9  11  -6  175.38   47.70
   9 -11   6   53.49   40.90
   9  10  -6   -5.90   36.10
  -9 -10   6   51.09   47.40
   8  10  -6   30.20   32.70
  -8 -10   6   20.40   40.80
   7  10  -6   19.10   28.30
  -7 -10   6   43.00   19.60
  -7 -10   6  -63.69   33.40
   6  10  -6   49.70   26.20
  -6 -10   6   68.39   38.70
  -6 -10   6   58.59   18.50
   5  10  -6  142.99   25.70
  -5 -10   6  181.88   23.10
  -5 -10   6   77.89   32.30
   4  10  -6  187.48   23.30
  -4 -10   6  157.68   21.00
  -4 -10   6  207.68   54.89
   3  10  -6  318.77   36.40
  -3 -10   6  299.77   43.30
  -3 -10   6  307.57   33.30
  -2 -10   6  124.19   12.50
  -2 -10   6  108.79   13.20
  -2 -10   6   94.99   22.70
   0  10  -6   39.80   24.90
   0 -10   6   22.20   21.90
   0 -10   6   17.80   10.40
  -1  10  -6  508.25   39.30
  -1  10  -6  578.54   52.49
   1 -10   6  500.15   40.50
   1 -10   6  611.04   51.09
  -2  10  -6    9.70   20.30
  -2  10  -6  -11.00    9.90
   2 -10   6    8.60   13.40
  -3  10  -6    6.30   10.80
  -3  10  -6    4.00   20.20
   3 -10   6   -5.90   14.90
   3 -10   6   29.40   18.90
  -4  10  -6   46.10   23.80
  -4  10  -6   52.39   15.10
   4 -10   6   53.69   20.10
   4 -10   6   56.09   21.20
  -5  10  -6   47.00   15.40
  -5  10  -6   49.20   26.50
   5 -10   6   29.10   22.20
  -6  10  -6    3.60   27.00
   6 -10   6   72.69   26.80
  -7  10  -6    3.10   29.40
   7 -10   6   79.09   34.40
  -8  10  -6   71.69   36.90
   8 -10   6   79.79   39.70
  -9  10  -6   81.19   39.70
   9 -10   6   67.49   40.60
   9   9  -6   78.79   40.60
  -9  -9   6  149.99   54.19
   8   9  -6   46.60   36.50
  -8  -9   6   14.20   41.00
   7   9  -6   61.29   30.40
  -7  -9   6   43.00   20.50
  -7  -9   6   48.70   38.90
   6   9  -6  210.48   35.40
  -6  -9   6  207.48   44.00
  -6  -9   6  229.68   28.60
   5   9  -6  169.98   26.70
  -5  -9   6  117.09   20.40
  -5  -9   6  156.98   36.60
   4   9  -6  322.37   31.90
  -4  -9   6  312.37   44.80
  -4  -9   6  289.37   28.00
   3   9  -6  377.76   35.00
  -3  -9   6  357.16   28.60
  -3  -9   6  316.57   44.70
  -2  -9   6  267.47   35.20
  -1  -9   6   21.90   17.40
   0   9  -6   19.30   19.60
   0  -9   6    5.80    7.20
   0  -9   6   30.90   18.50
  -1   9  -6   57.19   13.10
  -1   9  -6   88.99   23.50
   1  -9   6   72.79   20.60
   1  -9   6   93.59   14.20
  -2   9  -6   -2.20    9.10
  -2   9  -6   14.70   19.50
   2  -9   6   15.80   17.10
   2  -9   6   -6.30   12.00
  -3   9  -6  166.58   30.80
  -3   9  -6  175.38   21.70
   3  -9   6  183.48   32.60
   3  -9   6  176.08   24.50
  -4   9  -6  -32.70   19.20
  -4   9  -6   16.30   13.00
   4  -9   6    6.80   18.30
   4  -9   6    1.50   16.30
  -5   9  -6   52.59   16.20
  -5   9  -6   20.80   24.70
   5  -9   6   14.40   21.00
   5  -9   6   40.80   26.80
  -6   9  -6   98.49   30.50
   6  -9   6   65.39   32.20
  -7   9  -6   54.69   33.30
   7  -9   6   72.89   33.00
  -8   9  -6  -21.20   32.10
   8  -9   6   53.19   36.40
  -9   9  -6  171.88   46.20
   9  -9   6  161.68   45.10
 -10   9  -6  -34.70   36.80
  10  -9   6  -11.30   41.30
   9   8  -6    3.40   33.50
  -9  -8   6  -47.30   39.20
   8   8  -6  193.58   42.70
  -8  -8   6  182.98   50.29
   7   8  -6   16.30   29.40
  -7  -8   6   27.50   37.50
  -7  -8   6   12.50   17.80
   6   8  -6  370.86   40.00
  -6  -8   6  321.27   33.60
  -6  -8   6  252.37   47.40
   5   8  -6  127.89   24.20
  -5  -8   6   89.39   17.50
   4   8  -6   83.99   19.00
  -4  -8   6   84.49   15.20
  -4  -8   6  101.29   30.20
   3   8  -6   65.19   14.00
  -3  -8   6   77.19   24.80
  -3  -8   6   57.19   10.90
  -1  -8   6  259.07   31.60
   0   8  -6  240.68   32.50
   0  -8   6  212.08   30.10
  -1   8  -6  228.78   19.90
  -1   8  -6  192.28   31.00
   1  -8   6  243.68   23.50
   1  -8   6  238.58   30.90
  -2   8  -6  347.57   29.40
  -2   8  -6  384.36   39.30
   2  -8   6  332.67   32.50
   2  -8   6  364.16   38.60
  -3   8  -6   22.20   18.30
  -3   8  -6    9.60   11.50
   3  -8   6   -6.60   15.30
   3  -8   6   22.20   16.00
  -4   8  -6   55.69   15.70
  -4   8  -6   43.10   22.10
   4  -8   6   69.19   20.70
  -5   8  -6  217.38   34.40
  -5   8  -6  198.78   26.70
   5  -8   6  220.88   33.10
   5  -8   6  156.18   30.40
  -6   8  -6   16.40   29.70
  -7   8  -6  230.18   42.40
   7  -8   6  178.18   38.50
  -8   8  -6  129.59   38.60
   8  -8   6  168.78   41.70
  -9   8  -6  -13.70   33.50
   9  -8   6   28.30   37.90
 -10   8  -6  265.07   54.79
  10  -8   6  213.08   52.69
   9   7  -6  180.68   43.60
  -9  -7   6  162.88   53.29
   8   7  -6   18.40   34.20
  -8  -7   6   14.60   38.80
   7   7  -6  423.16   48.30
  -7  -7   6  284.37   52.59
  -7  -7   6  378.86   40.20
   6   7  -6  151.38   30.70
  -6  -7   6   85.09   20.70
  -6  -7   6  108.09   34.10
   5   7  -6  503.55   44.60
  -5  -7   6  409.86   52.29
  -5  -7   6  477.65   39.30
   4   7  -6  -19.90   15.40
  -4  -7   6   -7.10   11.50
  -4  -7   6   -2.70   20.70
   3   7  -6   16.80   12.80
  -3  -7   6   52.09   22.20
  -3  -7   6   35.20    9.60
  -1  -7   6   49.00   16.50
   0   7  -6  885.51   67.09
   0  -7   6  838.02   65.29
  -1   7  -6   -1.30   15.50
  -1   7  -6    6.40    7.50
   1  -7   6   15.60   15.00
   1  -7   6    4.50   10.20
  -2   7  -6  137.99   23.90
  -2   7  -6  135.89   17.60
   2  -7   6  121.69   20.70
   2  -7   6  156.38   23.00
  -3   7  -6   23.10   19.40
  -3   7  -6   34.10   13.90
   3  -7   6   67.89   18.80
   3  -7   6   69.79   19.40
  -4   7  -6  709.23   54.39
  -4   7  -6  666.33   59.19
   4  -7   6  726.43   58.09
   4  -7   6  695.63   58.09
  -5   7  -6   74.09   20.00
  -5   7  -6  149.88   28.50
   5  -7   6   94.99   24.30
   5  -7   6   96.69   26.00
  -6   7  -6  675.83   64.29
   6  -7   6  710.33   66.29
  -7   7  -6    5.40   28.30
   7  -7   6   14.60   30.90
  -8   7  -6   46.60   33.00
   8  -7   6    4.20   32.10
  -9   7  -6   10.40   36.30
   9  -7   6   65.19   40.30
 -10   7  -6  122.99   48.80
  10  -7   6   96.99   46.00
  10   6  -6  179.18   47.00
 -10  -6   6  116.79   59.89
   9   6  -6  -31.90   34.80
  -9  -6   6    6.30   39.80
   8   6  -6  341.87   46.40
  -8  -6   6  245.08   52.19
   7   6  -6  195.98   35.10
  -7  -6   6  155.18   25.40
  -7  -6   6  149.39   41.90
   6   6  -6  544.35   51.19
  -6  -6   6  465.55   44.80
  -6  -6   6  593.34   62.49
   5   6  -6  170.08   33.40
   5   6  -6  243.38   28.50
  -5  -6   6  167.98   34.40
  -5  -6   6  167.08   21.80
   4   6  -6   -3.40   14.90
  -4  -6   6  -14.40   21.60
  -4  -6   6   -4.30   10.40
   3   6  -6   60.69   15.80
  -3  -6   6   87.79   24.20
  -3  -6   6   37.60   10.80
  -2  -6   6  540.85   49.00
  -1  -6   6  305.67   32.50
   0   6  -6  102.89   21.20
   0  -6   6  105.59   19.30
  -1   6  -6  312.77   33.40
  -1   6  -6  304.27   25.10
   1  -6   6  288.87   26.70
   1  -6   6  353.06   33.70
  -2   6  -6   34.00   16.20
  -2   6  -6   25.30   11.30
   2  -6   6   22.30   14.10
   2  -6   6  -12.60   13.50
  -3   6  -6   64.39   18.80
  -3   6  -6   51.69   16.10
   3  -6   6   41.90   19.40
   3  -6   6  109.09   20.10
  -4   6  -6   41.70   16.30
  -4   6  -6   11.20   19.10
   4  -6   6   45.70   20.30
   4  -6   6    7.90   17.10
  -5   6  -6 1222.08   90.79
  -5   6  -6 1176.88   88.39
   5  -6   6 1219.58   90.89
  -6   6  -6    7.20   23.80
   6  -6   6   -3.50   25.40
   6  -6   6  -15.50   21.00
  -7   6  -6  591.24   59.89
   7  -6   6  437.26   57.19
  -8   6  -6  379.06   51.89
   8  -6   6  194.68   42.40
  -9   6  -6   58.09   37.00
   9  -6   6   19.50   37.00
 -10   6  -6   53.89   38.60
  10  -6   6   74.99   41.00
  10   5  -6   35.60   37.40
 -10  -5   6  -72.89   37.80
   9   5  -6  336.27   52.49
  -9  -5   6  405.66   63.79
   8   5  -6   99.29   34.40
  -8  -5   6   65.39   41.00
   7   5  -6  784.22   62.59
  -7  -5   6  611.14   54.99
  -7  -5   6  587.04   71.49
   6   5  -6  427.06   42.50
  -6  -5   6  301.17   34.30
  -6  -5   6  416.46   60.89
   5   5  -6   85.69   28.10
   5   5  -6  105.39   23.70
  -5  -5   6   35.80   30.40
  -5  -5   6   54.29   17.00
   4   5  -6  660.23   58.69
   4   5  -6  649.43   51.89
  -4  -5   6  685.43   60.39
  -4  -5   6  682.73   49.00
   3   5  -6  267.27   28.70
  -3  -5   6  243.38   23.20
  -3  -5   6  241.78   31.00
   2   5  -6   51.19    9.90
  -2  -5   6   56.19    8.20
  -2  -5   6   65.49   19.80
   0   5  -6  198.98   18.90
   0  -5   6  221.38   19.40
   0  -5   6  289.77   27.20
  -1   5  -6  266.57   26.80
  -1   5  -6  219.78   22.70
   1  -5   6  251.37   24.40
   1  -5   6  260.67   26.70
  -2   5  -6   41.70   15.00
  -2   5  -6   48.60   12.40
   2  -5   6   34.10   15.00
   2  -5   6   34.50   15.00
  -3   5  -6  408.96   40.30
  -3   5  -6  508.75   41.80
   3  -5   6  478.65   40.30
   3  -5   6  389.56   42.70
  -4   5  -6  794.42   64.29
  -4   5  -6  810.72   63.19
   4  -5   6  836.92   64.19
   4  -5   6  852.41   66.09
  -5   5  -6  -10.50   22.60
  -5   5  -6   77.09   21.60
   5  -5   6   -9.20   22.50
   5  -5   6   46.30   24.60
  -6   5  -6  308.87   43.20
  -6   5  -6  323.97   41.50
   6  -5   6  306.87   42.60
   6  -5   6  303.67   41.20
  -7   5  -6   89.49   32.00
   7  -5   6   17.50   32.50
  -8   5  -6  102.59   39.50
   8  -5   6   40.40   34.10
  -9   5  -6   71.99   43.20
   9  -5   6   57.49   41.70
 -10   5  -6    6.60   43.90
  10  -5   6    5.80   40.10
  10   4  -6  180.98   46.20
 -10  -4   6  176.88   54.19
   9   4  -6   20.50   34.20
  -9  -4   6   33.40   40.40
   8   4  -6  353.16   46.20
  -8  -4   6  345.37   56.09
   7   4  -6  361.06   42.90
  -7  -4   6  327.67   36.30
  -7  -4   6  277.17   49.90
   6   4  -6  244.28   32.30
  -6  -4   6  233.98   27.60
  -6  -4   6  180.58   46.50
   5   4  -6 1475.05   96.89
   5   4  -6 1269.87  100.99
  -5  -4   6 1309.57  103.09
  -5  -4   6 1366.26   93.89
   4   4  -6   12.40   21.60
   4   4  -6   29.50   14.40
  -4  -4   6   22.00   23.50
  -4  -4   6   31.90   11.20
   3   4  -6  217.48   28.10
   3   4  -6  177.18   19.60
  -3  -4   6  152.88   17.50
  -3  -4   6  174.28   26.30
   2   4  -6  812.62   55.09
  -2  -4   6  789.02   54.49
  -2  -4   6  858.41   62.29
   1   4  -6   40.00    9.70
   1   4  -6   28.80    7.40
   0   4  -6 2311.07  145.29
   0  -4   6 2162.58  145.19
   0  -4   6 2239.98  149.69
  -1   4  -6  199.58   20.70
  -1   4  -6  161.08   21.00
   1  -4   6  182.98   23.30
   1  -4   6  190.88   23.10
  -2   4  -6  465.65   41.60
  -2   4  -6  535.45   41.30
   2  -4   6  502.25   43.10
   2  -4   6  528.25   41.30
  -3   4  -6  217.88   26.80
  -3   4  -6  252.27   27.50
   3  -4   6  213.28   30.10
   3  -4   6  260.07   27.20
  -4   4  -6  429.76   41.90
  -4   4  -6  376.06   40.60
   4  -4   6  462.95   46.60
   4  -4   6  445.46   41.80
  -5   4  -6 1032.40   79.19
  -5   4  -6  939.11   76.89
   5  -4   6 1059.69   80.19
   5  -4   6  966.00   76.99
  -6   4  -6  279.97   45.80
  -6   4  -6  323.37   42.30
   6  -4   6  292.67   42.60
   6  -4   6  335.87   39.60
   7  -4   6  253.07   43.40
  -8   4  -6   -8.90   32.10
   8  -4   6   62.49   37.10
  -9   4  -6    0.10   38.80
   9  -4   6  -39.20   36.30
 -10   4  -6   30.20   46.10
  10  -4   6  -15.90   37.50
  10   3  -6  -40.60   33.40
 -10  -3   6  -18.70   43.80
   9   3  -6  283.07   48.30
  -9  -3   6  450.85   65.79
   8   3  -6  175.38   38.70
  -8  -3   6  208.48   44.90
   7   3  -6   15.80   22.60
  -7  -3   6   -5.20   30.70
  -7  -3   6   21.90   15.80
   6   3  -6  537.95   81.69
   6   3  -6  642.44   51.59
  -6  -3   6  541.75   61.29
  -6  -3   6  547.95   47.60
   5   3  -6  514.35   42.90
   5   3  -6  394.06   50.09
  -5  -3   6  402.96   50.89
  -5  -3   6  459.15   38.20
   4   3  -6  829.72   59.79
   4   3  -6  764.02   65.49
  -4  -3   6  822.32   58.19
  -4  -3   6  832.52   68.29
   3   3  -6  584.74   43.50
   3   3  -6  634.54   50.19
  -3  -3   6  554.54   50.79
  -3  -3   6  560.54   42.20
   2   3  -6  779.62   51.39
   2   3  -6  734.03   55.99
  -2  -3   6  712.33   55.89
  -2  -3   6  688.83   49.70
   1   3  -6  716.63   49.30
  -1  -3   6  744.83   54.19
   0   3  -6   80.49   13.60
   0  -3   6   82.09   13.50
   0  -3   6   56.69   13.10
  -1   3  -6  883.41   61.29
  -1   3  -6  714.43   69.19
   1  -3   6  945.51   61.49
   1  -3   6  888.71   62.69
  -2   3  -6  192.48   24.80
  -2   3  -6  227.98   24.40
   2  -3   6  201.28   26.60
  -3   3  -6 1326.37   91.29
  -3   3  -6 1217.08   89.19
   3  -3   6 1282.07   92.69
   3  -3   6 1343.67   89.79
  -4   3  -6  520.55   47.00
  -4   3  -6  522.75   48.50
   4  -3   6  548.15   52.19
   4  -3   6  527.95   46.40
  -5   3  -6  813.22   63.89
  -5   3  -6  710.43   62.99
   5  -3   6  748.73   63.09
   5  -3   6  834.22   68.79
  -6   3  -6  236.98   32.60
   6  -3   6  176.78   33.20
   6  -3   6  148.99   36.70
  -7   3  -6  -16.80   28.70
   7  -3   6    8.30   28.70
  -8   3  -6   32.20   35.10
   8  -3   6  -26.40   33.80
  -9   3  -6   11.00   41.40
   9  -3   6   51.99   39.70
 -10   3  -6  -34.50   41.10
  10  -3   6  -19.00   38.20
  10   2  -6   39.50   38.70
 -10  -2   6  -15.60   41.60
   9   2  -6   14.80   32.00
  -9  -2   6    2.60   39.10
   8   2  -6   27.70   28.10
  -8  -2   6   37.70   38.50
   7   2  -6  193.48   30.80
  -7  -2   6  128.49   23.50
  -7  -2   6   89.99   36.10
   6   2  -6   39.00   20.50
   6   2  -6   20.40   25.70
  -6  -2   6  -24.80   26.00
  -6  -2   6   32.80   27.80
   5   2  -6  607.04   49.00
  -5  -2   6  625.44   57.59
  -5  -2   6  550.54   45.70
   4   2  -6  620.44   48.00
   4   2  -6  597.54   54.69
  -4  -2   6  602.24   46.20
  -4  -2   6  629.54   55.79
   3   2  -6   35.40   19.40
   3   2  -6   30.10   12.20
  -3  -2   6  -10.70   18.20
  -3  -2   6   32.00   10.70
   2   2  -6 3680.43  243.48
   2   2  -6 3739.23  246.38
  -2  -2   6 3849.91  246.78
  -2  -2   6 3845.32  243.58
   1   2  -6   29.70    9.20
  -1  -2   6   12.30   11.00
   0   2  -6 2116.09  135.79
   0  -2   6 1881.31  140.19
   0  -2   6 2140.89  134.19
  -1   2  -6   26.20   13.60
  -1   2  -6   17.60    9.70
   1  -2   6   22.80   14.70
   1  -2   6   14.70    9.10
  -2   2  -6 3258.37  209.88
  -2   2  -6 3302.17  212.88
   2  -2   6 3226.18  209.98
   2  -2   6 3173.58  212.78
  -3   2  -6   12.70   16.30
  -3   2  -6   75.49   17.80
   3  -2   6   53.29   20.60
   3  -2   6   -2.90   14.60
  -4   2  -6  857.71   66.79
  -4   2  -6  763.92   64.59
   4  -2   6  974.30   70.09
   4  -2   6  861.11   65.39
  -5   2  -6  -12.00   20.70
  -5   2  -6   44.30   19.40
   5  -2   6   35.10   24.10
   5  -2   6  127.69   28.30
  -6   2  -6   63.99   26.10
   6  -2   6   64.89   29.00
  -7   2  -6    1.20   27.70
   7  -2   6   26.40   28.80
   7  -2   6   -1.50   28.10
  -8   2  -6   53.49   35.50
   8  -2   6   98.69   38.40
  -9   2  -6   -6.10   39.00
   9  -2   6   -7.30   35.70
 -10   2  -6   20.20   45.50
  10  -2   6  -48.60   35.00
  10   1  -6  -32.70   33.00
 -10  -1   6   34.20   42.50
   9   1  -6   32.10   32.40
  -9  -1   6   42.20   39.90
   8   1  -6  138.99   33.20
  -8  -1   6  134.79   41.50
   7   1  -6  128.69   30.80
  -7  -1   6  183.48   39.80
   6   1  -6  175.78   28.40
   6   1  -6  171.78   32.60
  -6  -1   6  195.78   25.00
  -6  -1   6  201.18   36.10
   5   1  -6  235.68   40.70
   5   1  -6  225.28   29.10
  -5  -1   6  258.47   27.80
  -5  -1   6  327.17   39.90
   4   1  -6  302.27   36.80
   4   1  -6  292.37   31.00
  -4  -1   6  335.87   38.40
  -4  -1   6  289.47   28.60
   3   1  -6 3554.94  233.38
   3   1  -6 3554.54  236.48
  -3  -1   6 3736.93  236.88
  -3  -1   6 3531.95  232.68
   2   1  -6  265.47   25.30
   2   1  -6  293.67   29.30
  -2  -1   6  301.77   29.90
  -2  -1   6  270.17   24.40
   1   1  -6 3349.36  214.48
   1   1  -6 3225.98  214.98
  -1  -1   6 3391.86  215.18
   0   1  -6  213.78   23.80
   0  -1   6  169.28   18.10
   0  -1   6  220.78   23.50
  -1   1  -6 2622.94  167.48
  -1   1  -6 2560.94  171.78
   1  -1   6 2563.04  167.38
   1  -1   6 2686.43  172.18
  -2   1  -6  153.78   17.00
  -2   1  -6  186.98   24.10
   2  -1   6  170.58   18.20
   2  -1   6  170.18   24.40
  -3   1  -6 2923.61  190.68
  -3   1  -6 2916.81  194.28
   3  -1   6 2818.32  190.88
   3  -1   6 3010.70  195.18
  -4   1  -6   26.00   17.90
  -4   1  -6  -64.39   18.30
   4  -1   6   41.00   21.60
   4  -1   6  -74.99   20.70
  -5   1  -6  237.78   32.10
  -5   1  -6  241.98   32.40
   5  -1   6  226.18   33.10
   5  -1   6  308.97   38.50
  -6   1  -6  104.99   31.50
   6  -1   6   96.89   43.40
   6  -1   6   98.89   30.70
  -7   1  -6  122.29   34.50
   7  -1   6   97.29   32.20
   7  -1   6   46.10   30.90
  -8   1  -6   52.49   38.40
   8  -1   6   18.90   32.30
  -9   1  -6   30.80   40.00
   9  -1   6   91.79   39.80
 -10   1  -6   63.69   47.60
  10  -1   6   17.10   41.40
  10   0  -6   18.30   36.60
 -10   0   6   76.89   45.70
   9   0  -6   36.10   32.90
  -9   0   6   -8.60   37.80
   8   0  -6  178.08   39.20
  -8   0   6  305.27   51.69
   7   0  -6   11.20   30.90
  -7   0   6  -12.70   29.30
   6   0  -6  -12.60   17.90
   6   0  -6   14.10   20.10
  -6   0   6  -25.50   22.30
  -6   0   6   13.70   14.00
   5   0  -6   63.89   19.00
   5   0  -6   30.80   22.30
  -5   0   6    4.80   21.20
  -5   0   6   30.30   12.70
   4   0  -6 2486.45  163.78
   4   0  -6 2291.27  165.88
  -4   0   6 2489.55  162.48
  -4   0   6 2552.54  167.28
   3   0  -6   82.39   22.20
   3   0  -6  119.89   18.10
  -3   0   6  123.69   22.70
  -3   0   6   92.59   15.70
   2   0  -6 1790.82  117.89
   2   0  -6 1698.03  116.19
  -2   0   6 1697.63  115.79
  -2   0   6 1819.12  117.69
   1   0  -6  253.67   23.80
   1   0  -6  265.37   24.50
  -1   0   6  219.28   23.60
   0   0  -6 2548.34  171.38
   0   0   6 2646.74  171.18
  -1   0  -6   53.89   16.30
   1   0   6   58.29   17.50
  -2   0  -6 2047.00  139.39
  -2   0  -6 2005.30  133.49
   2   0   6 2039.80  133.89
   2   0   6 2147.79  140.19
  -3   0  -6   59.99   18.40
  -3   0  -6  125.29   22.30
   3   0   6  176.88   25.90
   3   0   6   28.50   21.10
  -4   0  -6 1305.47  103.99
  -4   0  -6 1564.94  102.89
   4   0   6 1432.96  102.29
   4   0   6 1537.75  106.99
  -5   0  -6  161.58   27.60
  -5   0  -6  175.68   30.80
   5   0   6  181.08   30.70
   5   0   6  162.98   33.00
  -6   0  -6  -49.60   23.10
   6   0   6   -3.00   23.90
   6   0   6   36.80   35.50
  -7   0  -6  112.89   34.90
   7   0   6  129.09   35.30
   7   0   6  157.58   35.80
  -8   0  -6   17.00   35.20
   8   0   6   36.20   33.50
  -9   0  -6  135.99   47.40
   9   0   6   79.69   41.20
 -10   0  -6   53.69   50.69
  10   0   6    8.90   40.30
  10  -1  -6  -15.00   35.60
 -10   1   6   36.20   46.10
   9  -1  -6  -13.10   30.90
  -9   1   6    9.90   38.60
   8  -1  -6   16.10   26.60
  -8   1   6   57.39   34.70
   7  -1  -6   61.39   27.20
  -7   1   6   29.80   32.60
   6  -1  -6   25.90   20.20
   6  -1  -6   93.39   25.60
  -6   1   6   69.19   28.30
  -6   1   6   61.89   17.50
   5  -1  -6  197.98   35.00
   5  -1  -6  142.39   25.40
  -5   1   6  164.48   31.90
  -5   1   6  134.59   28.70
   4  -1  -6  113.19   21.20
   4  -1  -6   72.49   23.60
  -4   1   6   94.89   16.70
  -4   1   6  117.89   25.50
   3  -1  -6 3395.56  228.98
   3  -1  -6 3436.26  227.58
  -3   1   6 3600.94  227.18
  -3   1   6 3488.95  229.28
   2  -1  -6   -6.30   13.50
   2  -1  -6    4.60   11.10
  -2   1   6   -5.40   13.30
  -2   1   6    7.20   10.20
   1  -1  -6 1563.04  103.69
   1  -1  -6 1530.05  104.49
  -1   1   6 1601.14  103.49
   0  -1  -6   29.30   15.10
  -1  -1  -6 1109.79   78.89
   1   1   6 1054.39   78.29
  -2  -1  -6  216.88   27.70
  -2  -1  -6  172.78   19.20
   2   1   6  232.68   28.70
   2   1   6  170.78   19.60
  -3  -1  -6 1691.63  103.29
  -3  -1  -6 1492.95  107.59
   3   1   6 1445.06  108.69
   3   1   6 1395.06  105.49
  -4  -1  -6   -9.80   21.90
  -4  -1  -6  -30.20   17.20
   4   1   6  -20.50   15.70
   4   1   6   37.10   23.60
  -5  -1  -6  233.48   31.60
  -5  -1  -6  161.08   30.10
   5   1   6  206.18   35.50
   5   1   6  182.58   29.80
  -6  -1  -6  170.58   34.40
   6   1   6  122.19   32.40
   6   1   6  179.98   36.40
  -7  -1  -6   62.99   32.10
   7   1   6    2.00   33.50
   7   1   6   -9.80   29.30
  -8  -1  -6   26.50   36.30
   8   1   6   15.60   37.40
  -9  -1  -6   89.99   44.60
   9   1   6   -0.40   38.60
 -10  -1  -6    2.30   49.50
  10   1   6   40.70   44.90
  10  -2  -6   27.30   36.10
 -10   2   6   67.79   44.10
   9  -2  -6   73.29   35.80
  -9   2   6  133.89   45.60
   8  -2  -6   49.50   29.50
  -8   2   6   77.09   39.90
   7  -2  -6  274.37   41.90
  -7   2   6  371.66   51.49
   6  -2  -6  111.99   30.80
   6  -2  -6  111.29   26.70
  -6   2   6  130.59   23.60
  -6   2   6  136.19   33.40
   5  -2  -6  239.78   32.20
   5  -2  -6  262.57   55.39
  -5   2   6  234.48   28.10
  -5   2   6  286.97   38.50
   4  -2  -6  470.85   43.80
   4  -2  -6  424.46   42.70
  -4   2   6  477.55   39.10
  -4   2   6  476.65   46.40
   3  -2  -6  -45.80   15.60
   3  -2  -6   10.80   13.90
  -3   2   6    4.00   11.30
  -3   2   6  -13.60   17.00
   2  -2  -6  160.28   20.90
   2  -2  -6  186.68   22.30
  -2   2   6  177.38   20.50
  -2   2   6  149.39   21.30
   1  -2  -6   -2.80   11.90
   1  -2  -6   30.80   11.10
  -1   2   6   36.60   11.00
   0  -2  -6  272.87   30.60
   0  -2  -6  249.58   20.40
   0   2   6  247.68   20.20
  -1  -2  -6  593.04   51.29
   1   2   6  647.44   51.49
  -2  -2  -6  341.17   36.60
  -2  -2  -6  296.37   27.60
   2   2   6  311.57   36.30
  -3  -2  -6  686.53   56.19
  -3  -2  -6  617.84   51.09
   3   2   6  627.14   50.09
   3   2   6  734.83   58.89
  -4  -2  -6  152.98   25.50
  -4  -2  -6  100.69   28.00
   4   2   6  108.39   22.70
   4   2   6  159.58   31.30
  -5  -2  -6  387.16   41.60
  -5  -2  -6  309.47   39.20
   5   2   6  289.47   42.80
   5   2   6  324.17   38.10
  -6  -2  -6   51.99   31.40
   6   2   6   82.19   40.00
   6   2   6  179.18   37.40
  -7  -2  -6  166.48   38.10
   7   2   6   75.19   35.70
   7   2   6  115.69   37.80
  -8  -2  -6  100.19   40.50
   8   2   6   40.40   37.60
  -9  -2  -6   39.10   44.40
   9   2   6   70.29   42.60
 -10  -2  -6  193.08   59.69
  10   2   6   84.19   48.70
  10  -3  -6   -9.30   35.10
 -10   3   6   10.80   40.70
   9  -3  -6  -25.50   30.50
  -9   3   6   -0.40   39.60
   8  -3  -6  131.79   37.30
  -8   3   6  123.19   40.40
   7  -3  -6    7.00   26.20
  -7   3   6   19.50   31.40
   6  -3  -6  866.31   78.99
  -6   3   6  843.92   75.49
   5  -3  -6   24.70   26.60
   5  -3  -6   72.69   23.80
  -5   3   6   61.39   15.90
  -5   3   6   56.19   25.80
   4  -3  -6  392.56   41.40
   4  -3  -6  420.96   41.90
  -4   3   6  484.75   45.40
  -4   3   6  412.76   43.60
   3  -3  -6  488.15   46.60
   3  -3  -6  612.74   46.70
  -3   3   6  563.54   44.10
  -3   3   6  522.95   47.00
   2  -3  -6   41.20   14.60
   2  -3  -6   50.39   14.80
  -2   3   6   54.39   14.50
  -2   3   6   40.50   15.40
   1  -3  -6   55.19   15.20
   1  -3  -6   61.19   13.50
  -1   3   6   88.39   15.60
   0  -3  -6   19.70   16.30
   0  -3  -6    3.50   11.30
   0  -3  -6   26.50    8.00
   0   3   6   20.50    9.30
  -1  -3  -6   34.70    9.40
  -1  -3  -6   19.90   17.80
   1   3   6   60.49   20.90
  -2  -3  -6  370.96   41.40
  -2  -3  -6  413.36   34.70
   2   3   6  404.76   43.40
  -3  -3  -6  128.59   26.50
  -3  -3  -6   95.19   22.50
   3   3   6  135.59   29.10
  -4  -3  -6  759.42   60.49
  -4  -3  -6  726.43   63.19
   4   3   6  791.22   67.09
   4   3   6  704.63   58.59
  -5  -3  -6   29.70   25.40
   5   3   6   12.50   24.30
   5   3   6   56.29   28.30
  -6  -3  -6  163.88   34.90
   6   3   6  164.18   37.70
   6   3   6  134.19   48.00
  -7  -3  -6   28.70   32.60
   7   3   6  189.68   42.20
   7   3   6   81.99   45.10
  -8  -3  -6   -1.00   36.10
   8   3   6  -53.49   32.00
  -9  -3  -6  185.48   52.49
   9   3   6  136.69   43.70
  10  -4  -6  104.09   42.10
 -10   4   6  -19.00   38.70
   9  -4  -6   -1.80   33.00
  -9   4   6   21.80   38.40
   8  -4  -6  -10.80   27.10
  -8   4   6   18.50   34.30
   7  -4  -6  312.57   43.90
  -7   4   6  326.87   50.69
   6  -4  -6  188.58   33.30
  -6   4   6   95.39   34.00
   5  -4  -6  863.61   71.19
   5  -4  -6  857.11   71.19
  -5   4   6  876.41   66.99
  -5   4   6  960.10   74.39
   4  -4  -6   70.49   20.20
   4  -4  -6    0.00   18.20
  -4   4   6   26.90   14.40
  -4   4   6   16.80   20.80
   3  -4  -6  868.81   69.49
   3  -4  -6  924.11   70.09
  -3   4   6  910.51   68.49
  -3   4   6 1042.20   71.29
   2  -4  -6  268.07   29.40
   2  -4  -6  252.67   29.80
  -2   4   6  288.57   30.50
  -2   4   6  292.17   29.50
   1  -4  -6   62.39   17.70
   1  -4  -6   94.89   23.20
   1  -4  -6  115.39   19.70
  -1   4   6  127.29   17.40
   0  -4  -6  263.37   27.10
   0  -4  -6  259.77   32.40
   0  -4  -6  276.77   24.40
   0   4   6  235.88   24.70
  -1  -4  -6  302.97   36.60
  -1  -4  -6  312.17   27.10
   1   4   6  331.87   36.40
  -2  -4  -6  520.75   39.80
  -2  -4  -6  414.46   43.70
  -2  -4  -6  458.65   47.00
   2   4   6  462.35   47.50
  -3  -4  -6  303.37   37.10
  -3  -4  -6  249.48   29.80
   3   4   6  258.27   36.70
  -4  -4  -6  242.88   35.70
  -4  -4  -6  241.68   33.80
   4   4   6  268.27   37.50
  -5  -4  -6   78.69   26.40
   5   4   6   68.89   37.30
  -6  -4  -6  270.97   42.00
   6   4   6  191.88   38.20
   6   4   6  264.27   42.70
  -7  -4  -6   25.90   37.50
   7   4   6  -12.10   32.40
  -8  -4  -6  281.77   54.79
   8   4   6  250.17   50.89
  -9  -4  -6    0.20   46.50
   9   4   6    4.00   40.80
  10  -5  -6   17.70   38.10
 -10   5   6   18.10   44.90
   9  -5  -6  139.49   42.50
  -9   5   6  110.19   44.20
   8  -5  -6  105.89   36.20
  -8   5   6   41.30   36.70
   7  -5  -6   -7.10   26.50
  -7   5   6   -8.20   27.80
   6  -5  -6  607.24   57.29
  -6   5   6  486.35   68.69
   5  -5  -6   10.60   19.40
  -5   5   6  -27.30   21.90
   4  -5  -6  809.12   65.59
   4  -5  -6  772.62   65.49
  -4   5   6  807.72   62.29
  -4   5   6  876.21   67.99
   3  -5  -6   37.50   17.60
   3  -5  -6   57.59   18.10
  -3   5   6   13.00   13.20
  -3   5   6   35.80   18.20
   2  -5  -6   18.10   13.80
   2  -5  -6   30.20   15.60
  -2   5   6    1.80   15.50
  -2   5   6   41.30   13.90
   1  -5  -6  196.98   23.40
   1  -5  -6  225.68   27.10
   1  -5  -6  214.78   30.60
  -1   5   6  238.28   25.20
   0  -5  -6  213.78   25.70
   0  -5  -6  201.18   29.70
   0  -5  -6  227.28   27.70
   0   5   6  167.98   21.20
  -1  -5  -6    9.60   20.80
   1   5   6   18.90   21.20
  -2  -5  -6    1.20   13.00
  -2  -5  -6    5.70   15.40
  -2  -5  -6   -6.80   26.20
   2   5   6  -13.20   21.10
  -3  -5  -6   99.99   23.60
  -3  -5  -6   76.89   25.50
   3   5   6  120.79   30.70
  -4  -5  -6   11.50   21.60
  -4  -5  -6   -5.30   30.20
   4   5   6   -9.80   26.00
  -5  -5  -6  142.19   30.40
   5   5   6  125.99   34.60
  -6  -5  -6   62.89   32.20
   6   5   6  -19.10   36.10
  -7  -5  -6  257.97   63.79
   7   5   6  193.98   47.40
  -8  -5  -6   67.89   41.10
   8   5   6   49.90   41.50
  -9  -5  -6  126.39   55.99
   9   5   6  238.28   52.69
   9  -6  -6   41.80   34.90
  -9   6   6  -27.70   35.10
   8  -6  -6  137.79   38.60
  -8   6   6  171.28   43.70
   7  -6  -6  181.98   36.90
  -7   6   6  124.69   39.80
   6  -6  -6  -29.60   24.00
  -6   6   6    7.20   29.00
   5  -6  -6   58.99   23.00
   5  -6  -6   27.40   23.60
  -5   6   6   55.49   27.00
   4  -6  -6  -40.90   18.90
   4  -6  -6    1.70   17.60
  -4   6   6   10.80   20.30
   3  -6  -6  269.07   35.00
   3  -6  -6  310.57   35.70
  -3   6   6  279.17   31.80
  -3   6   6  351.66   37.10
   2  -6  -6  469.45   40.90
   2  -6  -6  421.76   38.90
  -2   6   6  470.55   40.90
  -2   6   6  371.66   38.40
   1  -6  -6  271.37   30.20
   1  -6  -6  354.06   42.60
   1  -6  -6  326.37   33.50
  -1   6   6  302.67   31.80
   0  -6  -6   -3.00   27.00
   0  -6  -6   36.20   17.10
   0  -6  -6   35.40   13.80
   0   6   6   46.90   14.90
  -1  -6  -6   17.00   22.10
  -1  -6  -6   16.10   11.90
  -2  -6  -6   61.19   19.60
  -2  -6  -6   40.50   14.60
  -2  -6  -6   -1.50   22.50
   2   6   6   33.10   25.00
  -3  -6  -6  117.99   27.80
  -3  -6  -6  104.49   21.80
  -3  -6  -6  137.99   26.90
   3   6   6  128.79   31.20
  -4  -6  -6  125.79   28.70
   4   6   6  122.59   39.50
  -5  -6  -6   -4.20   26.50
   5   6   6   41.50   31.00
  -6  -6  -6  113.09   35.30
   6   6   6  126.59   40.00
  -7  -6  -6   21.70   36.00
   7   6   6  -25.90   36.10
  -8  -6  -6  156.58   48.10
   8   6   6   73.09   43.70
   9  -7  -6  214.68   47.70
  -9   7   6  127.29   43.90
   8  -7  -6   97.09   36.70
  -8   7   6   63.99   39.40
   7  -7  -6   30.60   27.50
  -7   7   6  -28.40   30.10
   6  -7  -6   42.10   27.90
  -6   7   6   30.60   28.70
   5  -7  -6  -21.30   21.80
   5  -7  -6  -16.40   19.60
  -5   7   6  -25.80   24.30
   4  -7  -6  159.48   30.50
   4  -7  -6  217.68   33.10
  -4   7   6  196.58   32.60
   3  -7  -6  354.66   39.30
   3  -7  -6  323.97   38.10
  -3   7   6  343.27   40.10
  -3   7   6  395.86   49.80
   2  -7  -6   24.00   15.70
   2  -7  -6   16.10   16.70
  -2   7   6    7.00   17.80
   1  -7  -6    5.70   15.10
   1  -7  -6   11.30   22.30
   1  -7  -6   -6.50   12.20
  -1   7   6   -7.00   15.80
   0  -7  -6  273.07   28.90
   0  -7  -6  186.28   23.70
   0  -7  -6  168.08   31.90
   0   7   6  162.28   24.60
  -1  -7  -6   97.89   28.70
  -1  -7  -6   83.49   17.10
  -2  -7  -6  236.28   31.50
  -2  -7  -6  174.78   34.00
  -2  -7  -6  240.38   28.20
   2   7   6  216.58   35.60
  -3  -7  -6   40.60   18.80
  -3  -7  -6   56.09   24.20
   3   7   6   50.39   38.10
  -4  -7  -6   87.89   30.20
   4   7   6   23.00   28.50
  -5  -7  -6   49.30   31.20
   5   7   6   20.30   31.70
  -6  -7  -6   66.59   35.70
   6   7   6   27.30   35.50
  -7  -7  -6   85.09   40.10
   7   7   6   -0.10   35.30
  -8  -7  -6  -41.90   40.00
   8   7   6   48.40   44.00
   9  -8  -6   17.60   33.00
  -9   8   6   27.10   36.70
   8  -8  -6  392.56   55.09
  -8   8   6  327.37   57.09
   7  -8  -6  214.88   41.40
  -7   8   6  243.28   45.70
   6  -8  -6  -18.10   24.40
  -6   8   6   26.50   29.40
   5  -8  -6    0.40   23.20
   4  -8  -6  115.99   27.00
   4  -8  -6  159.58   30.40
  -4   8   6  149.88   32.00
   3  -8  -6  205.58   31.40
   3  -8  -6  251.17   34.20
  -3   8   6  273.57   34.70
   2  -8  -6  147.09   24.90
   2  -8  -6  171.28   28.70
  -2   8   6  164.88   27.20
   1  -8  -6   86.89   20.00
   1  -8  -6   81.79   28.70
   1  -8  -6   76.29   21.40
  -1   8   6  100.49   22.60
   0  -8  -6  201.68   27.70
   0  -8  -6  144.49   23.30
   0  -8  -6  207.98   35.10
   0   8   6  164.08   26.30
  -1  -8  -6  670.83   52.09
  -1  -8  -6  667.43   75.19
  -1  -8  -6  545.45   49.60
  -2  -8  -6  167.08   25.10
  -2  -8  -6  142.09   27.90
  -3  -8  -6  297.67   39.60
  -3  -8  -6  198.18   31.90
   3   8   6  304.77   41.80
  -4  -8  -6   52.79   31.50
  -4  -8  -6  106.29   26.70
   4   8   6   42.20   30.40
  -5  -8  -6  131.59   37.30
   5   8   6  159.28   40.70
  -6  -8  -6   81.99   48.70
   6   8   6  110.89   40.40
  -7  -8  -6   86.89   40.80
   7   8   6   51.59   39.90
  -8  -8  -6   77.69   45.00
   8   8   6   72.09   47.00
   8  -9  -6  293.97   49.90
  -8   9   6  305.97   53.99
   7  -9  -6  315.27   48.10
  -7   9   6  298.57   51.39
   6  -9  -6  -12.50   25.90
  -6   9   6  -37.40   28.60
   5  -9  -6   53.59   27.20
  -5   9   6   44.50   31.30
   4  -9  -6  174.88   33.10
   4  -9  -6  106.99   29.00
  -4   9   6  169.48   33.20
   3  -9  -6   94.29   25.40
   3  -9  -6   70.09   22.20
  -3   9   6   92.49   26.90
   2  -9  -6   42.80   20.40
   2  -9  -6   19.60   16.30
  -2   9   6   37.00   21.90
   1  -9  -6   79.39   22.50
   1  -9  -6   63.99   19.10
  -1   9   6  104.59   24.70
   0  -9  -6  222.68   30.80
   0  -9  -6  163.68   25.40
  -1  -9  -6   49.20   18.80
  -1  -9  -6   84.99   22.10
  -2  -9  -6  392.36   42.10
  -3  -9  -6   90.49   25.70
  -3  -9  -6  153.38   32.90
   3   9   6   90.69   32.70
  -4  -9  -6   94.29   52.49
  -4  -9  -6  128.29   36.10
   4   9   6   62.99   35.50
  -5  -9  -6    4.60   26.00
  -5  -9  -6   58.69   33.00
   5   9   6   25.80   34.20
  -6  -9  -6    7.90   37.50
   6   9   6   33.30   40.40
  -7  -9  -6  119.69   45.40
   7   9   6   82.89   45.40
   8 -10  -6   92.39   37.20
  -8  10   6  171.28   45.60
   7 -10  -6   92.89   36.30
  -7  10   6  127.19   40.60
   6 -10  -6  136.99   36.60
  -6  10   6  113.79   38.40
   5 -10  -6  250.27   42.10
  -5  10   6  267.77   44.40
   4 -10  -6   30.00   25.00
   3 -10  -6   73.99   23.20
   3 -10  -6   75.59   26.70
  -3  10   6   67.19   27.50
   2 -10  -6   78.19   24.20
   2 -10  -6  106.39   27.20
  -2  10   6  133.99   28.40
   1 -10  -6  289.67   35.60
   1 -10  -6  207.98   31.00
  -1  10   6  256.37   35.00
   0 -10  -6  445.36   42.30
   0 -10  -6  285.37   37.20
  -1 -10  -6  249.58   34.00
  -1 -10  -6  198.08   29.70
  -2 -10  -6   44.00   22.50
  -3 -10  -6   19.00   40.70
  -3 -10  -6  108.89   36.40
   3  10   6   93.39   34.30
  -4 -10  -6  215.38   42.60
  -4 -10  -6  151.08   35.20
   4  10   6  172.48   40.30
  -5 -10  -6   51.79   44.60
   5  10   6   26.10   37.50
  -6 -10  -6  -26.50   34.00
   6  10   6   36.40   38.70
  -7 -10  -6  -33.40   39.20
   7  10   6   55.99   43.00
   7 -11  -6  168.58   40.00
  -7  11   6   98.49   39.00
   6 -11  -6   91.39   32.70
  -6  11   6    9.50   34.40
   5 -11  -6  215.48   40.00
  -5  11   6  251.67   43.60
   4 -11  -6   48.90   27.30
  -4  11   6  -11.20   29.20
   3 -11  -6  206.08   36.50
  -3  11   6  187.78   38.30
   2 -11  -6  -23.50   22.10
   2 -11  -6    9.70   20.10
  -2  11   6   -9.90   27.00
   1 -11  -6  167.48   30.20
   1 -11  -6  235.88   36.80
  -1  11   6  214.88   35.70
   0 -11  -6  171.38   31.60
  -1 -11  -6  178.38   33.50
  -1 -11  -6  174.78   44.10
  -2 -11  -6   87.69   31.90
  -2 -11  -6  196.08   31.50
  -3 -11  -6  101.39   34.80
  -3 -11  -6   -0.20   24.40
  -4 -11  -6   22.00   35.20
  -4 -11  -6  -36.70   26.10
   4  11   6  -13.00   31.40
  -5 -11  -6  -32.40   38.50
   5  11   6   -6.60   33.80
  -6 -11  -6  -20.50   37.20
   6  11   6  -35.40   38.80
   7 -12  -6   46.00   34.60
  -7  12   6   76.29   39.30
   6 -12  -6  203.48   40.90
  -6  12   6  167.88   43.60
   5 -12  -6   82.19   31.00
  -5  12   6   65.39   35.10
   4 -12  -6  567.64   58.99
  -4  12   6  532.75   62.19
   3 -12  -6   89.89   29.40
  -3  12   6   36.20   30.60
   2 -12  -6  655.43   62.69
  -2  12   6  680.53   67.99
   1 -12  -6  125.19   27.70
   1 -12  -6  140.19   32.70
  -1  12   6  121.29   31.80
   0 -12  -6  274.27   37.50
   0 -12  -6  170.68   30.20
  -1 -12  -6  104.29   28.20
  -1 -12  -6   86.79   27.00
  -2 -12  -6   95.29   29.20
  -2 -12  -6  230.68   35.40
  -3 -12  -6   43.10   37.30
  -3 -12  -6   -3.10   24.30
  -4 -12  -6   14.00   40.70
  -5 -12  -6   26.70   42.20
   5  12   6   -3.40   35.00
   6 -13  -6   26.60   30.60
  -6  13   6  -18.00   36.60
   5 -13  -6  362.36   50.29
  -5  13   6  361.26   55.09
   4 -13  -6  -15.80   26.10
  -4  13   6    7.40   30.70
   3 -13  -6  535.35   58.19
  -3  13   6  496.35   58.99
   2 -13  -6   59.99   29.10
  -2  13   6   61.89   32.70
   1 -13  -6  331.67   43.10
  -1  13   6  271.27   64.69
   0 -13  -6  107.49   29.90
  -1 -13  -6  235.98   38.90
  -2 -13  -6   44.90   29.60
  -3 -13  -6  -23.80   37.90
  -3 -13  -6    1.60   28.20
  -4 -13  -6    7.40   40.50
   5 -14  -6   14.10   30.50
  -5  14   6  -31.30   32.20
   4 -14  -6  455.75   53.69
  -4  14   6  356.06   55.09
   3 -14  -6   18.50   28.00
  -3  14   6   15.90   33.40
   2 -14  -6  227.88   40.10
  -2  14   6  220.58   42.80
   1 -14  -6   12.80   27.10
  -1  14   6  -20.60   30.60
   0 -14  -6   28.70   28.50
  -1 -14  -6   51.09   29.30
  -2 -14  -6   27.90   29.70
  -3 -14  -6   73.09   42.00
  -3 -14  -6   58.69   33.20
   4 -15  -6   42.00   31.40
  -4  15   6   -9.00   33.50
   3 -15  -6  176.48   39.20
  -3  15   6  131.29   40.80
   2 -15  -6   -4.80   27.70
  -2  15   6   -3.80   33.80
   1 -15  -6  325.47   48.30
   0 -15  -6  -65.49   28.10
  -1 -15  -6   16.10   30.80
  -2 -15  -6   81.39   32.90
  -1 -20   7  119.29   22.60
  -1 -20   7   87.09   31.50
   0 -20   7   -5.00   17.60
   1 -20   7    8.60   30.30
   1 -20   7   50.09   22.50
  -2  20  -7  294.37   56.29
  -3  20  -7  121.19   64.89
   3 -20   7  121.99   30.40
  -3 -19   7    9.90   22.00
  -3 -19   7    6.20   14.90
  -2 -19   7   98.89   19.20
  -2 -19   7   42.70   25.20
  -1 -19   7  -13.40   15.30
  -1 -19   7   44.10   25.60
   0 -19   7   57.39   29.70
   0 -19   7  133.89   23.00
   1 -19   7   46.70   51.29
   1 -19   7  183.08   27.90
  -2  19  -7   14.30   36.60
   2 -19   7   18.90   20.80
  -3  19  -7  357.16   57.99
   3 -19   7  328.37   42.60
  -4  19  -7   19.90   38.90
   4 -19   7  -15.20   23.10
  -4 -18   7   42.10   17.40
  -4 -18   7  -33.50   44.20
  -4 -18   7    9.90   19.70
  -3 -18   7  111.39   19.00
  -3 -18   7   52.99   21.50
  -2 -18   7   25.90   15.20
  -2 -18   7  -17.80   19.90
  -1 -18   7   32.90   15.30
  -1 -18   7   54.79   22.70
   0 -18   7  223.68   36.70
   0 -18   7  275.97   30.10
  -1  18  -7   64.69   39.30
   1 -18   7   -3.30   26.60
   1 -18   7   43.20   19.60
  -2  18  -7  372.76   55.79
   2 -18   7  284.77   37.20
  -3  18  -7  -37.40   31.00
  -3  18  -7    3.30   21.70
   3 -18   7   34.10   22.60
  -4  18  -7  547.45   71.89
   4 -18   7  508.15   54.49
  -5  18  -7   19.80   33.70
   5 -18   7   16.70   28.30
   6 -18   7  458.55   60.69
  -5 -17   7    8.20   20.00
  -5 -17   7   18.70   18.10
  -5 -17   7   39.00   46.20
  -4 -17   7   11.70   44.30
  -4 -17   7   77.19   21.70
  -4 -17   7   52.29   17.20
  -3 -17   7   39.90   19.00
  -3 -17   7   41.00   14.90
  -2 -17   7   29.40   14.00
  -2 -17   7   37.60   19.00
  -1 -17   7    7.80   19.80
  -1 -17   7   29.10   14.00
   0 -17   7   19.70   15.50
   0 -17   7    4.90   21.90
  -1  17  -7   54.49   37.90
   1 -17   7   94.59   20.50
   1 -17   7   85.99   27.00
  -2  17  -7   11.90   33.40
   2 -17   7   -5.10   17.90
  -3  17  -7  312.87   52.79
  -3  17  -7  261.87   31.30
   3 -17   7  242.38   36.00
  -4  17  -7   -6.60   33.20
   4 -17   7   51.59   25.80
  -5  17  -7  582.34   72.39
   5 -17   7  676.43   64.59
  -6  17  -7   -9.20   33.10
   6 -17   7    0.10   30.90
  -6 -16   7   28.80   49.20
  -5 -16   7  -42.10   45.10
  -5 -16   7   43.60   20.10
  -4 -16   7   32.10   17.30
  -4 -16   7  -38.70   39.40
  -4 -16   7  -13.20   14.60
  -3 -16   7   51.19   17.40
  -3 -16   7   59.29   14.50
  -2 -16   7   15.40   16.40
  -2 -16   7   26.00   12.60
  -1 -16   7  204.58   23.00
  -1 -16   7  214.18   28.20
   0 -16   7  140.69   20.70
   0 -16   7  123.09   27.30
  -1  16  -7   83.39   35.00
   1 -16   7  133.49   22.10
  -2  16  -7  831.02   78.89
  -2  16  -7  743.93   60.49
   2 -16   7  870.41   64.29
  -3  16  -7  -21.00   13.70
  -3  16  -7   14.50   30.90
   3 -16   7   15.60   20.10
  -4  16  -7  215.78   43.70
   4 -16   7  220.08   36.40
  -5  16  -7  145.89   39.40
   5 -16   7   87.09   31.40
  -6  16  -7  276.97   50.89
   6 -16   7  218.08   44.70
  -7  16  -7  173.78   46.80
   7 -16   7  152.78   41.60
   6  15  -7   47.00   25.90
  -6 -15   7   38.20   22.00
  -6 -15   7  -16.60   40.50
  -5 -15   7  -16.40   40.30
  -5 -15   7   15.90   17.90
  -4 -15   7   32.70   16.50
  -4 -15   7   16.00   14.20
  -4 -15   7   19.10   39.00
  -3 -15   7    0.30   11.40
  -3 -15   7    8.50   13.50
  -2 -15   7  152.38   17.30
  -2 -15   7  115.59   19.50
  -1 -15   7   79.39   14.80
  -1 -15   7   91.89   19.40
   0 -15   7  166.08   20.40
  -1  15  -7   99.89   33.70
   1 -15   7  120.89   19.30
  -2  15  -7   46.30   28.60
  -2  15  -7   14.60   13.30
   2 -15   7   32.00   17.60
  -3  15  -7  153.58   37.30
  -3  15  -7  136.59   36.10
   3 -15   7  151.58   27.20
  -4  15  -7    6.20   31.40
  -4  15  -7   19.40   14.60
   4 -15   7  -16.80   20.10
  -5  15  -7  109.99   39.10
   5 -15   7  166.88   35.30
  -6  15  -7   97.99   37.80
   6 -15   7  125.09   34.70
  -7  15  -7  225.78   49.10
   7 -15   7  192.08   46.70
  -8  15  -7  193.38   55.29
   8 -15   7   83.99   41.00
   7  14  -7   23.20   28.40
  -7 -14   7   -5.10   45.50
  -7 -14   7  -12.20   20.50
   6  14  -7   24.40   25.30
  -6 -14   7   46.10   20.30
  -6 -14   7   33.90   41.20
   5  14  -7   31.70   22.30
  -5 -14   7   51.59   18.00
  -5 -14   7   36.10   42.10
  -4 -14   7    9.80   13.60
  -4 -14   7   58.39   38.80
  -3 -14   7  157.18   20.80
  -3 -14   7  180.78   19.20
  -2 -14   7  100.89   14.20
  -1 -14   7  228.48   21.70
  -1 -14   7  219.08   31.50
   0 -14   7  353.26   29.20
   0 -14   7  320.97   33.20
  -1  14  -7  303.07   45.70
   1 -14   7  285.77   28.90
  -2  14  -7   92.09   32.60
  -2  14  -7  132.09   19.50
   2 -14   7  135.99   23.10
  -3  14  -7   24.90   12.50
  -3  14  -7   26.70   27.30
   3 -14   7   45.40   18.90
  -4  14  -7   44.00   15.40
  -4  14  -7   21.20   28.50
   4 -14   7   40.50   22.80
  -5  14  -7   81.89   34.60
   5 -14   7  107.09   29.80
  -6  14  -7   54.29   33.70
   6 -14   7   37.80   29.40
  -7  14  -7   88.99   38.20
   7 -14   7  151.88   40.30
  -8  14  -7   26.80   35.20
   8 -14   7   86.89   38.10
   7  13  -7   -7.90   29.20
  -7 -13   7   39.30   44.00
  -7 -13   7   40.70   22.20
   6  13  -7   -9.20   22.80
  -6 -13   7   10.40   17.30
  -6 -13   7    2.60   40.70
   5  13  -7   49.80   21.80
  -5 -13   7   48.50   17.00
  -5 -13   7  133.29   43.50
  -4 -13   7   29.50   13.40
  -4 -13   7   59.59   37.00
  -3 -13   7   81.89   33.80
  -3 -13   7   76.89   13.20
  -2 -13   7  260.07   26.20
  -2 -13   7  264.97   24.40
  -1 -13   7  151.38   18.40
  -1 -13   7  123.89   19.70
   0 -13   7  440.16   46.70
   0 -13   7  512.25   37.00
  -1  13  -7   96.49   14.70
  -1  13  -7  157.98   35.10
   1 -13   7   95.29   17.40
  -2  13  -7  300.97   29.30
  -2  13  -7  322.27   44.40
   2 -13   7  342.37   32.50
  -3  13  -7   40.20   28.00
  -3  13  -7   76.39   14.50
   3 -13   7   55.69   19.00
  -4  13  -7   46.50   28.00
  -4  13  -7   38.80   14.30
   4 -13   7   32.20   21.40
  -5  13  -7   75.19   31.40
   5 -13   7   46.50   27.90
  -6  13  -7   10.40   30.20
   6 -13   7   45.70   29.20
  -7  13  -7  109.89   39.80
   7 -13   7   59.89   34.00
  -8  13  -7   81.09   38.50
   8 -13   7   60.79   38.50
  -8 -12   7   60.99   47.40
   7  12  -7  -13.40   27.20
  -7 -12   7  -18.90   42.10
  -7 -12   7   30.60   20.70
   6  12  -7   77.99   27.70
  -6 -12   7  134.19   44.20
  -6 -12   7   78.79   20.70
   5  12  -7  -13.50   19.60
  -5 -12   7   14.70   35.60
  -5 -12   7   -3.20   13.70
   4  12  -7  129.69   21.10
  -4 -12   7  156.08   39.30
  -4 -12   7  146.99   19.20
  -3 -12   7  135.09   17.60
  -3 -12   7  142.29   36.10
  -1 -12   7  477.35   59.29
   0  12  -7   25.90   25.00
   0 -12   7   24.20   19.40
   0 -12   7  -25.30   11.50
  -1  12  -7  117.39   30.10
  -1  12  -7  160.58   16.90
   1 -12   7  151.78   28.90
   1 -12   7  102.89   18.50
  -2  12  -7  183.18   21.10
  -2  12  -7  214.98   35.30
   2 -12   7  183.88   25.10
   2 -12   7  220.48   37.30
  -3  12  -7   13.40   11.90
   3 -12   7   33.30   18.10
  -4  12  -7   18.10   26.10
   4 -12   7    4.20   20.20
  -5  12  -7   43.20   28.90
  -5  12  -7   25.70   15.60
   5 -12   7   46.60   24.30
  -6  12  -7   14.80   31.50
   6 -12   7   85.39   29.80
  -7  12  -7   24.40   32.70
   7 -12   7   32.70   31.40
  -8  12  -7   31.60   36.50
   8 -12   7   44.80   36.90
  -9  12  -7   32.00   37.80
   9 -12   7  121.79   43.20
  -8 -11   7   34.20   45.50
   7  11  -7  126.59   32.20
  -7 -11   7  152.78   47.80
  -7 -11   7   68.19   22.10
   6  11  -7   -9.90   23.70
  -6 -11   7   51.99   37.30
  -6 -11   7   -6.00   15.80
   5  11  -7  301.67   34.10
  -5 -11   7  279.37   30.00
  -5 -11   7  395.16   54.99
   4  11  -7   18.50   16.30
  -4 -11   7  -20.70   26.20
  -4 -11   7   23.60   11.60
  -3 -11   7  251.87   22.50
  -2 -11   7  203.88   30.80
  -1 -11   7   -3.70   17.20
   0  11  -7   42.40   23.60
   0 -11   7   38.50    9.40
   0 -11   7   31.80   20.30
  -1  11  -7   54.49   22.90
  -1  11  -7   61.49   11.00
   1 -11   7   53.49   13.60
   1 -11   7   49.30   21.30
  -2  11  -7   38.00   11.10
  -2  11  -7   19.50   21.50
   2 -11   7   54.79   20.90
   2 -11   7   -5.90   14.10
  -3  11  -7  165.18   22.00
  -3  11  -7  164.78   32.30
   3 -11   7  226.68   32.50
   3 -11   7  159.28   26.20
  -4  11  -7   26.70   13.70
   4 -11   7   37.50   19.60
  -5  11  -7   58.59   18.50
  -5  11  -7   81.09   29.70
   5 -11   7   77.09   24.10
  -6  11  -7   73.79   32.20
   6 -11   7   95.29   31.00
  -7  11  -7   22.10   34.10
   7 -11   7  -22.30   29.40
  -8  11  -7   37.80   35.00
   8 -11   7   78.99   37.40
  -9  11  -7  118.29   45.80
   9 -11   7  129.69   46.10
   9  10  -7   24.10   37.30
  -9 -10   7   12.50   51.99
   8  10  -7  337.27   66.19
  -8 -10   7  361.66   63.29
   7  10  -7   -0.40   26.70
  -7 -10   7   68.09   19.10
  -7 -10   7   -2.50   38.50
   6  10  -7  567.44   51.59
  -6 -10   7  517.85   64.29
  -6 -10   7  488.45   44.80
   5  10  -7   34.50   19.50
  -5 -10   7   27.40   29.60
  -5 -10   7    4.00   13.70
   4  10  -7  119.39   19.90
  -4 -10   7  122.09   34.50
  -4 -10   7  136.99   17.10
   3  10  -7   92.99   14.10
  -3 -10   7   91.49   27.20
  -3 -10   7   90.99   11.60
  -2 -10   7   39.60   20.10
  -1 -10   7   57.99   25.80
   0  10  -7  160.88   30.70
   0 -10   7  142.39   27.40
  -1  10  -7   44.20   21.70
   1 -10   7   27.30   19.90
   1 -10   7   13.10   10.90
  -2  10  -7  441.66   46.70
  -2  10  -7  430.46   34.70
   2 -10   7  452.85   37.20
   2 -10   7  435.76   63.99
  -3  10  -7  167.38   32.70
  -3  10  -7  236.68   24.30
   3 -10   7  242.78   28.10
   3 -10   7  190.38   30.70
  -4  10  -7  -38.80   19.80
  -4  10  -7   29.80   13.70
   4 -10   7  -15.80   17.80
   4 -10   7   11.20   19.80
  -5  10  -7  311.47   33.00
  -5  10  -7  279.47   46.30
   5 -10   7  251.67   36.10
  -6  10  -7   18.60   28.20
   6 -10   7   26.30   26.40
  -7  10  -7  271.17   45.10
   7 -10   7  187.88   40.70
  -8  10  -7   35.60   36.50
   8 -10   7  -10.60   33.60
  -9  10  -7   65.39   39.90
   9 -10   7   90.69   40.70
   9   9  -7  133.19   42.10
  -9  -9   7   74.39   46.90
  -8  -9   7  -45.70   36.10
   7   9  -7  373.06   45.10
  -7  -9   7  328.27   36.70
  -7  -9   7  333.47   56.39
   6   9  -7   -4.20   23.00
  -6  -9   7   41.60   32.30
  -6  -9   7   12.30   16.10
   5   9  -7  271.97   32.40
  -5  -9   7  250.57   42.00
  -5  -9   7  241.28   25.60
   4   9  -7  371.86   34.80
  -4  -9   7  365.56   30.70
  -4  -9   7  459.55   50.19
   3   9  -7  146.29   16.90
  -3  -9   7  147.69   34.40
  -3  -9   7  149.79   14.70
  -1  -9   7   42.90   18.60
   0   9  -7  315.37   39.50
   0  -9   7  252.97   33.90
  -1   9  -7   19.90    7.80
  -1   9  -7   -4.00   17.10
   1  -9   7  -14.50   20.70
   1  -9   7    1.90   17.80
  -2   9  -7   54.49   11.70
  -2   9  -7   36.30   20.70
   2  -9   7   23.70   17.20
   2  -9   7   41.30   15.50
  -3   9  -7   79.39   24.70
  -3   9  -7  110.59   17.30
   3  -9   7   94.09   20.80
   3  -9   7  122.59   28.60
  -4   9  -7  216.38   24.20
  -4   9  -7  175.48   31.30
   4  -9   7  135.79   27.40
   4  -9   7  151.58   29.70
  -5   9  -7   32.40   15.90
  -5   9  -7   49.00   24.00
   5  -9   7   35.70   24.00
   5  -9   7   64.99   24.80
  -6   9  -7  337.17   46.70
   6  -9   7  360.46   48.80
  -7   9  -7   60.89   32.90
   7  -9   7   75.59   33.40
  -8   9  -7  185.38   43.80
   8  -9   7  132.79   40.50
  -9   9  -7   53.29   41.80
   9  -9   7  112.49   40.40
   9   8  -7    9.10   35.20
  -9  -8   7   75.39   44.60
  -8  -8   7  236.48   53.59
   7   8  -7   15.50   27.00
  -7  -8   7   43.20   18.20
  -7  -8   7   50.99   36.80
   6   8  -7  675.63   58.49
  -6  -8   7  667.13   71.39
  -6  -8   7  588.24   51.09
   5   8  -7  139.19   25.10
  -5  -8   7  147.79   19.60
  -5  -8   7  135.89   34.50
   4   8  -7  504.75   40.10
  -4  -8   7  458.65   36.30
  -4  -8   7  502.75   55.49
   3   8  -7  599.04   46.10
  -3  -8   7  639.84   44.20
  -3  -8   7  759.92   60.99
  -1  -8   7  233.78   29.60
   0   8  -7    4.40   19.30
   0  -8   7   36.60   17.40
  -1   8  -7  376.16   42.60
  -1   8  -7  404.86   30.60
   1  -8   7  414.46   41.10
   1  -8   7  453.35   33.60
  -2   8  -7   76.19   15.60
  -2   8  -7  154.88   24.60
   2  -8   7   35.50   18.30
   2  -8   7  118.49   22.80
  -3   8  -7   11.90   12.40
  -3   8  -7   18.20   18.40
   3  -8   7    9.90   20.20
   3  -8   7   29.10   16.70
  -4   8  -7  284.27   37.40
  -4   8  -7  289.97   30.90
   4  -8   7  312.37   35.60
  -5   8  -7  775.02   64.89
  -5   8  -7  846.82   71.59
   5  -8   7  973.90   71.39
   5  -8   7  832.52   70.29
  -6   8  -7   47.00   31.30
  -7   8  -7  591.54   66.09
   7  -8   7  637.64   65.09
  -8   8  -7   75.09   37.10
   8  -8   7  148.09   42.00
  -9   8  -7  124.99   42.30
   9  -8   7  125.59   42.60
 -10   8  -7  -13.50   39.40
  10  -8   7   14.50   41.60
   9   7  -7  162.08   43.60
  -9  -7   7  205.18   54.29
   8   7  -7  -93.69   34.00
  -8  -7   7  -47.50   35.80
   7   7  -7  168.48   34.40
  -7  -7   7  142.39   45.30
  -7  -7   7  186.58   27.40
   6   7  -7  266.87   34.30
  -6  -7   7  218.28   43.10
  -6  -7   7  210.88   26.60
   5   7  -7  108.89   23.70
  -5  -7   7   51.19   30.20
  -5  -7   7   96.69   17.50
   4   7  -7  892.81   64.19
  -4  -7   7  890.01   61.59
  -4  -7   7  878.81   75.69
   3   7  -7  398.76   34.80
  -3  -7   7  441.76   31.80
  -3  -7   7  494.25   48.20
  -2  -7   7  218.48   31.20
  -1  -7   7  697.43   55.29
   0  -7   7  213.98   27.60
  -1   7  -7  262.67   31.70
  -1   7  -7  286.17   23.20
   1  -7   7  266.47   31.70
   1  -7   7  276.77   25.70
  -2   7  -7   44.50   12.90
  -2   7  -7   34.10   18.20
   2  -7   7   71.09   16.30
   2  -7   7   64.49   18.00
  -3   7  -7  661.73   50.69
  -3   7  -7  672.03   55.69
   3  -7   7  654.33   54.69
   3  -7   7  655.13   54.09
  -4   7  -7  241.38   32.80
  -4   7  -7  231.78   28.10
   4  -7   7  267.27   32.20
   4  -7   7  246.48   31.00
  -5   7  -7  105.89   22.10
  -5   7  -7   87.49   27.80
   5  -7   7  127.69   28.70
   5  -7   7  114.09   27.30
  -6   7  -7  333.47   44.70
   6  -7   7  362.36   65.59
   6  -7   7  286.57   49.00
  -7   7  -7  137.19   36.20
   7  -7   7   89.89   35.50
  -8   7  -7   25.80   33.40
   8  -7   7   73.09   38.80
  -9   7  -7  -29.40   34.30
   9  -7   7   29.10   36.70
 -10   7  -7   93.99   47.00
  10  -7   7  -35.50   35.30
  10   6  -7   71.99   39.70
   9   6  -7    6.00   33.90
  -9  -6   7   54.69   42.90
   8   6  -7  108.69   37.70
  -8  -6   7  157.38   44.30
   7   6  -7  135.29   30.80
  -7  -6   7  112.99   39.90
  -7  -6   7  102.79   21.60
   6   6  -7  289.37   35.40
  -6  -6   7  219.18   43.80
  -6  -6   7  251.67   29.00
   5   6  -7  845.92   78.59
   5   6  -7  967.50   71.49
  -5  -6   7  970.90   68.29
  -5  -6   7 1067.19   82.89
   4   6  -7   37.20   16.90
  -4  -6   7   78.09   24.10
  -4  -6   7   78.59   14.10
   3   6  -7  656.93   51.69
  -3  -6   7  648.64   60.99
  -3  -6   7  726.83   47.60
  -2  -6   7  689.93   57.99
  -1  -6   7  848.52   63.49
   0   6  -7   63.69    9.50
   0  -6   7   74.39   16.70
   0  -6   7   85.79   10.90
  -1   6  -7  115.39   23.50
  -1   6  -7  138.09   15.70
   1  -6   7   78.99   21.50
   1  -6   7  142.59   18.90
  -2   6  -7 1442.96   95.39
  -2   6  -7 1436.66   98.39
   2  -6   7 1333.97   96.09
   2  -6   7 1375.36   97.39
  -3   6  -7  716.23   57.59
  -3   6  -7  739.33   60.39
   3  -6   7  775.32   59.59
   3  -6   7  822.02   60.49
  -4   6  -7  329.07   37.60
  -4   6  -7  306.87   34.10
   4  -6   7  393.36   40.30
   4  -6   7  311.37   36.30
  -5   6  -7  246.48   31.70
  -5   6  -7  259.87   35.20
   5  -6   7  250.77   35.50
   5  -6   7  204.68   49.40
  -6   6  -7  356.46   43.80
   6  -6   7  332.27   53.69
   6  -6   7  299.87   41.50
  -7   6  -7  484.35   56.89
   7  -6   7  491.45   58.99
  -8   6  -7  222.08   45.60
   8  -6   7  130.09   43.40
  -9   6  -7   -9.50   35.00
   9  -6   7   -8.60   38.40
 -10   6  -7   79.09   46.20
  10  -6   7    4.00   40.70
  10   5  -7   12.70   38.60
 -10  -5   7   53.59   45.80
   9   5  -7  124.89   40.20
  -9  -5   7  201.58   50.89
   8   5  -7   23.00   28.20
  -8  -5   7    3.20   36.10
   7   5  -7   68.99   26.40
  -7  -5   7   32.40   35.40
  -7  -5   7   31.40   17.00
   6   5  -7  602.14   52.39
  -6  -5   7  526.85   60.69
  -6  -5   7  539.25   46.60
   5   5  -7   35.90   16.00
   5   5  -7   17.10   22.40
  -5  -5   7   31.20   11.90
  -5  -5   7  -13.50   25.80
   4   5  -7  329.37   40.60
   4   5  -7  347.27   32.20
  -4  -5   7  347.07   41.80
  -4  -5   7  337.07   29.00
   3   5  -7 1047.50   73.89
  -3  -5   7 1139.79   83.09
   2   5  -7  647.64   43.30
  -2  -5   7  604.24   42.70
  -2  -5   7  655.43   53.19
   1   5  -7 1390.26   85.69
   1   5  -7 1237.98   86.39
   0   5  -7   37.50   11.20
   0  -5   7   67.69   11.50
   0  -5   7   52.49   14.30
  -1   5  -7  889.71   62.39
  -1   5  -7  749.53   59.09
   1  -5   7  936.01   62.99
   1  -5   7  788.92   61.59
  -2   5  -7  121.89   19.80
  -2   5  -7  141.29   21.50
   2  -5   7  116.39   21.30
   2  -5   7  107.49   19.10
  -3   5  -7  669.93   57.39
  -3   5  -7  809.72   59.09
   3  -5   7  775.82   61.19
   3  -5   7  753.62   57.89
  -4   5  -7   64.59   20.90
  -4   5  -7   23.10   16.20
   4  -5   7   18.90   17.80
   4  -5   7   45.40   22.70
  -5   5  -7 1131.49   90.59
  -5   5  -7 1255.97   92.19
   5  -5   7 1284.57   94.69
   5  -5   7 1238.38   91.49
  -6   5  -7   67.99   26.60
   6  -5   7   40.20   23.30
   6  -5   7   27.10   31.50
  -7   5  -7   61.29   34.60
   7  -5   7   -7.10   30.90
  -8   5  -7    3.80   34.20
   8  -5   7   13.20   31.10
  -9   5  -7    0.80   35.20
   9  -5   7   11.30   35.70
 -10   5  -7   -3.00   41.30
  10  -5   7  -26.80   37.90
  10   4  -7    7.60   34.70
 -10  -4   7  -15.40   40.90
   9   4  -7  -18.90   31.80
  -9  -4   7   -7.30   36.60
   8   4  -7    2.80   28.70
  -8  -4   7   26.00   35.90
   7   4  -7   43.90   26.40
  -7  -4   7   24.40   15.50
  -7  -4   7   80.69   36.30
   6   4  -7   49.60   21.00
  -6  -4   7   40.70   14.70
   5   4  -7  619.94   48.70
   5   4  -7  471.15   54.69
  -5  -4   7  576.34   58.89
  -5  -4   7  568.54   44.30
   3   4  -7  209.48   22.30
   3   4  -7  217.68   29.90
  -3  -4   7  201.98   29.60
  -3  -4   7  212.58   20.40
   2   4  -7 1706.03  115.39
  -2  -4   7 1881.21  121.59
  -2  -4   7 1734.33  114.79
   1   4  -7  114.49   14.00
   1   4  -7  108.69   11.40
  -1  -4   7   86.39   18.00
   0   4  -7 1883.61  122.09
   0  -4   7 1801.52  122.19
   0  -4   7 1888.81  124.19
  -1   4  -7  135.59   17.50
  -1   4  -7  117.49   18.40
   1  -4   7  100.79   17.90
   1  -4   7   97.49   17.60
  -2   4  -7 1363.26   92.29
  -2   4  -7 1375.76   93.19
   2  -4   7 1316.47   92.09
   2  -4   7 1323.07   94.19
  -3   4  -7    2.70   16.20
  -3   4  -7    2.10   15.70
   3  -4   7   44.60   20.60
   3  -4   7    8.10   15.10
  -4   4  -7 1148.39   81.19
  -4   4  -7 1122.29   82.79
   4  -4   7 1040.00   83.89
   4  -4   7 1107.79   81.09
  -5   4  -7   98.89   24.30
  -5   4  -7   61.79   21.60
   5  -4   7   58.09   22.10
   5  -4   7   16.60   26.40
  -6   4  -7  335.77   42.50
   6  -4   7  340.57   41.70
   6  -4   7  302.97   65.19
  -7   4  -7   17.30   33.50
   7  -4   7  -49.20   31.30
  -8   4  -7   29.70   34.80
   8  -4   7   -5.40   35.30
  -9   4  -7   32.40   40.90
   9  -4   7  -45.10   39.60
 -10   4  -7   65.49   49.30
  10  -4   7  -76.79   34.60
  10   3  -7  -36.60   32.90
 -10  -3   7  -38.40   40.70
   9   3  -7   17.40   34.00
  -9  -3   7   24.60   39.00
   8   3  -7  102.29   32.50
  -8  -3   7   83.09   39.70
   7   3  -7  109.89   29.10
  -7  -3   7  108.59   21.90
  -7  -3   7  124.79   40.40
   6   3  -7  185.68   27.60
  -6  -3   7  118.49   34.20
  -6  -3   7   94.89   22.50
   5   3  -7  114.99   28.60
   5   3  -7  171.48   24.00
  -5  -3   7  185.58   32.80
  -5  -3   7  165.48   20.30
   4   3  -7   70.59   24.00
   4   3  -7   92.19   17.80
  -4  -3   7  107.19   28.10
  -4  -3   7  102.19   15.00
   3   3  -7 2752.62  183.28
   3   3  -7 2713.23  178.88
  -3  -3   7 2702.73  178.18
  -3  -3   7 2807.42  184.28
   2   3  -7  219.68   27.20
   2   3  -7  254.27   22.10
  -2  -3   7  232.78   27.10
  -2  -3   7  260.87   27.70
   1   3  -7 1023.90   74.59
   1   3  -7 1129.59   74.79
  -1  -3   7 1144.39   76.89
   0   3  -7   75.69   15.30
   0  -3   7   80.99   13.10
   0  -3   7   91.79   16.50
  -1   3  -7 1495.75  103.19
  -1   3  -7 1583.04  101.59
   1  -3   7 1510.35  101.19
   1  -3   7 1489.75  103.39
  -2   3  -7   44.70   12.80
  -2   3  -7   80.59   17.30
   2  -3   7   35.50   21.90
   2  -3   7   62.69   18.50
  -3   3  -7 2336.87  148.89
  -3   3  -7 2261.17  151.18
   3  -3   7 2140.59  148.49
   3  -3   7 2193.28  152.38
  -4   3  -7  113.49   23.60
  -4   3  -7  103.79   23.40
   4  -3   7   91.89   22.40
   4  -3   7  150.48   28.70
  -5   3  -7  780.62   61.89
  -5   3  -7  657.93   61.39
   5  -3   7  752.92   61.19
   5  -3   7  753.22   66.19
  -6   3  -7  846.82   74.19
   6  -3   7  942.81   81.49
  -7   3  -7  -28.60   26.30
   7  -3   7    3.00   31.10
   7  -3   7    3.40   34.80
  -8   3  -7  195.18   41.80
   8  -3   7  143.49   43.10
  -9   3  -7    5.90   35.90
   9  -3   7   -0.90   33.80
 -10   3  -7   21.20   44.20
  10  -3   7  -26.20   37.70
  10   2  -7  -14.20   33.60
 -10  -2   7   12.00   45.90
   9   2  -7   14.90   33.60
  -9  -2   7  -17.60   37.30
   8   2  -7  164.08   34.90
  -8  -2   7  209.48   46.80
   7   2  -7   41.20   25.00
  -7  -2   7   64.39   24.90
  -7  -2   7  112.09   36.00
   6   2  -7   35.90   20.40
   6   2  -7    6.00   38.60
  -6  -2   7   15.70   26.10
  -6  -2   7   38.70   14.30
   5   2  -7   50.09   17.20
   5   2  -7    0.20   22.60
  -5  -2   7  -21.60   23.20
  -5  -2   7   21.00   11.70
   4   2  -7  793.02   66.79
   4   2  -7  849.91   61.89
  -4  -2   7  815.12   59.59
  -4  -2   7  878.31   68.49
   3   2  -7   31.10   20.00
   3   2  -7   80.89   14.90
  -3  -2   7   50.59   22.40
  -3  -2   7   73.49   12.40
   2   2  -7 2659.23  168.28
   2   2  -7 2488.35  165.38
  -2  -2   7 2413.16  164.88
  -2  -2   7 2615.24  168.68
   1   2  -7  276.57   24.40
   1   2  -7  292.57   27.30
   0   2  -7 2045.50  137.39
   0  -2   7 2066.89  134.99
   0  -2   7 2115.59  137.59
  -1   2  -7  131.99   19.00
  -1   2  -7  112.49   13.70
   1  -2   7  122.49   20.30
   1  -2   7  124.89   13.90
  -2   2  -7 1612.24  108.19
  -2   2  -7 1534.45  103.69
   2  -2   7 1552.34  104.09
   2  -2   7 1582.74  108.69
  -3   2  -7  163.18   24.70
  -3   2  -7  130.79   20.40
   3  -2   7   90.59   19.60
   3  -2   7  177.68   27.10
  -4   2  -7  853.51   68.59
  -4   2  -7  909.41   66.49
   4  -2   7  810.42   65.69
   4  -2   7  939.31   72.09
  -5   2  -7  102.39   25.10
  -5   2  -7  116.29   25.50
   5  -2   7  147.69   27.80
   5  -2   7  152.48   30.10
  -6   2  -7  141.39   32.10
   6  -2   7   79.89   37.60
   6  -2   7  194.58   41.90
  -7   2  -7  394.46   49.99
   7  -2   7  394.16   49.50
   7  -2   7  386.86   53.19
  -8   2  -7   24.40   33.80
   8  -2   7   22.00   35.80
  -9   2  -7    4.80   37.80
   9  -2   7  -13.10   33.90
 -10   2  -7  108.09   51.39
  10  -2   7   56.19   42.30
  10   1  -7  -33.30   32.70
 -10  -1   7   55.19   47.00
   9   1  -7   19.90   31.40
  -9  -1   7   73.99   44.60
   8   1  -7   22.10   27.30
  -8  -1   7   46.80   35.90
  -7  -1   7   -9.10   28.70
   6   1  -7  168.38   28.60
   6   1  -7  147.79   34.50
  -6  -1   7  188.28   35.80
  -6  -1   7  204.88   24.50
   5   1  -7  195.48   52.59
   5   1  -7  261.47   29.50
  -5  -1   7  194.88   24.40
  -5  -1   7  224.68   35.50
   4   1  -7   45.50   22.70
   4   1  -7  101.49   18.50
  -4  -1   7   84.39   14.80
  -4  -1   7   69.59   24.10
   3   1  -7 2300.07  154.48
   3   1  -7 2271.57  151.28
  -3  -1   7 2210.08  150.38
  -3  -1   7 2375.06  154.78
   2   1  -7  184.18   20.40
   2   1  -7  155.08   22.40
  -2  -1   7  188.88   24.20
  -2  -1   7  185.88   19.40
   1   1  -7  996.30   64.79
   1   1  -7  930.61   65.09
   1   1  -7  876.01   66.99
  -1  -1   7  952.90   65.49
   0   1  -7   64.89   17.20
   0  -1   7   98.79   10.90
   0  -1   7   77.29    9.90
   0  -1   7   95.59   18.40
   1  -1   7  375.96   36.80
  -2   1  -7   41.20   10.00
  -2   1  -7   46.40   17.90
   2  -1   7   55.29   19.90
   2  -1   7   27.20   10.20
  -3   1  -7 1529.75  108.89
  -3   1  -7 1567.44  104.09
   3  -1   7 1633.14  110.29
   3  -1   7 1448.76  105.59
  -4   1  -7  163.98   27.00
  -4   1  -7  144.39   22.50
   4  -1   7  112.89   26.70
   4  -1   7  113.39   23.20
  -5   1  -7  219.08   32.00
  -5   1  -7  184.58   30.00
   5  -1   7  194.28   33.90
   5  -1   7  188.58   31.30
  -6   1  -7  358.46   44.00
   6  -1   7  292.57   42.50
   6  -1   7  406.46   48.40
  -7   1  -7  161.08   35.30
   7  -1   7   55.59   33.40
   7  -1   7   99.39   35.60
  -8   1  -7   37.30   37.00
   8  -1   7    8.30   34.80
  -9   1  -7  248.88   52.79
   9  -1   7   98.09   45.20
 -10   1  -7   61.59   48.90
  10  -1   7   29.50   42.30
  10   0  -7   23.70   35.50
 -10   0   7  -15.60   38.10
   9   0  -7   79.99   35.20
  -9   0   7  171.18   48.50
   8   0  -7   51.99   28.30
  -8   0   7   52.79   37.60
   7   0  -7  162.18   31.30
  -7   0   7   89.69   36.80
   6   0  -7    2.10   18.30
   6   0  -7   17.80   24.40
  -6   0   7  -36.20   23.30
  -6   0   7    0.20   13.60
   5   0  -7  258.07   30.60
  -5   0   7  224.58   27.70
  -5   0   7  279.67   37.50
   4   0  -7  203.78   28.50
   4   0  -7  157.18   23.10
  -4   0   7  171.78   29.50
  -4   0   7  127.59   19.70
   3   0  -7  212.48   28.90
   3   0  -7  269.37   26.90
  -3   0   7  233.28   24.60
  -3   0   7  196.38   29.60
   2   0  -7  455.05   38.30
   2   0  -7  472.15   40.30
  -2   0   7  502.95   37.90
  -2   0   7  495.95   40.60
   1   0  -7  241.18   26.90
   1   0  -7  219.68   22.90
   1   0  -7  234.38   22.50
  -1   0   7  209.78   22.10
   0   0  -7  718.53   56.29
  -1   0  -7   11.20   17.00
   1   0   7   57.99   17.90
  -2   0  -7  414.86   29.30
  -2   0  -7  335.87   39.10
   2   0   7  361.06   29.60
   2   0   7  428.16   40.80
  -3   0  -7  375.66   35.00
  -3   0  -7  386.76   41.70
   3   0   7  427.66   44.00
   3   0   7  372.96   47.60
  -4   0  -7  -35.00   17.60
  -4   0  -7   -0.70   23.30
   4   0   7    4.90   17.60
   4   0   7    0.20   20.30
  -5   0  -7  254.97   36.30
  -5   0  -7  309.97   35.80
   5   0   7  257.47   34.60
   5   0   7  305.37   42.50
  -6   0  -7  -10.70   30.30
   6   0   7   -4.70   26.70
   6   0   7   86.79   31.20
  -7   0  -7   82.99   36.50
   7   0   7  145.19   39.70
   7   0   7   98.29   35.10
  -8   0  -7  260.37   50.29
   8   0   7  273.07   51.59
  -9   0  -7  101.59   46.40
   9   0   7  -20.40   39.60
 -10   0  -7  254.17   60.49
  10   0   7   88.79   51.19
  10  -1  -7  -25.60   35.00
 -10   1   7  -17.90   40.70
   9  -1  -7   26.80   33.20
  -9   1   7  -30.00   36.50
   8  -1  -7   67.89   31.00
  -8   1   7  118.29   39.80
   7  -1  -7  -21.10   23.20
  -7   1   7   43.90   33.10
   6  -1  -7  433.16   49.50
   6  -1  -7  422.36   47.30
  -6   1   7  506.85   54.89
  -6   1   7  469.15   41.70
   5  -1  -7   86.09   23.10
   5  -1  -7   66.49   43.70
  -5   1   7   65.09   16.30
  -5   1   7   56.79   25.70
   4  -1  -7  354.56   38.80
   4  -1  -7  331.87   34.90
  -4   1   7  384.36   40.20
  -4   1   7  289.97   31.10
   3  -1  -7  245.48   28.20
   3  -1  -7  303.17   31.70
  -3   1   7  240.28   25.90
  -3   1   7  232.58   30.60
   2  -1  -7  183.28   22.20
   2  -1  -7  188.58   21.90
  -2   1   7  165.38   21.10
  -2   1   7  158.48   22.20
   1  -1  -7  224.58   22.40
   1  -1  -7  197.88   26.70
   1  -1  -7  251.27   23.80
  -1   1   7  180.38   21.20
   0  -1  -7  154.88   24.30
  -1  -1  -7   41.30   20.00
   1   1   7   69.99   19.80
  -2  -1  -7  -11.00   17.50
  -2  -1  -7   32.60    9.10
   2   1   7   21.20   18.80
  -3  -1  -7    1.20   14.80
  -3  -1  -7   16.40   20.90
   3   1   7    2.70   20.90
   3   1   7   -8.00   23.60
  -4  -1  -7  218.88   27.40
  -4  -1  -7  206.98   30.80
   4   1   7  221.28   34.00
   4   1   7  216.48   26.90
  -5  -1  -7   90.29   31.10
  -5  -1  -7   26.70   24.90
   5   1   7   79.19   24.90
   5   1   7  139.09   31.60
  -6  -1  -7    0.00   27.40
   6   1   7   -1.90   26.60
   6   1   7   89.39   29.80
  -7  -1  -7  372.06   50.49
   7   1   7  335.17   49.80
   7   1   7  313.67   50.79
  -8  -1  -7  -61.09   34.20
   8   1   7  -50.09   35.00
  -9  -1  -7  210.58   53.09
   9   1   7  313.17   55.29
  10  -2  -7  176.08   46.00
 -10   2   7  179.08   54.29
   9  -2  -7   11.00   33.90
  -9   2   7   34.90   43.40
   8  -2  -7   37.40   30.10
  -8   2   7    2.10   36.30
   7  -2  -7  319.97   44.20
  -7   2   7  380.96   52.99
   6  -2  -7   32.80   28.10
   6  -2  -7   26.50   38.40
  -6   2   7   19.00   25.50
   5  -2  -7  262.57   34.10
   5  -2  -7  279.27   45.30
  -5   2   7  222.58   28.60
  -5   2   7  284.77   38.90
   4  -2  -7   -1.70   16.80
   4  -2  -7   -7.40   15.20
  -4   2   7    1.50   11.50
  -4   2   7  -17.40   19.20
   3  -2  -7  511.15   49.20
   3  -2  -7  535.85   47.40
  -3   2   7  614.94   49.30
  -3   2   7  609.24   45.50
   2  -2  -7    9.70   14.20
   2  -2  -7   20.20   13.30
  -2   2   7    6.10   12.00
  -2   2   7   20.30   13.50
   1  -2  -7    6.60   17.90
   1  -2  -7   -6.20   10.40
   1  -2  -7    3.50   12.60
  -1   2   7    9.80   10.50
   0  -2  -7   61.29   19.10
  -1  -2  -7  498.95   44.70
   1   2   7  443.36   45.20
  -2  -2  -7  106.29   14.40
  -2  -2  -7   93.69   23.70
   2   2   7  107.99   25.10
  -3  -2  -7   48.30   15.20
  -3  -2  -7   72.29   27.10
   3   2   7  110.79   25.00
  -4  -2  -7  116.09   24.10
  -4  -2  -7  131.39   24.60
   4   2   7   96.09   22.40
   4   2   7  146.49   29.90
  -5  -2  -7   17.30   21.20
   5   2   7    0.90   20.40
  -6  -2  -7  158.38   34.90
   6   2   7   91.49   32.20
   6   2   7  219.08   40.70
  -7  -2  -7   39.80   31.10
   7   2   7  -20.10   29.80
   7   2   7   15.10   34.50
  -8  -2  -7  314.97   55.09
   8   2   7  382.56   56.39
  -9  -2  -7   -0.10   45.90
   9   2   7   30.40   40.70
  10  -3  -7   31.80   37.60
 -10   3   7    6.90   45.00
   9  -3  -7   62.99   37.00
  -9   3   7  141.59   47.90
   8  -3  -7   68.29   33.80
  -8   3   7  132.49   41.20
   7  -3  -7  171.48   36.40
  -7   3   7  211.98   42.60
   6  -3  -7  971.70   81.99
  -6   3   7 1143.69   89.79
   5  -3  -7   27.60   22.50
   5  -3  -7   87.09   23.60
  -5   3   7   51.59   25.50
  -5   3   7   45.10   16.90
   4  -3  -7  477.55   45.50
   4  -3  -7  491.25   45.60
  -4   3   7  455.45   41.80
  -4   3   7  515.05   46.90
   3  -3  -7  109.99   21.70
   3  -3  -7  136.39   23.10
  -3   3   7  144.39   21.20
  -3   3   7  112.59   21.80
   2  -3  -7  159.18   21.90
   2  -3  -7  170.48   23.00
  -2   3   7  148.49   21.90
  -2   3   7  147.59   21.20
   1  -3  -7  111.49   23.20
   1  -3  -7  116.09   18.50
   1  -3  -7   81.19   15.40
  -1   3   7   76.89   16.60
   0  -3  -7   13.30    8.30
   0  -3  -7   31.10   19.00
   0  -3  -7    8.30   12.70
   0   3   7   13.00    8.20
  -1  -3  -7  238.78   20.20
  -1  -3  -7  221.28   22.20
  -1  -3  -7  325.37   34.40
   1   3   7  246.38   32.70
  -2  -3  -7   12.50   10.40
  -2  -3  -7   29.70   12.10
  -2  -3  -7   11.70   19.00
   2   3   7   10.50   19.60
  -3  -3  -7   28.00   20.90
  -3  -3  -7  -40.70   13.70
   3   3   7   32.20   21.70
  -4  -3  -7   21.50   18.30
  -4  -3  -7   17.10   21.00
   4   3   7   19.50   24.50
  -5  -3  -7  153.98   28.90
   5   3   7  164.78   28.80
   5   3   7  184.78   37.80
  -6  -3  -7  348.67   43.60
   6   3   7  225.18   47.30
   6   3   7  246.58   45.50
  -7  -3  -7  512.95   57.59
   7   3   7  322.27   53.49
   7   3   7  354.16   52.79
  -8  -3  -7   99.89   44.20
   8   3   7   -7.90   36.80
  -9  -3  -7  176.78   53.39
   9   3   7  201.58   50.89
   9  -4  -7  -22.00   34.00
  -9   4   7  -18.70   37.30
   8  -4  -7  293.77   46.60
  -8   4   7  272.27   48.10
   7  -4  -7   54.19   29.20
  -7   4   7   33.40   32.90
   6  -4  -7   -7.00   23.20
   5  -4  -7  -33.90   29.70
   5  -4  -7   18.40   21.60
  -5   4   7   61.29   25.50
   4  -4  -7  -39.50   17.70
   4  -4  -7   -6.80   16.90
  -4   4   7   -8.30   17.80
  -4   4   7    0.50   12.80
   3  -4  -7   22.70   17.60
   3  -4  -7   45.50   17.40
  -3   4   7    2.00   13.50
  -3   4   7   32.90   18.00
   2  -4  -7   92.59   19.80
   2  -4  -7   97.19   18.90
  -2   4   7   86.39   18.40
  -2   4   7  121.99   20.40
   1  -4  -7  323.27   34.90
   1  -4  -7  317.77   35.60
   1  -4  -7  392.46   41.30
  -1   4   7  381.56   31.50
   0  -4  -7  349.57   27.30
   0  -4  -7  297.27   32.80
   0  -4  -7  341.57   38.90
   0   4   7  305.27   28.10
  -1  -4  -7   13.60   19.90
  -1  -4  -7  -10.90    9.00
   1   4   7   10.60   20.20
  -2  -4  -7  138.49   18.00
  -2  -4  -7  151.28   28.70
   2   4   7  151.28   28.80
  -3  -4  -7   47.20   18.30
  -3  -4  -7   48.60   23.90
   3   4   7   87.59   27.90
  -4  -4  -7   37.20   20.30
   4   4   7   17.40   25.50
  -5  -4  -7  158.08   28.80
   5   4   7  104.99   32.00
  -6  -4  -7   75.59   29.50
   6   4   7   39.60   36.70
  -7  -4  -7  107.99   37.90
   7   4   7  125.09   51.99
   7   4   7    2.00   38.30
  -8  -4  -7  148.09   46.60
   8   4   7  100.39   43.60
  -9  -4  -7    8.80   45.80
   9   4   7    7.40   41.80
   9  -5  -7   95.39   39.40
  -9   5   7   38.90   41.60
   8  -5  -7   65.09   34.80
  -8   5   7   20.50   35.70
   7  -5  -7   73.19   31.20
  -7   5   7   -8.40   30.20
   6  -5  -7  167.38   34.70
  -6   5   7   99.79   34.90
   5  -5  -7   29.10   22.30
   5  -5  -7   47.50   24.50
  -5   5   7   48.70   27.50
   4  -5  -7   -7.50   16.80
   4  -5  -7   -4.80   20.50
  -4   5   7   10.80   21.20
  -4   5   7   -1.30   17.50
   3  -5  -7  242.98   30.40
   3  -5  -7  164.48   28.90
  -3   5   7  220.08   31.00
  -3   5   7  194.98   27.30
   2  -5  -7   24.90   16.40
   2  -5  -7   10.10   14.10
  -2   5   7   37.40   15.60
   1  -5  -7   41.30   20.50
   1  -5  -7   -4.80   10.30
   1  -5  -7    2.20   14.40
  -1   5   7   13.40   13.30
   0  -5  -7  -15.30   14.00
   0  -5  -7   20.10   22.60
   0   5   7   24.40   12.10
  -1  -5  -7   -0.40   19.90
  -1  -5  -7    5.10   10.80
  -2  -5  -7  186.48   21.70
  -2  -5  -7  173.88   31.80
  -2  -5  -7  232.08   25.80
   2   5   7  144.19   31.00
  -3  -5  -7   61.99   20.70
  -3  -5  -7   58.59   24.80
   3   5   7   48.90   25.90
  -4  -5  -7  178.18   29.90
   4   5   7  221.58   39.30
  -5  -5  -7   -6.50   23.70
   5   5   7    3.10   29.30
  -6  -5  -7   61.99   32.60
   6   5   7   33.60   36.80
  -7  -5  -7   10.40   43.90
   7   5   7   33.00   39.10
  -8  -5  -7  104.19   43.30
   8   5   7   17.50   39.90
  -9  -5  -7   96.89   51.19
   9  -6  -7   89.89   37.90
  -9   6   7  195.78   48.30
   8  -6  -7   -3.40   30.80
  -8   6   7   90.99   37.70
   7  -6  -7  256.97   44.10
  -7   6   7  268.67   48.00
   6  -6  -7   -7.40   24.50
  -6   6   7    5.60   28.00
   5  -6  -7  190.38   34.70
   5  -6  -7  179.38   32.20
  -5   6   7  264.47   39.60
   4  -6  -7   -0.40   21.20
   4  -6  -7    6.40   20.20
  -4   6   7   12.60   22.60
   3  -6  -7  -10.70   19.60
   3  -6  -7   16.90   17.90
  -3   6   7    5.90   18.90
  -3   6   7   -1.90   15.60
   2  -6  -7  -12.30   17.60
   2  -6  -7  -30.50   14.10
  -2   6   7   16.70   16.40
   1  -6  -7   -8.40   17.70
   1  -6  -7   10.00   12.50
   1  -6  -7  -18.90   20.60
  -1   6   7   14.90   15.80
   0  -6  -7  375.36   35.20
   0  -6  -7  459.05   40.60
   0  -6  -7  440.66   46.10
   0   6   7  405.46   37.40
  -1  -6  -7  611.84   46.80
  -1  -6  -7  601.14   57.39
  -2  -6  -7  109.69   29.90
  -2  -6  -7   96.29   19.00
  -2  -6  -7  129.09   23.00
   2   6   7  158.48   31.20
  -3  -6  -7  256.17   34.10
  -3  -6  -7  326.17   34.20
  -4  -6  -7   93.49   27.50
   4   6   7  117.89   34.70
  -5  -6  -7  243.98   38.20
   5   6   7  303.77   49.20
  -6  -6  -7   66.49   32.40
   6   6   7   31.20   35.70
  -7  -6  -7   55.19   38.00
   7   6   7   68.29   40.30
  -8  -6  -7    7.10   38.60
   8   6   7   -9.40   40.30
   9  -7  -7  203.78   47.30
  -9   7   7  215.58   51.29
   8  -7  -7  246.28   45.80
  -8   7   7  236.48   48.20
   7  -7  -7  102.29   34.10
  -7   7   7   60.39   37.60
   6  -7  -7  313.17   43.90
  -6   7   7  257.97   42.30
   5  -7  -7   18.60   33.90
   5  -7  -7   51.39   26.10
  -5   7   7   23.70   27.60
   4  -7  -7  100.79   26.70
   4  -7  -7   96.09   25.60
  -4   7   7  140.09   29.80
   3  -7  -7   65.69   23.90
   3  -7  -7   35.00   20.40
  -3   7   7   47.40   23.20
   2  -7  -7   59.29   22.90
   2  -7  -7   72.89   19.90
  -2   7   7   88.29   22.20
   1  -7  -7   48.30   15.60
   1  -7  -7   50.49   18.30
   1  -7  -7   23.90   24.70
  -1   7   7   43.00   17.90
   0  -7  -7  221.88   28.30
   0  -7  -7  186.08   33.20
   0  -7  -7  174.48   22.80
  -1  -7  -7  248.68   28.10
  -1  -7  -7  316.97   34.40
  -2  -7  -7  582.04   50.99
  -2  -7  -7  533.55   46.50
   2   7   7  542.45   76.39
  -3  -7  -7   11.70   18.30
  -3  -7  -7  -19.20   22.90
   3   7   7   18.30   27.90
  -4  -7  -7  125.69   31.80
  -4  -7  -7  133.29   27.80
   4   7   7  143.39   37.60
  -5  -7  -7    9.70   29.90
   5   7   7   57.09   37.20
  -6  -7  -7    3.20   30.50
   6   7   7  -18.40   36.80
  -7  -7  -7   72.19   41.00
   7   7   7  112.29   42.10
  -8  -7  -7   62.69   41.40
   8   7   7   -7.40   39.70
   8  -8  -7  144.39   40.70
  -8   8   7  157.98   45.50
   7  -8  -7  402.06   53.99
  -7   8   7  347.87   54.09
   6  -8  -7   63.29   30.00
  -6   8   7  129.89   35.10
   5  -8  -7   76.59   28.00
  -5   8   7   70.89   46.70
   4  -8  -7  239.58   36.20
   4  -8  -7  213.68   33.90
  -4   8   7  276.37   38.70
   3  -8  -7  144.29   31.30
   3  -8  -7  211.78   32.10
  -3   8   7  202.48   34.30
   2  -8  -7  102.49   26.90
   2  -8  -7  126.69   23.40
  -2   8   7  113.69   25.70
   1  -8  -7  107.59   23.80
   1  -8  -7   62.29   18.50
  -1   8   7   39.20   22.00
   0  -8  -7  200.78   28.00
   0  -8  -7  326.47   35.70
  -1  -8  -7  111.49   23.90
  -1  -8  -7   77.09   19.90
  -2  -8  -7  103.39   21.20
  -2  -8  -7  115.39   28.20
  -3  -8  -7  305.37   41.50
  -3  -8  -7  223.28   32.80
   3   8   7  228.48   41.00
  -4  -8  -7  103.29   34.10
  -4  -8  -7   71.49   25.70
   4   8   7  102.49   35.70
  -5  -8  -7    0.80   30.50
   5   8   7   46.40   34.60
  -6  -8  -7   39.50   37.20
   6   8   7   46.50   39.60
  -7  -8  -7   27.70   37.40
   7   8   7   29.70   40.40
   8  -9  -7  120.79   39.60
  -8   9   7  191.28   46.40
   7  -9  -7  168.98   39.50
  -7   9   7  174.08   42.90
   6  -9  -7  133.79   34.80
  -6   9   7  149.09   38.30
   5  -9  -7   14.00   25.50
  -5   9   7   14.80   29.00
   4  -9  -7  141.09   30.60
   4  -9  -7  119.09   30.70
  -4   9   7  101.59   32.60
   3  -9  -7  419.26   44.80
   3  -9  -7  264.37   38.00
  -3   9   7  369.96   43.30
   2  -9  -7   26.80   19.00
   2  -9  -7   41.20   21.90
  -2   9   7   75.29   26.30
   1  -9  -7  474.25   49.20
   1  -9  -7  436.36   46.10
  -1   9   7  625.64   51.89
   0  -9  -7  180.98   27.80
   0  -9  -7  231.18   31.90
  -1  -9  -7  348.97   37.70
  -1  -9  -7  223.18   30.60
  -2  -9  -7  200.18   34.80
  -2  -9  -7  126.19   25.30
  -3  -9  -7   60.19   32.40
  -3  -9  -7   32.60   23.10
   3   9   7   84.59   33.00
  -4  -9  -7  -33.40   27.10
  -4  -9  -7  -30.30   31.40
   4   9   7  -17.10   29.10
  -5  -9  -7  -15.40   32.20
  -5  -9  -7   14.80   26.60
   5   9   7  -45.40   31.00
  -6  -9  -7   -3.20   35.40
   6   9   7  129.99   41.90
  -7  -9  -7    6.00   37.10
   7   9   7   47.10   44.80
   7 -10  -7   46.40   34.20
  -7  10   7   32.70   35.40
   6 -10  -7  472.65   56.99
  -6  10   7  463.25   59.59
   5 -10  -7   19.60   26.00
  -5  10   7  -47.70   27.90
   4 -10  -7  722.13   67.69
  -4  10   7  846.62  101.19
   3 -10  -7   70.39   26.90
   3 -10  -7   -0.80   20.90
  -3  10   7   23.70   28.00
   2 -10  -7  362.06   46.70
   2 -10  -7  412.26   48.10
  -2  10   7  560.54   52.29
   1 -10  -7   65.09   24.60
   1 -10  -7   28.70   21.30
  -1  10   7  105.19   28.00
   0 -10  -7  403.86   42.80
   0 -10  -7  281.37   36.50
  -1 -10  -7  104.29   28.90
  -1 -10  -7   95.79   23.30
  -2 -10  -7  172.78   32.00
  -2 -10  -7   97.29   26.20
  -2 -10  -7  175.28   36.00
  -3 -10  -7   67.39   25.70
  -3 -10  -7   67.89   33.40
  -4 -10  -7    9.70   25.50
  -4 -10  -7   44.20   35.90
   4  10   7   55.39   35.20
  -5 -10  -7   -2.40   33.20
  -5 -10  -7   16.40   35.70
   5  10   7    0.10   34.00
  -6 -10  -7   49.30   40.00
   6  10   7   42.10   39.70
   7 -11  -7   84.59   38.30
  -7  11   7   97.29   42.50
   6 -11  -7   44.00   31.20
  -6  11   7  -25.10   31.60
   5 -11  -7  340.97   49.10
  -5  11   7  375.96   53.29
   4 -11  -7    3.80   25.50
  -4  11   7   -6.70   30.10
   3 -11  -7  582.44   57.29
  -3  11   7  523.65   59.19
   2 -11  -7   10.70   20.00
   2 -11  -7   59.89   27.30
  -2  11   7   28.80   26.70
   1 -11  -7  567.24   57.09
   1 -11  -7  486.65   52.49
  -1  11   7  626.94   58.49
   0 -11  -7   95.29   36.90
   0 -11  -7   91.89   30.30
  -1 -11  -7   80.69   26.30
  -1 -11  -7  223.08   35.50
  -2 -11  -7  138.89   29.80
  -2 -11  -7  160.58   37.40
  -3 -11  -7    7.00   34.70
  -3 -11  -7   38.30   24.60
  -4 -11  -7   23.90   29.90
  -4 -11  -7   24.40   38.10
   4  11   7  -27.10   33.20
  -5 -11  -7    9.90   40.10
   5  11   7  -52.99   35.70
  -6 -11  -7  -10.10   36.50
   6  11   7   20.20   40.10
   6 -12  -7  541.65   61.89
  -6  12   7  451.95   62.99
   5 -12  -7   35.50   29.50
  -5  12   7   19.20   34.60
   4 -12  -7  385.46   49.90
  -4  12   7  392.76   51.99
   3 -12  -7   62.79   30.40
  -3  12   7   62.49   31.70
   2 -12  -7  269.07   41.70
  -2  12   7  296.97   44.20
   1 -12  -7   43.00   29.00
   1 -12  -7   23.10   21.30
  -1  12   7   61.29   29.60
   0 -12  -7  124.29   32.40
   0 -12  -7   68.49   24.30
  -1 -12  -7  145.89   29.00
  -1 -12  -7  194.08   34.70
  -2 -12  -7   81.69   29.40
  -2 -12  -7   41.20   25.20
  -3 -12  -7  114.19   32.40
  -3 -12  -7   73.49   28.60
  -3 -12  -7  109.69   41.90
  -4 -12  -7   45.40   46.30
  -5 -12  -7   34.40   45.80
   5  12   7   62.79   40.10
   5 -13  -7  150.18   38.00
  -5  13   7  135.49   42.60
   4 -13  -7  -23.70   23.10
  -4  13   7  -19.70   30.30
   3 -13  -7  319.87   44.80
  -3  13   7  177.28   42.30
   2 -13  -7    5.30   28.60
  -2  13   7   67.49   30.80
   1 -13  -7  268.37   42.40
  -1  13   7  306.97   61.59
   0 -13  -7   20.30   29.60
   0 -13  -7    8.70   27.00
  -1 -13  -7   50.59   27.40
  -1 -13  -7  113.19   32.20
  -2 -13  -7  129.49   34.10
  -2 -13  -7   16.00   59.19
  -3 -13  -7   10.80   41.10
  -3 -13  -7    1.00   32.00
  -4 -13  -7   -2.40   43.30
   4 -14  -7    3.10   28.80
  -4  14   7   19.10   32.60
   3 -14  -7   36.70   29.90
  -3  14   7  -35.00   32.70
   2 -14  -7   80.89   31.80
  -2  14   7   66.59   34.10
   1 -14  -7    5.80   27.00
   0 -14  -7   78.69   32.80
  -1 -14  -7  109.69   35.20
  -2 -14  -7  -39.30   41.50
  -2 -14  -7  103.49   35.20
   2 -15  -7  -13.20   29.60
  -2  15   7  -30.80   32.60
   1 -15  -7   86.39   33.50
   0 -15  -7  141.69   38.50
  -1 -20   8   66.49   19.00
  -1 -20   8   78.99   26.60
   0 -20   8   21.70   26.60
   0 -20   8   15.90   17.80
   1 -20   8    0.90   17.80
  -2  20  -8  484.85   67.39
   2 -20   8  456.15   45.50
   2 -20   8  290.97   47.90
  -3  20  -8   21.10   60.19
   3 -20   8   11.00   23.20
  -3 -19   8   63.09   21.00
  -3 -19   8   69.39   16.20
  -2 -19   8   22.20   14.00
  -2 -19   8   15.50   19.70
  -1 -19   8   35.80   22.10
  -1 -19   8   45.30   15.80
   0 -19   8   72.29   19.00
   0 -19   8   21.80   24.80
   1 -19   8  313.57   33.10
   1 -19   8  178.68   36.70
  -2  19  -8  -16.70   35.30
   2 -19   8    9.70   21.00
  -3  19  -8  192.78   45.40
   3 -19   8  167.98   32.50
  -4  19  -8   26.50   37.20
   4 -19   8   -5.30   23.60
  -4 -18   8   -1.60   47.90
  -4 -18   8   22.00   16.40
  -4 -18   8    4.20   13.10
  -3 -18   8   28.30   16.90
  -3 -18   8   61.19   13.90
  -2 -18   8   -6.40   11.40
  -2 -18   8   20.10   17.40
  -1 -18   8   50.09   14.90
  -1 -18   8   28.70   19.40
   0 -18   8  223.08   26.00
   0 -18   8  191.28   31.80
  -1  18  -8  165.58   44.80
   1 -18   8   76.79   20.80
   1 -18   8   65.79   28.10
  -2  18  -8  132.19   41.10
   2 -18   8  200.98   29.50
  -3  18  -8    9.10   15.70
  -3  18  -8  -33.20   31.90
   3 -18   8    7.70   20.50
  -4  18  -8  302.67   54.69
   4 -18   8  266.17   39.30
  -5  18  -8    2.80   33.90
   5 -18   8    2.60   27.80
  -5 -17   8  -20.90   45.70
  -5 -17   8   31.20   17.90
  -5 -17   8   -9.50   15.80
  -4 -17   8  130.79   18.90
  -4 -17   8  128.29   21.50
  -4 -17   8  232.78   58.19
  -3 -17   8   18.40   15.70
  -3 -17   8    0.60   10.90
  -2 -17   8  147.79   17.40
  -2 -17   8  103.19   22.60
  -1 -17   8   51.39   17.40
  -1 -17   8   44.50   13.30
   0 -17   8  239.78   32.50
   0 -17   8  286.37   28.50
  -1  17  -8  226.78   46.60
   1 -17   8  240.48   27.60
   1 -17   8  163.78   30.10
  -2  17  -8   36.90   33.90
   2 -17   8   21.20   18.10
  -3  17  -8   74.19   18.40
  -3  17  -8  141.29   37.90
   3 -17   8   92.49   23.90
  -4  17  -8   -6.80   32.40
  -5  17  -8   93.59   38.50
   5 -17   8  123.09   34.70
  -6  17  -8   63.39   38.30
   6 -17   8   73.39   31.50
  -6 -16   8   38.40   19.90
  -6 -16   8   96.99   52.79
  -5 -16   8   37.30   16.50
  -5 -16   8   75.99   47.70
  -4 -16   8    6.70   11.80
  -4 -16   8   26.00   15.20
  -4 -16   8   28.00   41.30
  -1 -16   8  358.06   30.00
  -1 -16   8  334.17   39.50
   0 -16   8   35.50   20.40
   0 -16   8   87.19   15.60
  -1  16  -8  -24.10   29.30
   1 -16   8   14.20   15.10
  -2  16  -8  286.07   46.40
  -2  16  -8  230.98   26.90
   2 -16   8  249.08   30.50
  -3  16  -8   12.40   32.10
   3 -16   8    3.90   19.20
  -4  16  -8   -2.40   34.00
  -4  16  -8   39.50   16.20
   4 -16   8   82.39   24.90
  -5  16  -8    3.90   30.50
   5 -16   8   63.89   28.40
  -6  16  -8   -2.70   34.90
   6 -16   8   38.10   30.30
  -7  16  -8  141.39   42.10
   7 -16   8   73.29   37.30
   6  15  -8   28.00   24.80
  -6 -15   8   56.79   19.10
  -6 -15   8   -6.50   41.90
  -5 -15   8  137.99   48.10
  -5 -15   8   47.50   16.80
  -4 -15   8   30.00   39.30
  -4 -15   8   66.39   15.40
  -4 -15   8   70.39   14.10
   0 -15   8   50.49   19.50
   0 -15   8   51.19   12.60
  -1  15  -8   68.59   30.70
   1 -15   8   36.80   14.30
  -2  15  -8   -1.20   28.00
  -2  15  -8    7.10   12.40
   2 -15   8   -6.70   15.90
  -3  15  -8  142.39   20.60
  -3  15  -8  165.98   37.90
   3 -15   8  162.48   27.00
  -4  15  -8   50.79   15.90
  -4  15  -8    8.60   30.20
   4 -15   8   36.70   24.10
  -5  15  -8  192.88   43.10
   5 -15   8  164.18   34.50
  -6  15  -8   39.30   33.70
   6 -15   8  -12.20   29.00
  -7  15  -8    1.40   37.60
   7 -15   8   28.00   33.30
   7  14  -8  -21.80   27.00
  -7 -14   8   36.20   50.09
   6  14  -8  166.58   30.30
  -6 -14   8  234.48   54.29
  -6 -14   8  155.78   25.50
  -5 -14   8   40.30   15.10
  -5 -14   8   18.50   40.40
  -4 -14   8  210.78   48.60
  -4 -14   8  183.98   24.50
  -3 -14   8  310.17   51.99
   0 -14   8  105.69   29.90
   0 -14   8  154.68   19.60
  -1  14  -8  247.18   41.60
   1 -14   8  238.58   26.30
  -2  14  -8   36.30   12.80
  -2  14  -8   29.90   29.10
   2 -14   8   47.30   16.20
  -3  14  -8  162.18   36.20
  -3  14  -8  116.99   18.00
   3 -14   8  127.39   23.80
  -4  14  -8   78.89   20.10
  -4  14  -8  115.29   32.40
   4 -14   8  136.59   28.90
  -5  14  -8   15.30   30.20
   5 -14   8   10.00   37.40
  -6  14  -8   12.50   32.00
   6 -14   8   28.40   28.20
  -7  14  -8   38.20   37.60
   7 -14   8   40.50   35.00
  -8  14  -8    1.10   37.50
   8 -14   8   51.59   37.10
   7  13  -8  151.58   34.60
  -7 -13   8  223.48   54.09
   6  13  -8   -0.30   22.60
  -6 -13   8  -15.50   14.30
  -6 -13   8   56.69   44.20
   5  13  -8  507.25   43.70
  -5 -13   8  448.16   64.09
  -5 -13   8  462.05   40.50
  -4 -13   8   75.39   37.00
  -3 -13   8  145.29   39.60
   0 -13   8   53.59   12.90
   0 -13   8   63.39   14.60
  -1  13  -8  372.36   32.10
  -1  13  -8  451.45   52.09
   1 -13   8  447.66   34.30
  -2  13  -8   77.09   29.60
  -2  13  -8   53.29   12.80
   2 -13   8   58.39   17.40
  -3  13  -8  221.78   39.00
  -3  13  -8  203.58   24.10
   3 -13   8  224.48   28.70
  -4  13  -8    8.20   12.90
  -4  13  -8    7.00   26.00
   4 -13   8   25.60   19.90
  -5  13  -8   35.80   29.80
   5 -13   8   31.50   25.00
  -6  13  -8  189.08   40.30
   6 -13   8  135.99   35.30
  -7  13  -8   45.00   35.40
   7 -13   8   72.09   33.60
  -8  13  -8   88.49   39.30
   8 -13   8   98.79   41.10
   8  12  -8  174.48   41.70
  -8 -12   8  228.98   56.99
   7  12  -8   15.50   26.60
  -7 -12   8  -10.10   42.90
   6  12  -8  496.65   48.20
  -6 -12   8  431.56   40.70
  -6 -12   8  413.56   61.29
   5  12  -8   14.50   18.90
  -5 -12   8   38.20   13.90
  -5 -12   8    6.70   35.10
  -4 -12   8  347.17   53.89
  -3 -12   8   33.50   29.10
   0 -12   8   12.50   18.80
  -1  12  -8   12.90    8.50
  -1  12  -8   51.59   24.30
   1 -12   8   23.00   11.10
   1 -12   8   12.40   19.00
  -2  12  -8   14.60   10.40
  -2  12  -8    2.50   22.70
   2 -12   8   10.40   24.40
   2 -12   8   -8.30   12.60
  -3  12  -8  183.28   64.89
  -3  12  -8  247.58   26.10
   3 -12   8  258.97   30.90
  -4  12  -8   19.90   16.50
  -4  12  -8   17.70   26.20
   4 -12   8   31.90   21.20
  -5  12  -8   16.30   15.90
  -5  12  -8   -1.20   28.50
   5 -12   8   41.30   26.10
  -6  12  -8   -9.00   28.30
   6 -12   8   11.10   26.70
  -7  12  -8  154.68   42.00
   7 -12   8  129.89   39.60
  -8  12  -8   -6.60   33.50
   8 -12   8   13.30   34.90
  -9  12  -8   56.59   41.90
   9 -12   8   37.90   36.00
   8  11  -8   15.50   30.60
  -8 -11   8    1.00   45.30
   7  11  -8  451.55   48.40
  -7 -11   8  331.27   59.39
   6  11  -8    9.70   22.00
  -6 -11   8   -9.80   13.70
  -6 -11   8  -18.70   32.70
   5  11  -8  281.97   31.70
  -5 -11   8  309.27   50.39
  -5 -11   8  250.87   26.50
   4  11  -8  203.98   28.30
  -4 -11   8  205.28   43.40
  -3 -11   8  297.07   54.09
  -2 -11   8  153.28   28.80
  -1 -11   8   30.90   19.30
   0 -11   8  136.79   28.20
  -1  11  -8  211.18   35.50
   1 -11   8  285.97   25.10
   1 -11   8  206.48   33.10
  -2  11  -8  103.39   14.30
  -2  11  -8   95.59   27.80
   2 -11   8   95.29   25.00
   2 -11   8   80.79   18.50
  -3  11  -8   63.99   14.80
  -3  11  -8   26.70   24.50
   3 -11   8   62.19   23.10
   3 -11   8   64.09   19.50
  -4  11  -8   38.50   14.90
   4 -11   8   15.60   20.50
  -5  11  -8  175.18   26.60
  -5  11  -8  215.38   39.00
   5 -11   8  241.38   36.60
  -6  11  -8  251.57   45.70
   6 -11   8  297.47   43.50
  -7  11  -8    7.40   29.60
   7 -11   8   13.60   32.00
  -8  11  -8  162.98   42.50
   8 -11   8   73.89   37.70
  -9  11  -8  -25.10   36.60
   9 -11   8   31.80   39.60
   9  10  -8   47.80   39.70
   8  10  -8  188.78   42.10
  -8 -10   8  281.87   55.89
   7  10  -8  -22.50   25.70
  -7 -10   8  -19.90   39.00
   6  10  -8  432.96   45.90
  -6 -10   8  428.46   38.70
  -6 -10   8  369.56   56.59
   5  10  -8  527.85   44.00
  -5 -10   8  453.05   38.50
  -5 -10   8  451.75   57.19
   4  10  -8  189.78   25.20
  -4 -10   8  131.79   37.80
  -3 -10   8 1226.58   97.09
  -2 -10   8  -18.90   16.00
  -1 -10   8   -3.70   17.20
   0 -10   8   13.00   25.00
  -1  10  -8  391.26   29.80
  -1  10  -8  435.76   45.90
   1 -10   8  405.06   49.30
  -2  10  -8  118.29   15.50
  -2  10  -8   85.89   26.20
   2 -10   8   96.69   19.30
   2 -10   8  119.29   29.80
  -3  10  -8  -16.00   19.90
  -3  10  -8   -3.60   12.40
   3 -10   8  -48.20   17.10
   3 -10   8   -9.60   17.60
  -4  10  -8  528.15   47.30
  -4  10  -8  608.74   58.69
   4 -10   8  663.13   53.79
   4 -10   8  562.04   56.29
  -5  10  -8    7.20   27.70
  -5  10  -8   27.40   15.70
   5 -10   8   30.70   23.30
  -6  10  -8   -5.40   26.30
   6 -10   8    2.30   25.80
  -7  10  -8  315.07   50.79
   7 -10   8  379.06   51.49
  -8  10  -8   37.30   37.20
   8 -10   8   82.79   38.20
  -9  10  -8  113.39   43.90
   9 -10   8   84.79   42.30
   9   9  -8   93.49   39.60
  -9  -9   8  106.39   48.40
   8   9  -8   41.70   33.60
  -8  -9   8   65.49   44.30
   7   9  -8   94.89   30.40
  -7  -9   8  130.39   27.30
  -7  -9   8   77.79   40.40
   6   9  -8   43.60   24.90
  -6  -9   8   44.10   15.40
  -6  -9   8   37.80   33.90
   5   9  -8  259.27   29.30
  -5  -9   8  205.98   42.70
  -5  -9   8  251.47   25.80
   4   9  -8  377.96   34.00
  -4  -9   8  399.06   33.40
  -4  -9   8  285.17   49.00
  -3  -9   8  774.32   69.39
  -2  -9   8  432.16   61.49
  -1  -9   8  144.99   26.20
   0  -9   8   94.69   23.10
  -1   9  -8  206.48   19.30
  -1   9  -8  200.88   30.40
   1  -9   8  244.28   31.80
   1  -9   8  251.97   26.90
  -2   9  -8   97.09   24.30
  -2   9  -8   96.99   15.10
   2  -9   8   72.69   18.40
   2  -9   8  108.99   23.30
  -3   9  -8  347.37   40.90
  -3   9  -8  336.27   31.90
   3  -9   8  350.76   36.30
   3  -9   8  356.56   46.20
  -4   9  -8  -10.20   12.40
  -4   9  -8  -16.50   19.70
   4  -9   8  -12.10   18.60
   4  -9   8    7.20   18.30
  -5   9  -8  724.73   62.09
  -5   9  -8  767.42   70.09
   5  -9   8  870.31   68.19
   5  -9   8  854.81   72.19
  -6   9  -8  505.35   58.79
   6  -9   8  535.85   55.69
  -7   9  -8   31.90   31.40
   7  -9   8    4.00   30.20
  -8   9  -8   36.80   35.60
   8  -9   8  -17.50   33.50
  -9   9  -8   20.00   38.20
   9  -9   8   37.00   39.50
   9   8  -8  -25.30   34.60
  -9  -8   8   33.20   46.80
   8   8  -8    5.00   37.10
  -8  -8   8   -0.90   39.10
   7   8  -8   34.30   26.60
  -7  -8   8  -16.60   32.80
  -7  -8   8   11.40   16.50
   6   8  -8  159.58   31.80
  -6  -8   8  106.29   39.60
  -6  -8   8  136.99   22.40
   5   8  -8  786.72   59.09
  -5  -8   8  732.03   53.39
  -5  -8   8  647.24   71.69
   4   8  -8   23.40   15.50
  -4  -8   8   44.00   26.70
  -4  -8   8   38.80   10.30
   3   8  -8 1103.79   74.69
  -3  -8   8 1144.39   88.09
  -1  -8   8    3.90   15.10
   0  -8   8  377.76   39.70
  -1   8  -8  114.89   23.60
  -1   8  -8  147.79   15.30
   1  -8   8  137.29   23.80
   1  -8   8  144.89   22.20
  -2   8  -8  808.22   57.49
  -2   8  -8  791.32   64.59
   2  -8   8  767.22   63.49
   2  -8   8  857.21   59.89
  -3   8  -8    8.50   19.30
  -3   8  -8   17.20   13.70
   3  -8   8   -0.60   17.10
   3  -8   8    5.60   17.40
  -4   8  -8  503.35   46.00
  -4   8  -8  569.54   52.29
   4  -8   8  600.74   50.99
  -5   8  -8  133.49   24.20
  -5   8  -8  182.58   31.80
   5  -8   8  102.79   27.40
   5  -8   8  128.19   29.50
  -6   8  -8  506.55   76.19
   6  -8   8  433.56   55.09
  -7   8  -8  116.09   36.70
   7  -8   8   91.49   36.40
  -8   8  -8   12.70   33.80
   8  -8   8   -4.60   35.30
  -9   8  -8  -12.20   36.40
   9  -8   8   -3.60   34.80
   9   7  -8   -2.70   34.50
  -9  -7   8   58.29   46.40
  -8  -7   8   14.00   39.50
   7   7  -8  -10.50   25.40
  -7  -7   8  -53.29   34.30
  -7  -7   8   35.90   16.00
   6   7  -8  147.19   29.00
  -6  -7   8  191.48   42.60
  -6  -7   8  113.19   21.20
   5   7  -8  -16.00   18.50
  -5  -7   8   14.00   35.30
  -5  -7   8    7.10   11.60
   4   7  -8  174.28   21.10
  -4  -7   8  165.68   17.60
  -4  -7   8  155.38   32.60
   3   7  -8  700.53   50.49
  -3  -7   8  813.02   63.79
  -3  -7   8  680.83   48.20
  -2  -7   8  491.55   48.30
  -1  -7   8  175.28   25.20
   0  -7   8   30.40    9.30
   0  -7   8   12.90   14.50
  -1   7  -8 1037.40   66.89
  -1   7  -8  950.20   73.09
   1  -7   8  907.81   72.39
  -2   7  -8  222.88   28.90
  -2   7  -8  179.28   22.00
   2  -7   8  149.79   24.80
   2  -7   8  191.38   26.10
  -3   7  -8 1121.19   77.19
  -3   7  -8  982.80   72.59
   3  -7   8  966.40   75.59
   3  -7   8  966.70   77.49
  -4   7  -8   55.69   21.90
  -4   7  -8   86.09   19.70
   4  -7   8   50.69   22.70
   4  -7   8   48.30   18.50
  -5   7  -8  931.21   75.29
  -5   7  -8 1056.99   79.89
   5  -7   8  980.70   78.29
   5  -7   8 1005.70   79.49
  -6   7  -8   16.70   25.80
   6  -7   8   96.69   36.40
   6  -7   8   12.10   27.50
  -7   7  -8  142.29   36.40
   7  -7   8  138.09   37.80
  -8   7  -8   -5.20   32.10
   8  -7   8    6.00   35.30
  -9   7  -8  -10.40   36.80
   9  -7   8  -27.90   36.00
 -10   7  -8   69.69   48.10
  10  -7   8  -55.79   42.40
   9   6  -8  -11.20   32.00
  -9  -6   8    6.30   42.30
   8   6  -8   42.10   34.40
  -8  -6   8   83.09   40.30
   7   6  -8  -18.10   23.80
  -7  -6   8  -20.50   34.70
  -7  -6   8   -8.10   14.90
   6   6  -8   42.40   23.20
  -6  -6   8   55.59   33.00
  -6  -6   8   12.60   15.00
   5   6  -8  189.78   36.70
   5   6  -8  294.97   30.40
  -5  -6   8  185.28   41.30
  -5  -6   8  233.78   25.00
   4   6  -8   62.59   16.30
  -4  -6   8   62.19   12.00
  -4  -6   8   35.10   23.10
  -3  -6   8  -25.40   23.20
  -3  -6   8    8.40    7.20
   2   6  -8 1890.11  127.19
  -2  -6   8 2074.59  136.39
  -1  -6   8  -13.30   13.40
   0   6  -8  310.57   26.30
   0  -6   8  288.57   33.10
   0  -6   8  350.66   26.80
  -1   6  -8  317.37   40.80
  -1   6  -8  300.87   31.90
   1  -6   8  264.37   31.10
   1  -6   8  320.27   29.20
  -2   6  -8 1003.70   75.09
  -2   6  -8 1192.68   78.29
   2  -6   8 1015.60   77.09
   2  -6   8 1044.40   76.39
  -3   6  -8  -11.60   14.40
  -3   6  -8   -0.60   16.20
   3  -6   8  -21.40   17.80
   3  -6   8   17.00   16.20
  -4   6  -8  765.82   60.89
  -4   6  -8  805.12   62.69
   4  -6   8  748.33   61.09
   4  -6   8  710.73   63.59
  -5   6  -8   58.89   23.40
  -5   6  -8   33.80   17.80
   5  -6   8   30.30   25.50
   5  -6   8  -15.00   24.10
  -6   6  -8  861.31   70.19
   6  -6   8  740.03   68.09
   6  -6   8  654.43   80.39
  -7   6  -8   33.60   30.40
   7  -6   8    8.20   31.40
  -8   6  -8   79.29   35.30
   8  -6   8  -30.80   33.00
  -9   6  -8   35.00   37.10
   9  -6   8  -56.09   34.10
 -10   6  -8  -32.30   36.40
  10  -6   8   -4.50   40.20
  10   5  -8   55.19   38.90
 -10  -5   8    2.20   51.69
   9   5  -8   18.80   33.80
  -9  -5   8    1.20   38.50
   8   5  -8   17.50   29.00
  -8  -5   8   43.80   38.40
   7   5  -8   47.50   26.90
  -7  -5   8   -0.70   32.90
  -7  -5   8   23.20   16.90
  -6  -5   8   62.39   16.10
  -6  -5   8   66.09   36.00
   5   5  -8   73.99   26.00
   5   5  -8   90.79   19.80
  -5  -5   8  133.29   32.20
  -5  -5   8   76.39   14.60
   4   5  -8  150.38   19.50
   4   5  -8  119.69   28.60
  -4  -5   8   74.29   25.30
   3   5  -8  397.36   31.10
  -3  -5   8  335.47   28.90
  -3  -5   8  412.16   42.70
   2   5  -8   69.89   11.60
  -2  -5   8   83.09   22.00
   1   5  -8 2227.88  137.69
   1   5  -8 2026.40  138.49
   0   5  -8  200.68   20.50
   0  -5   8  198.68   20.70
   0  -5   8  170.38   22.30
  -2   5  -8   18.90   16.20
  -2   5  -8   31.60   16.20
   2  -5   8   37.50   15.80
   2  -5   8   23.40   17.50
  -3   5  -8 1027.10   72.69
  -3   5  -8  974.70   73.29
   3  -5   8  952.60   71.69
   3  -5   8  958.60   74.59
  -4   5  -8  786.12   64.59
  -4   5  -8  855.81   64.89
   4  -5   8  886.71   67.39
   4  -5   8  756.52   64.39
  -5   5  -8  487.85   46.30
  -5   5  -8  374.26   44.70
   5  -5   8  437.86   50.79
   5  -5   8  413.46   44.80
  -6   5  -8  996.00   80.09
   6  -5   8  856.81   78.79
   6  -5   8 1104.09   89.49
  -7   5  -8   37.60   40.00
   7  -5   8   -4.40   34.40
  -8   5  -8  265.77   46.80
   8  -5   8  186.28   46.70
  -9   5  -8   64.89   39.20
   9  -5   8   51.59   41.50
 -10   5  -8   -0.90   41.10
  10  -5   8   24.90   42.90
  10   4  -8  -28.00   34.10
 -10  -4   8   56.99   51.69
   9   4  -8  -11.40   30.90
  -9  -4   8   14.70   39.80
   8   4  -8   52.29   30.20
  -8  -4   8   41.30   37.80
   7   4  -8   35.60   25.10
  -7  -4   8   50.39   36.80
  -7  -4   8   70.89   19.20
   6   4  -8   88.99   22.90
  -6  -4   8  -11.30   33.90
  -6  -4   8   29.10   14.70
   5   4  -8  503.85   53.49
   5   4  -8  580.54   46.80
  -5  -4   8  564.34   57.29
  -5  -4   8  514.45   42.20
   4   4  -8 1042.10   70.69
   4   4  -8  889.31   76.99
  -4  -4   8  985.90   79.39
  -4  -4   8 1010.50   68.69
   3   4  -8 1325.07   90.29
   3   4  -8 1337.07   96.89
  -3  -4   8 1315.67   89.59
  -3  -4   8 1415.26   98.29
   2   4  -8  919.01   63.59
  -2  -4   8  952.40   69.99
   1   4  -8  547.15   40.40
   1   4  -8  533.25   42.30
  -1  -4   8  519.45   44.50
   0   4  -8  334.87   38.30
   0  -4   8  318.97   29.50
   0  -4   8  308.07   29.80
  -1   4  -8  309.87   31.20
  -1   4  -8  341.97   30.60
   1  -4   8  319.47   32.20
   1  -4   8  318.07   32.40
  -2   4  -8  457.55   39.10
  -2   4  -8  453.85   40.60
   2  -4   8  443.26   38.40
   2  -4   8  513.85   42.70
  -3   4  -8  663.13   56.09
  -3   4  -8  742.73   54.19
   3  -4   8  709.73   59.19
   3  -4   8  628.74   52.89
  -4   4  -8  392.36   39.00
  -4   4  -8  394.96   41.00
   4  -4   8  323.07   41.60
   4  -4   8  378.56   38.60
  -5   4  -8  553.34   49.00
  -5   4  -8  470.05   49.00
   5  -4   8  552.94   54.99
   5  -4   8  435.36   47.30
  -6   4  -8  163.78   35.20
   6  -4   8  148.69   35.20
   6  -4   8  189.28   40.00
  -7   4  -8  338.57   49.30
   7  -4   8  309.57   47.50
  -8   4  -8  157.28   41.60
   8  -4   8   78.29   41.30
  -9   4  -8   12.70   39.40
   9  -4   8   21.00   37.80
 -10   4  -8   57.19   46.20
  10  -4   8   11.50   43.70
  10   3  -8   -8.60   36.40
 -10  -3   8   -0.10   43.90
   9   3  -8   38.70   33.60
  -9  -3   8   16.70   41.70
   8   3  -8    0.50   27.40
  -8  -3   8   49.10   37.80
   7   3  -8    9.30   23.90
  -7  -3   8   36.60   34.60
  -7  -3   8   42.30   17.30
   6   3  -8  699.93   55.19
  -6  -3   8  470.05   89.39
  -6  -3   8  596.54   56.49
   5   3  -8   44.10   16.70
   5   3  -8  -30.60   22.20
  -5  -3   8   -8.80   23.00
  -5  -3   8   27.30   11.40
   4   3  -8  278.77   27.60
   4   3  -8  163.28   30.20
  -4  -3   8  194.98   33.20
  -4  -3   8  228.38   23.20
   3   3  -8 1007.10   68.39
   3   3  -8  907.41   73.69
  -3  -3   8  985.60   67.09
  -3  -3   8  980.20   75.09
   2   3  -8  274.37   24.00
  -2  -3   8  264.97   30.80
  -2  -3   8  237.88   22.70
   1   3  -8 1038.80   75.49
   1   3  -8 1105.39   73.79
  -1  -3   8 1146.09   77.09
   0   3  -8    6.40   14.30
   0  -3   8   16.80   13.80
   0  -3   8    8.30   10.50
  -1   3  -8  819.72   55.59
  -1   3  -8  743.53   58.49
   1  -3   8  782.62   55.19
   1  -3   8  783.52   58.99
  -2   3  -8  155.48   19.70
  -2   3  -8  162.88   24.60
   2  -3   8  195.68   26.30
   2  -3   8  167.48   21.40
  -3   3  -8  759.62   56.19
  -3   3  -8  765.72   59.79
   3  -3   8  688.63   55.89
   3  -3   8  788.22   61.89
  -4   3  -8  488.55   44.20
  -4   3  -8  487.95   46.30
   4  -3   8  499.25   49.99
   4  -3   8  495.65   43.90
  -5   3  -8   32.00   19.80
  -5   3  -8   46.20   23.40
   5  -3   8   65.79   26.70
   5  -3   8    8.10   20.30
  -6   3  -8 1130.89   89.19
   6  -3   8 1136.29   92.99
  -7   3  -8  146.99   35.20
   7  -3   8  122.79   39.10
   7  -3   8   43.70   35.60
  -8   3  -8  100.29   39.30
   8  -3   8   70.49   38.90
  -9   3  -8  149.29   47.00
   9  -3   8   81.49   44.00
 -10   3  -8  -16.50   46.50
  10  -3   8   74.99   47.80
  10   2  -8   42.70   37.30
 -10  -2   8   80.99   48.70
   9   2  -8    1.20   32.00
  -9  -2   8   -0.40   39.90
   8   2  -8   13.00   27.70
  -8  -2   8   -8.50   36.90
   7   2  -8  274.57   42.30
  -7  -2   8  268.67   45.60
   6   2  -8   48.20   21.10
  -6  -2   8   51.49   31.00
  -6  -2   8   48.90   14.50
   5   2  -8  576.14   56.49
   5   2  -8  644.24   50.69
  -5  -2   8  587.04   47.00
  -5  -2   8  610.34   58.29
   4   2  -8  638.44   49.60
   4   2  -8  598.14   55.69
  -4  -2   8  674.83   56.89
  -4  -2   8  606.04   47.00
   3   2  -8  999.80   77.79
   3   2  -8 1047.70   73.89
  -3  -2   8 1116.39   79.49
  -3  -2   8 1055.69   72.59
   2   2  -8  217.58   23.90
   2   2  -8  265.87   29.00
  -2  -2   8  221.88   22.40
  -2  -2   8  271.07   28.50
   1   2  -8  319.57   27.50
   1   2  -8  333.27   31.70
   0   2  -8  110.49   19.30
   0  -2   8  127.59   20.60
   0  -2   8  107.99   13.90
   0  -2   8  113.19   14.50
  -1   2  -8  128.59   20.70
   1  -2   8  141.39   22.30
   1  -2   8  110.39   12.90
  -2   2  -8   73.49   19.80
  -2   2  -8  112.49   13.60
   2  -2   8   70.19   13.60
   2  -2   8   88.19   21.40
  -4   2  -8   65.59   18.60
   4  -2   8   67.49   24.40
  -5   2  -8  267.37   31.70
  -5   2  -8  192.48   30.70
   5  -2   8  242.88   37.50
   5  -2   8  252.37   32.40
  -6   2  -8    0.20   26.30
   6  -2   8    1.70   30.90
   6  -2   8   52.59   31.90
  -7   2  -8  273.67   42.90
   7  -2   8  289.57   44.60
   7  -2   8  214.28   42.60
  -8   2  -8  205.08   44.30
   8  -2   8  131.39   43.60
  -9   2  -8   26.30   43.10
   9  -2   8   56.79   39.70
 -10   2  -8  331.77   64.89
  10  -2   8  220.28   70.99
  10   1  -8   38.90   37.50
 -10  -1   8   -4.90   44.10
   9   1  -8   42.80   31.90
  -9  -1   8   21.40   39.50
   8   1  -8   47.40   27.00
  -8  -1   8   24.80   37.40
   7   1  -8  188.38   34.80
  -7  -1   8   99.19   37.00
   6   1  -8  156.38   28.40
  -6  -1   8  163.48   24.00
  -6  -1   8  197.28   39.40
   5   1  -8   72.39   26.40
   5   1  -8   66.69   19.90
  -5  -1   8   72.09   25.10
  -5  -1   8   50.59   14.70
   4   1  -8   40.80   19.10
   4   1  -8   34.60   15.40
  -4  -1   8   35.60   20.90
  -4  -1   8   16.30   11.60
   3   1  -8   -7.80   16.30
   3   1  -8    3.60   12.60
  -3  -1   8   28.60   10.60
  -3  -1   8   -9.60   17.80
   2   1  -8   25.80   12.20
   2   1  -8   15.50   14.10
  -2  -1   8    4.30   15.20
  -2  -1   8   11.10   11.50
   1   1  -8   46.00   12.80
   1   1  -8   89.99   18.50
  -1  -1   8   72.69   14.70
   0   1  -8  246.68   27.70
   0  -1   8  230.88   19.20
   0  -1   8  226.78   20.30
  -1   1  -8  253.07   29.30
   1  -1   8  212.98   28.60
  -2   1  -8  163.18   17.90
  -2   1  -8  138.59   25.80
   2  -1   8  182.38   28.30
   2  -1   8  187.58   19.10
  -3   1  -8    5.90   13.50
  -3   1  -8    7.30   18.00
   3  -1   8   55.99   21.50
  -4   1  -8   80.49   23.00
  -4   1  -8   73.19   17.30
   4  -1   8   49.80   24.10
   4  -1   8    0.70   17.70
  -5   1  -8   31.60   22.20
  -5   1  -8   43.00   24.10
   5  -1   8   83.59   24.70
   5  -1   8   90.99   28.90
  -6   1  -8  -23.40   23.20
   6  -1   8   53.69   29.60
   6  -1   8   42.20   26.50
  -7   1  -8  238.78   41.00
   7  -1   8  208.68   42.90
   7  -1   8  159.48   39.40
  -8   1  -8   46.00   38.00
   8  -1   8   55.09   38.10
  -9   1  -8  411.26   62.59
   9  -1   8  314.47   59.89
 -10   1  -8   48.60   49.50
  10   0  -8  108.79   40.30
 -10   0   8  150.28   53.49
   9   0  -8   66.59   34.70
  -9   0   8   10.80   41.40
   8   0  -8  302.87   43.00
  -8   0   8  307.17   54.59
   7   0  -8  127.39   29.40
  -7   0   8  131.09   38.80
   6   0  -8   97.19   24.70
  -6   0   8   75.99   18.30
  -6   0   8  151.78   34.20
   5   0  -8  169.38   33.30
   5   0  -8  157.08   26.90
  -5   0   8  195.28   25.40
  -5   0   8  246.08   36.60
   4   0  -8  127.59   25.10
   4   0  -8  115.29   21.50
  -4   0   8   94.49   17.10
  -4   0   8   88.89   25.20
   3   0  -8  255.87   33.70
   3   0  -8  282.07   30.40
  -3   0   8  307.47   33.20
  -3   0   8  283.77   28.10
   2   0  -8   54.59   16.40
   2   0  -8   70.69   15.00
  -2   0   8  100.29   17.70
  -2   0   8   74.79   13.90
   1   0  -8   44.80   14.90
   1   0  -8   68.89   13.90
   1   0  -8   61.09   20.20
  -1   0   8   60.49   13.30
   0   0  -8 1907.61  130.39
  -1   0  -8  278.77   33.10
   1   0   8  273.77   32.30
  -2   0  -8  634.54   53.39
   2   0   8  614.14   55.09
  -3   0  -8   34.80   20.80
  -3   0  -8   10.10   18.50
   3   0   8   23.40   12.20
   3   0   8   77.19   24.30
  -4   0  -8  -30.40   15.50
  -4   0  -8   -1.50   19.40
   4   0   8   -6.00   20.80
   4   0   8  -27.40   15.20
  -5   0  -8   44.90   22.30
   5   0   8   26.20   27.90
   5   0   8   -2.40   20.90
  -6   0  -8  121.59   33.30
   6   0   8  162.88   34.20
   6   0   8  203.58   38.50
  -7   0  -8  -39.10   29.60
   7   0   8   53.79   35.90
   7   0   8  -16.60   34.20
  -8   0  -8  508.85   65.09
   8   0   8  437.56   60.39
  -9   0  -8  -17.70   42.30
   9   0   8   76.79   44.30
  10  -1  -8  127.99   42.00
 -10   1   8   47.10   50.59
   9  -1  -8  240.98   45.90
  -9   1   8  361.16   62.69
   8  -1  -8   47.60   30.50
  -8   1   8    4.20   35.80
   7  -1  -8  245.78   38.60
  -7   1   8  203.08   44.10
   6  -1  -8    8.70   25.40
  -6   1   8   -0.10   26.80
   5  -1  -8  185.38   31.90
   5  -1  -8  259.17   37.70
  -5   1   8  225.38   28.50
  -5   1   8  273.67   38.60
   4  -1  -8  133.89   25.30
   4  -1  -8  117.29   23.20
  -4   1   8  111.79   26.40
  -4   1   8  101.39   17.80
   3  -1  -8    3.60   15.50
   3  -1  -8   -7.80   13.70
  -3   1   8   -7.60   11.00
  -3   1   8    4.20   17.80
   2  -1  -8  136.79   20.60
   2  -1  -8  110.69   19.20
  -2   1   8  103.19   19.70
  -2   1   8  119.99   18.00
   1  -1  -8  786.82   54.69
   1  -1  -8  792.82   57.09
   1  -1  -8  702.93   60.39
  -1   1   8  764.12   53.59
   0  -1  -8  131.69   26.50
  -1  -1  -8  394.66   40.50
   1   1   8  313.57   36.80
  -2  -1  -8   46.50   20.90
   2   1   8   79.09   23.20
  -3  -1  -8   82.79   35.60
  -3  -1  -8    6.60   24.50
   3   1   8   16.50   11.90
   3   1   8    8.20   21.00
  -4  -1  -8  162.38   22.20
  -4  -1  -8  137.19   28.90
   4   1   8  126.59   31.00
   4   1   8  134.09   22.70
  -5  -1  -8  208.88   31.10
   5   1   8  281.57   46.10
   5   1   8  212.78   29.80
  -6  -1  -8  103.89   31.20
   6   1   8  166.58   37.60
   6   1   8   80.09   30.00
  -7  -1  -8  321.67   45.90
   7   1   8  242.08   44.10
   7   1   8  279.57   50.29
  -8  -1  -8  158.18   49.40
   8   1   8  190.78   47.80
  -9  -1  -8  304.17   60.79
   9   1   8  193.88   50.29
  10  -2  -8  266.77   53.39
 -10   2   8  279.07   57.59
   9  -2  -8   28.00   33.80
  -9   2   8   -1.00   39.70
   8  -2  -8  309.37   48.40
  -8   2   8  464.95   61.29
   7  -2  -8   53.79   26.90
  -7   2   8   46.00   34.80
   6  -2  -8  233.08   38.60
  -6   2   8  348.97   48.60
   5  -2  -8    2.80   21.80
   5  -2  -8    7.60   20.50
  -5   2   8   -1.80   24.80
  -5   2   8   11.60   13.30
   4  -2  -8   -2.80   17.60
   4  -2  -8    2.70   17.90
  -4   2   8   68.79   22.40
  -4   2   8   32.90   14.20
   3  -2  -8   44.60   17.10
   3  -2  -8   87.79   20.50
  -3   2   8   30.10   17.10
  -3   2   8   91.19   17.00
   2  -2  -8  788.42   58.99
   2  -2  -8  815.72   59.89
  -2   2   8  756.42   57.69
  -2   2   8  804.02   58.29
   1  -2  -8   39.40   19.50
   1  -2  -8   24.80   12.60
   1  -2  -8   38.60   15.00
  -1   2   8   39.10   11.70
   0  -2  -8  303.47   35.60
  -1  -2  -8   28.00   20.90
   1   2   8   49.60   22.10
  -2  -2  -8   -3.80   19.30
   2   2   8   30.20   20.50
  -3  -2  -8   52.29   22.50
  -3  -2  -8   37.60   21.40
   3   2   8   45.10   22.80
  -4  -2  -8   59.39   24.60
  -4  -2  -8   83.89   18.40
   4   2   8   28.70   24.40
   4   2   8   36.10   17.60
  -5  -2  -8  126.39   26.50
   5   2   8  113.19   26.70
   5   2   8  120.59   34.70
  -6  -2  -8   72.19   31.10
   6   2   8  104.69   32.40
   6   2   8   59.89   34.60
  -7  -2  -8  126.09   39.10
   7   2   8  127.69   41.50
   7   2   8  117.09   38.00
  -8  -2  -8  136.49   46.60
   8   2   8  132.69   43.80
  -9  -2  -8   -7.10   44.30
   9   2   8    2.40   41.30
   9  -3  -8  119.79   39.90
  -9   3   8  167.58   48.50
   8  -3  -8   43.50   31.50
  -8   3   8   19.30   36.30
   7  -3  -8  133.09   33.10
  -7   3   8  209.98   40.70
   6  -3  -8   49.70   23.80
  -6   3   8  -13.00   44.60
   5  -3  -8  334.17   41.90
   5  -3  -8  214.98   35.80
  -5   3   8  341.47   40.80
   4  -3  -8  -18.90   15.70
   4  -3  -8    6.80   18.30
  -4   3   8   17.00   20.70
  -4   3   8  -14.70   12.00
   3  -3  -8   43.30   19.20
   3  -3  -8    1.00   16.50
  -3   3   8   38.90   16.40
  -3   3   8   54.69   18.10
   2  -3  -8  400.46   36.50
   2  -3  -8  383.36   37.80
  -2   3   8  398.76   36.60
   1  -3  -8  150.78   27.40
   1  -3  -8  179.98   19.40
   1  -3  -8  131.59   21.50
  -1   3   8  141.49   19.50
   0  -3  -8    0.00   19.40
   0  -3  -8   -8.80    8.30
   0  -3  -8   20.90   14.60
  -1  -3  -8  -25.80   19.60
   1   3   8   16.30   20.00
  -2  -3  -8  199.88   21.30
  -2  -3  -8  194.88   19.50
  -2  -3  -8  197.88   31.60
   2   3   8  184.08   29.70
  -3  -3  -8   81.39   18.10
  -3  -3  -8   37.20   24.60
   3   3   8   98.49   26.70
  -4  -3  -8  465.35   40.50
   4   3   8  247.38   64.89
  -5  -3  -8   19.80   23.40
   5   3   8    8.10   29.30
  -6  -3  -8  128.09   32.30
   6   3   8   81.29   38.60
   6   3   8   58.69   30.40
  -7  -3  -8  -18.70   31.90
   7   3   8  -31.50   33.40
   7   3   8  -10.80   30.30
  -8  -3  -8   21.50   40.50
   8   3   8   66.29   41.60
  -9  -3  -8   52.69   45.20
   9   3   8  -58.89   38.10
   9  -4  -8   26.50   31.60
  -9   4   8   12.10   36.50
   8  -4  -8   33.60   31.60
  -8   4   8   97.09   40.70
   7  -4  -8   44.90   30.00
  -7   4   8   60.19   32.90
   6  -4  -8  167.18   33.30
  -6   4   8  154.48   42.80
   5  -4  -8  339.87   41.60
   5  -4  -8  331.37   42.40
  -5   4   8  247.88   38.80
   4  -4  -8  -31.40   18.20
   4  -4  -8    3.30   19.40
  -4   4   8   17.90   16.20
  -4   4   8  -43.70   20.30
   3  -4  -8  442.76   42.80
   3  -4  -8  400.66   44.70
  -3   4   8  486.05   41.60
  -3   4   8  541.75   45.20
   2  -4  -8   47.10   16.20
   2  -4  -8   44.80   18.80
  -2   4   8   33.50   16.70
   1  -4  -8   32.70   22.20
   1  -4  -8   51.19   23.90
   1  -4  -8   73.19   19.50
  -1   4   8   47.70   15.70
   0  -4  -8  181.68   18.80
   0  -4  -8  189.08   25.50
   0  -4  -8  152.38   30.60
  -1  -4  -8  232.38   21.90
  -1  -4  -8  295.27   36.10
   1   4   8  251.37   34.90
  -2  -4  -8   76.39   25.00
  -2  -4  -8   76.69   13.40
  -2  -4  -8   78.49   15.20
   2   4   8   45.20   24.50
  -3  -4  -8  130.09   35.70
  -3  -4  -8  128.99   21.80
   3   4   8  154.78   32.60
  -4  -4  -8   53.59   22.10
   4   4   8   80.69   30.50
  -5  -4  -8  417.86   45.00
   5   4   8  297.77   47.80
  -6  -4  -8   -5.00   26.50
   6   4   8   43.20   36.60
  -7  -4  -8  108.99   37.00
   7   4   8   27.60   39.70
  -8  -4  -8  -21.70   38.50
   8   4   8  -14.40   39.40
  -9  -4  -8    4.40   42.80
   9  -5  -8   25.80   33.00
  -9   5   8   -2.50   35.40
   8  -5  -8  106.99   37.80
  -8   5   8  142.69   41.20
   7  -5  -8  183.18   37.10
  -7   5   8  130.89   40.70
   6  -5  -8  173.48   34.60
  -6   5   8  198.08   37.80
   5  -5  -8   80.99   26.90
   5  -5  -8   61.89   26.50
  -5   5   8   28.30   27.60
   4  -5  -8  251.37   35.00
   4  -5  -8  201.98   33.80
  -4   5   8  185.28   34.00
   3  -5  -8  159.88   24.10
   3  -5  -8   46.50   25.10
  -3   5   8  104.69   24.10
  -3   5   8   64.49   20.80
   2  -5  -8    6.00   18.60
   2  -5  -8   23.50   17.20
  -2   5   8    2.20   17.20
   1  -5  -8  767.92   60.29
   1  -5  -8  756.52   68.19
   1  -5  -8  879.61   64.19
  -1   5   8  857.91   60.19
   0  -5  -8   11.80   12.80
   0  -5  -8    9.70   18.80
   0  -5  -8   -7.10   23.00
  -1  -5  -8   77.69   26.60
  -1  -5  -8   71.09   14.20
  -2  -5  -8  321.77   44.40
  -2  -5  -8  303.57   32.40
   2   5   8  337.37   41.90
  -3  -5  -8   -7.90   15.30
  -3  -5  -8  -50.09   17.70
   3   5   8    6.00   26.90
  -4  -5  -8  134.79   27.40
   4   5   8  181.98   40.50
  -5  -5  -8   22.70   24.90
   5   5   8   -1.70   32.40
  -6  -5  -8  150.18   35.30
   6   5   8   14.00   36.70
  -7  -5  -8   30.70   37.60
   7   5   8    3.00   33.20
  -8  -5  -8  -13.20   36.50
   8   5   8   41.70   42.70
   9  -6  -8  133.39   43.70
  -9   6   8   37.50   38.10
   8  -6  -8   43.20   34.30
  -8   6   8   12.50   34.00
   7  -6  -8  383.86   50.89
  -7   6   8  323.37   51.59
   6  -6  -8   75.59   29.90
  -6   6   8   78.79   33.20
   5  -6  -8  543.95   54.09
   5  -6  -8  451.45   51.29
  -5   6   8  541.65   55.99
   4  -6  -8  203.68   32.50
  -4   6   8  202.18   34.60
   3  -6  -8  316.87   38.60
   3  -6  -8  394.76   42.50
  -3   6   8  361.26   40.70
   2  -6  -8  331.07   36.80
   2  -6  -8  393.86   43.80
  -2   6   8  417.76   39.30
   1  -6  -8  -41.40   25.30
   1  -6  -8    7.30   14.70
   1  -6  -8   27.90   19.80
  -1   6   8   29.90   17.90
   0  -6  -8  587.24   48.20
   0  -6  -8  673.83   64.79
   0  -6  -8  642.44   53.89
  -1  -6  -8  207.68   23.00
  -2  -6  -8  133.19   20.00
  -2  -6  -8  129.79   24.00
   2   6   8  190.98   39.40
  -3  -6  -8  157.98   27.30
  -3  -6  -8  116.49   23.80
   3   6   8  129.29   34.40
  -4  -6  -8    1.10   22.90
   4   6   8   47.50   34.50
  -5  -6  -8   51.19   28.00
   5   6   8   67.39   36.10
  -6  -6  -8   72.99   31.50
   6   6   8   21.00   37.30
  -7  -6  -8   68.99   45.60
   7   6   8  -24.00   35.40
  -8  -6  -8   59.49   42.50
   8   6   8  -19.30   39.90
   8  -7  -8  174.28   41.10
  -8   7   8  158.08   45.30
   7  -7  -8   36.00   30.80
  -7   7   8   34.60   32.90
   6  -7  -8   17.60   26.90
  -6   7   8   65.29   31.60
   5  -7  -8   67.49   26.70
  -5   7   8   37.30   28.70
   4  -7  -8  -14.70   20.80
   4  -7  -8  -36.60   19.00
  -4   7   8  -51.89   23.50
   3  -7  -8  851.01   70.19
   3  -7  -8  821.62   70.69
  -3   7   8  969.20   71.99
   2  -7  -8   43.80   23.00
   2  -7  -8   26.70   20.30
  -2   7   8   48.40   22.80
   1  -7  -8  753.02   61.19
   1  -7  -8  861.61   65.69
  -1   7   8  818.62   62.79
   0  -7  -8   45.90   16.40
   0  -7  -8   52.89   24.10
  -1  -7  -8  345.67   34.20
  -2  -7  -8   92.89   25.70
  -2  -7  -8  107.89   19.80
   2   7   8  142.09   35.10
  -3  -7  -8  -17.80   17.40
  -3  -7  -8   42.30   24.20
   3   7   8    0.90   28.90
  -4  -7  -8  -13.60   26.40
  -4  -7  -8  -18.10   20.80
   4   7   8  -18.10   31.10
  -5  -7  -8   48.20   29.90
   5   7   8   19.50   35.90
  -6  -7  -8    6.50   30.90
   6   7   8   15.80   38.60
  -7  -7  -8   -4.80   35.30
   7   7   8   12.90   39.80
   8  -8  -8    4.60   34.90
  -8   8   8   81.09   38.50
   7  -8  -8   16.10   30.30
  -7   8   8   49.80   34.50
   6  -8  -8  -47.10   25.40
  -6   8   8   31.60   32.00
   5  -8  -8   48.10   27.00
  -5   8   8    0.80   29.10
   4  -8  -8  435.06   49.30
   4  -8  -8  340.57   46.40
  -4   8   8  519.65   52.09
   3  -8  -8  153.48   28.90
   3  -8  -8   43.20   23.20
  -3   8   8   71.09   27.90
   2  -8  -8  895.21   71.99
   2  -8  -8  929.21   74.49
  -2   8   8  939.01   73.29
   1  -8  -8   75.89   20.90
   1  -8  -8  145.39   27.10
  -1   8   8  119.29   24.40
   0  -8  -8  866.31   65.59
   0  -8  -8  694.43   59.19
  -1  -8  -8   82.99   20.00
  -1  -8  -8  153.78   27.80
  -2  -8  -8  216.08   30.90
  -2  -8  -8  151.58   24.50
  -3  -8  -8   25.20   28.00
  -3  -8  -8   63.19   22.50
   3   8   8   42.00   33.00
  -4  -8  -8   58.49   24.70
  -4  -8  -8   27.30   30.00
   4   8   8   52.49   35.00
  -5  -8  -8   38.90   31.70
  -5  -8  -8  -33.50   34.40
   5   8   8   34.20   36.30
  -6  -8  -8   21.90   33.30
   6   8   8  -25.40   35.10
  -7  -8  -8   28.50   37.20
   7   8   8   10.60   42.90
   8  -9  -8   15.40   50.29
   7  -9  -8   84.29   37.70
  -7   9   8   62.19   36.00
   6  -9  -8  136.89   35.50
  -6   9   8  169.08   42.00
   5  -9  -8  415.16   50.29
  -5   9   8  396.06   51.09
   4  -9  -8   29.00   26.00
   4  -9  -8   22.10   23.60
  -4   9   8  -19.50   28.30
   3  -9  -8  464.15   54.89
   3  -9  -8  704.53   58.89
  -3   9   8  646.34   59.29
   2  -9  -8  245.48   37.50
   2  -9  -8  164.28   29.90
  -2   9   8  266.87   35.90
   1  -9  -8  415.26   45.50
   1  -9  -8  343.17   39.10
  -1   9   8  411.86   44.90
   0  -9  -8  128.89   30.00
   0  -9  -8   98.59   22.10
  -1  -9  -8  141.69   24.00
  -1  -9  -8  203.98   33.40
  -2  -9  -8   95.19   22.20
  -2  -9  -8  110.59   31.50
  -3  -9  -8  -10.60   28.30
  -3  -9  -8  -12.40   19.40
   3   9   8   22.80   32.40
  -4  -9  -8  113.29   31.00
  -4  -9  -8  230.18   41.60
   4   9   8  161.48   42.40
  -5  -9  -8   37.30   27.30
  -5  -9  -8   74.89   35.70
   5   9   8   25.40   34.60
   6   9   8   24.90   38.50
   7 -10  -8   35.40   34.30
  -7  10   8   49.80   37.80
   6 -10  -8  210.88   40.20
  -6  10   8  193.38   44.30
   5 -10  -8   39.00   29.00
  -5  10   8   78.99   35.10
   4 -10  -8  347.87   45.30
  -4  10   8  363.66   57.69
   3 -10  -8   22.40   23.20
   3 -10  -8   59.49   27.10
  -3  10   8   17.70   26.80
   2 -10  -8  558.14   54.99
  -2  10   8  520.55   55.99
   1 -10  -8  105.59   24.60
   1 -10  -8  236.58   34.70
  -1  10   8  176.38   31.50
   0 -10  -8  151.28   26.00
   0 -10  -8  203.68   35.40
  -1 -10  -8  375.36   42.80
  -1 -10  -8  223.58   31.40
  -2 -10  -8   96.89   28.40
  -2 -10  -8   45.80   21.70
  -2 -10  -8   66.19   32.00
  -3 -10  -8  102.59   36.80
  -3 -10  -8   71.79   24.50
  -4 -10  -8   21.90   36.40
  -4 -10  -8   -6.60   25.00
   4  10   8   22.00   35.00
  -5 -10  -8    3.40   29.60
  -5 -10  -8   40.00   36.30
   5  10   8   -7.60   35.90
  -6 -10  -8   30.20   38.20
   6  10   8   -9.20   39.30
   6 -11  -8   98.59   37.10
  -6  11   8  129.89   43.10
   5 -11  -8  173.58   37.70
  -5  11   8  174.68   42.30
   4 -11  -8   13.10   27.10
  -4  11   8   24.80   30.30
   3 -11  -8  108.09   30.80
  -3  11   8   52.59   30.10
   2 -11  -8   39.20   27.30
   2 -11  -8   11.50   19.50
  -2  11   8   16.60   27.70
   1 -11  -8   96.39   26.80
   1 -11  -8  124.99   32.70
  -1  11   8  113.69   30.20
   0 -11  -8   85.29   26.70
   0 -11  -8  160.58   32.60
  -1 -11  -8   85.69   23.20
  -1 -11  -8   39.10   29.00
  -2 -11  -8  150.88   39.90
  -2 -11  -8  223.08   37.60
  -3 -11  -8    5.10   24.30
  -3 -11  -8   46.60   37.40
  -4 -11  -8   -7.00   39.00
  -4 -11  -8    7.90   27.20
   5  11   8   63.29   40.30
   6 -12  -8   90.99   56.49
  -6  12   8   60.99   35.80
   5 -12  -8   52.59   31.30
  -5  12   8   36.30   34.90
   4 -12  -8   38.60   29.30
  -4  12   8   -0.60   30.20
   3 -12  -8   32.00   27.00
  -3  12   8    6.50   28.50
   2 -12  -8   64.19   28.70
  -2  12   8   57.39   30.30
   1 -12  -8   46.70   29.50
   1 -12  -8   13.80   21.50
  -1  12   8   92.69   28.50
   0 -12  -8   31.90   21.30
   0 -12  -8    4.40   25.80
  -1 -12  -8  217.68   35.40
  -1 -12  -8   94.99   27.00
  -2 -12  -8    2.80   21.80
  -2 -12  -8   47.00   38.70
  -2 -12  -8   84.69   31.30
  -3 -12  -8   71.89   29.10
  -3 -12  -8   48.40   40.00
  -3 -12  -8   49.30   26.00
   5 -13  -8  -40.40   39.20
   4 -13  -8   35.30   30.50
  -4  13   8  -35.90   30.70
   3 -13  -8   65.29   29.60
  -3  13   8   33.80   31.90
   2 -13  -8   15.90   27.10
  -2  13   8    3.70   29.50
   1 -13  -8  114.19   32.50
   0 -13  -8   19.90   23.20
   0 -13  -8   38.90   29.80
  -1 -13  -8   19.00   29.60
  -1 -13  -8    9.00   22.60
  -2 -13  -8   96.29   43.10
  -2 -13  -8  123.79   33.60
  -2 -13  -8   16.80   26.90
  -3 -13  -8   20.90   31.80
   3 -14  -8   36.00   30.10
  -3  14   8   59.49   36.70
   2 -14  -8    9.80   27.90
  -2  14   8   29.70   32.20
   1 -14  -8   59.79   33.20
   0 -14  -8   16.70   30.30
  -1 -14  -8   90.69   34.10
  -1 -20   9   94.49   17.70
   0 -20   9  -25.10   22.40
   0 -20   9   17.80   17.00
   1 -20   9   19.00   26.80
   1 -20   9   60.89   19.30
  -2  20  -9  272.17   55.39
   2 -20   9  313.97   36.00
   2 -20   9  184.78   51.59
   3 -20   9   12.60   25.60
  -1 -19   9   47.10   13.60
   0 -19   9  151.58   20.90
   0 -19   9   79.59   25.10
   1 -19   9   93.79   21.70
   1 -19   9   38.60   26.50
  -2  19  -9   43.00   36.70
   2 -19   9   49.20   21.60
  -3  19  -9  106.89   40.20
  -3  19  -9   94.09   22.80
   3 -19   9  125.69   27.60
  -4  19  -9  -22.90   37.60
   4 -19   9  -12.40   24.60
  -4 -18   9  -27.60   47.40
   0 -18   9  139.89   25.90
   0 -18   9  165.88   20.70
   1 -18   9  284.17   31.60
   1 -18   9  265.27   35.30
  -2  18  -9   49.20   34.40
   2 -18   9   32.10   19.10
  -3  18  -9   53.59   17.90
  -3  18  -9   41.50   36.50
   3 -18   9   40.20   24.00
  -4  18  -9   35.40   37.10
  -5  18  -9   -3.60   36.90
   5 -18   9   23.20   27.60
  -5 -17   9  111.09   19.70
  -5 -17   9   52.69   50.79
  -4 -17   9   48.80   45.10
   0 -17   9   24.70   20.20
   0 -17   9  121.19   17.00
  -1  17  -9  -17.50   32.30
   1 -17   9   20.90   16.60
   1 -17   9   -6.70   20.10
  -2  17  -9   33.00   32.70
  -2  17  -9    6.40   13.20
   2 -17   9   18.00   18.90
  -3  17  -9   24.40   22.30
  -3  17  -9  -57.99   27.90
   3 -17   9  -10.10   20.30
  -4  17  -9   63.89   37.10
  -4  17  -9   69.49   20.50
   4 -17   9  119.79   28.70
  -5  17  -9   62.69   37.00
   5 -17   9   54.49   30.80
  -6  17  -9   65.49   33.70
   6 -17   9   29.00   31.00
  -6 -16   9  155.58   58.09
  -6 -16   9  134.59   21.80
  -5 -16   9   52.09   15.60
  -5 -16   9   14.80   45.00
  -4 -16   9  350.86   62.19
   0 -16   9   34.70   14.90
  -1  16  -9   40.00   31.80
   1 -16   9    9.90   14.40
  -2  16  -9   73.09   32.70
  -2  16  -9   26.50   13.20
   2 -16   9   28.30   18.30
  -3  16  -9   53.09   16.20
  -3  16  -9   50.79   33.90
   3 -16   9   97.99   23.60
  -4  16  -9  140.29   22.80
  -4  16  -9  176.58   43.20
   4 -16   9  190.18   33.30
  -5  16  -9   83.79   34.90
   5 -16   9  108.89   30.70
  -6  16  -9   18.70   35.20
   6 -16   9  -14.10   27.80
  -7  16  -9   56.39   40.20
   7 -16   9   62.39   39.30
  -6 -15   9   27.40   14.90
  -6 -15   9  -33.60   41.80
  -5 -15   9  269.17   57.49
  -5 -15   9  251.77   26.60
  -4 -15   9   36.80   39.00
  -3 -15   9  174.98   45.60
  -1  15  -9   33.10   30.80
   1 -15   9   37.20   14.40
  -2  15  -9  -34.90   27.30
  -2  15  -9   12.00   12.10
   2 -15   9   22.80   16.90
  -3  15  -9  119.19   35.20
  -3  15  -9   70.99   16.80
   3 -15   9   73.19   22.50
  -4  15  -9   48.50   15.70
  -4  15  -9   10.50   30.90
   4 -15   9   31.30   24.30
  -5  15  -9  -10.00   33.10
   5 -15   9  -19.20   25.40
  -6  15  -9   77.99   37.80
   6 -15   9   47.10   31.20
  -7  15  -9   13.70   33.60
   7 -15   9  -20.20   29.40
   7  14  -9   -9.50   25.00
  -7 -14   9  -26.40   42.70
  -7 -14   9   46.20   18.10
   6  14  -9  361.66   40.10
  -6 -14   9  377.26   35.10
  -6 -14   9  312.17   65.19
  -5 -14   9  -35.90   38.20
  -5 -14   9   13.40   11.60
  -4 -14   9  509.25   68.89
  -3 -14   9   59.69   37.10
  -1  14  -9   51.29   29.80
   1 -14   9   78.39   16.00
  -2  14  -9   98.19   15.50
  -2  14  -9  118.59   34.50
   2 -14   9  100.29   20.10
  -3  14  -9  114.89   18.70
  -3  14  -9  104.19   33.20
   3 -14   9  114.79   23.60
  -4  14  -9    6.60   30.30
  -4  14  -9   19.60   15.30
   4 -14   9   41.50   22.20
  -5  14  -9    6.20   30.50
  -6  14  -9   11.30   32.00
   6 -14   9   -4.90   27.70
  -7  14  -9  130.29   41.30
   7 -14   9   87.99   36.80
  -8  14  -9   38.00   40.50
   8 -14   9   57.99   37.80
   7  13  -9  291.27   41.40
  -7 -13   9  261.87   32.30
  -7 -13   9  423.56   65.99
   6  13  -9  -16.20   21.10
  -6 -13   9   21.60   13.90
  -6 -13   9   30.50   40.90
   5  13  -9  122.99   21.80
  -5 -13   9  133.19   17.60
  -5 -13   9  181.48   46.00
  -4 -13   9  206.68   43.70
  -3 -13   9  133.89   38.30
  -1  13  -9  105.99   16.80
  -1  13  -9  146.89   33.20
   1 -13   9  112.29   17.00
  -2  13  -9   52.19   27.90
  -2  13  -9   45.40   11.70
   2 -13   9   39.90   16.70
  -3  13  -9   23.40   12.80
  -3  13  -9    5.40   26.80
   3 -13   9   23.40   18.50
  -4  13  -9  -14.60   26.40
  -4  13  -9   16.30   16.00
   4 -13   9   -7.30   20.50
  -5  13  -9   91.89   33.30
  -5  13  -9  123.29   27.40
   5 -13   9   89.69   29.30
  -6  13  -9   66.39   34.70
   6 -13   9   85.49   33.70
  -7  13  -9   29.90   33.20
   7 -13   9   83.49   35.50
  -8  13  -9  128.29   41.20
   8 -13   9   95.99   40.70
   8  12  -9  174.98   40.30
  -8 -12   9  194.68   29.20
  -8 -12   9  144.29   54.09
   7  12  -9  -19.20   24.00
  -7 -12   9   15.10   40.10
  -7 -12   9   13.80   16.00
   6  12  -9  306.47   36.30
  -6 -12   9  290.77   31.10
  -6 -12   9  260.57   52.69
   5  12  -9   96.49   20.30
  -5 -12   9  109.69   16.20
  -5 -12   9  197.78   46.20
  -4 -12   9  134.19   40.20
  -3 -12   9  431.06   54.69
   0 -12   9  -11.80   20.00
  -1  12  -9  164.68   21.60
  -1  12  -9  126.39   31.60
   1 -12   9  147.39   18.80
   1 -12   9   84.39   25.60
  -2  12  -9  337.17   28.20
  -2  12  -9  286.97   42.40
   2 -12   9  340.47   32.30
  -3  12  -9   39.60   45.80
  -3  12  -9   73.69   15.10
   3 -12   9   65.69   19.50
  -4  12  -9  180.28   28.00
  -4  12  -9  104.69   32.90
   4 -12   9  168.48   29.10
  -5  12  -9    6.50   28.50
  -5  12  -9   31.50   16.10
   5 -12   9  -12.50   23.90
  -6  12  -9   47.30   31.80
   6 -12   9   84.19   30.40
  -7  12  -9   51.99   36.10
   7 -12   9   74.89   34.20
  -8  12  -9   83.19   39.40
   8 -12   9    2.90   33.90
   8  11  -9   63.09   33.00
  -8 -11   9   21.30   18.60
  -8 -11   9   53.79   46.30
   7  11  -9   80.99   30.90
  -7 -11   9    1.90   40.50
  -7 -11   9   76.89   19.50
   6  11  -9  -33.50   19.60
  -6 -11   9   14.60   14.10
  -6 -11   9    8.50   35.30
   5  11  -9   -6.60   16.90
  -5 -11   9   13.70   30.30
  -5 -11   9   17.40   10.80
  -4 -11   9  415.26   56.09
  -3 -11   9  572.24   63.39
  -2 -11   9  191.98   35.70
  -1 -11   9  126.69   26.30
   0 -11   9   -2.50   20.10
  -1  11  -9  660.43   57.09
  -1  11  -9  575.44   41.60
   1 -11   9  532.45   53.69
  -2  11  -9    9.60    9.60
  -2  11  -9  -29.80   22.40
   2 -11   9   -2.60   19.70
   2 -11   9   -5.30   14.00
  -3  11  -9  506.45   43.20
  -3  11  -9  587.94   56.39
   3 -11   9  573.74   47.90
   3 -11   9  522.65   53.29
  -4  11  -9   17.90   15.30
   4 -11   9   22.70   21.90
  -5  11  -9  106.49   22.50
  -5  11  -9  139.99   35.50
   5 -11   9  129.79   30.20
  -6  11  -9  248.18   43.10
   6 -11   9  184.38   37.70
  -7  11  -9   96.49   36.10
   7 -11   9  -23.00   32.40
  -8  11  -9  130.29   39.90
   8 -11   9  112.39   41.10
  -9  11  -9  -18.80   36.30
   9 -11   9   39.10   39.20
   8  10  -9    6.90   31.80
  -8 -10   9    4.90   41.30
  -8 -10   9   41.70   21.10
   7  10  -9  -16.00   25.90
  -7 -10   9    1.10   15.90
  -7 -10   9   15.50   38.10
   6  10  -9   47.20   23.30
  -6 -10   9  113.79   39.30
  -6 -10   9   50.49   14.80
   5  10  -9  573.94   47.40
  -5 -10   9  561.84   42.30
  -5 -10   9  506.25   62.79
   4  10  -9   55.69   18.90
  -4 -10   9   69.89   31.50
  -4 -10   9   64.79   11.00
  -3 -10   9  257.97   42.60
  -2 -10   9  349.96   41.40
  -1 -10   9  190.58   29.50
  -1  10  -9  106.29   12.50
  -1  10  -9   63.39   26.60
   1 -10   9   11.10   41.10
  -2  10  -9 1217.18   82.59
  -2  10  -9 1091.79   91.99
   2 -10   9 1173.28   93.79
   2 -10   9 1312.87   84.59
  -3  10  -9   25.50   14.00
  -3  10  -9   12.00   21.40
   3 -10   9    8.10   18.30
   3 -10   9    7.40   18.40
  -4  10  -9  918.71   75.09
  -4  10  -9  871.01   66.29
   4 -10   9  897.01   70.69
   4 -10   9  851.71   73.29
  -5  10  -9    8.00   28.30
  -5  10  -9   49.80   18.20
   5 -10   9   31.40   24.90
  -6  10  -9   43.10   32.20
   6 -10   9   95.79   33.60
  -7  10  -9   53.19   32.50
   7 -10   9   18.70   32.40
  -8  10  -9    5.30   35.60
   8 -10   9   -5.60   31.80
  -9  10  -9   40.40   41.70
   9 -10   9   58.69   38.80
   9   9  -9    2.20   35.00
  -9  -9   9   72.49   48.90
   8   9  -9  -14.00   30.30
  -8  -9   9  -59.79   37.00
   7   9  -9   41.60   27.60
  -7  -9   9  113.09   40.30
   6   9  -9  124.49   27.90
  -6  -9   9   81.69   39.10
  -6  -9   9  117.89   18.90
   5   9  -9   -5.10   18.10
  -5  -9   9  -11.80   27.10
  -5  -9   9    3.40    9.90
   4   9  -9    6.90   23.00
  -4  -9   9 -105.99   56.19
  -4  -9   9   12.60   12.00
  -3  -9   9  199.38   35.90
  -2  -9   9  350.96   39.60
  -1  -9   9  798.62   64.99
   0  -9   9  -21.70   15.10
  -1   9  -9 1419.66  100.59
  -1   9  -9 1345.77   90.49
   1  -9   9 1343.37   99.59
  -2   9  -9   16.90   11.70
  -2   9  -9   14.70   18.10
   2  -9   9  -18.60   15.00
  -3   9  -9  751.62   60.89
  -3   9  -9  678.13   53.09
   3  -9   9  703.93   66.19
   3  -9   9  641.34   55.89
  -4   9  -9   -4.40   22.10
  -4   9  -9    8.90   15.80
   4  -9   9  -10.00   18.10
   4  -9   9   -7.30   21.80
  -5   9  -9  887.41   70.09
  -5   9  -9  919.01   76.09
   5  -9   9  988.40   74.59
   5  -9   9  790.32   75.59
  -6   9  -9  128.99   35.30
   6  -9   9  141.79   35.10
  -7   9  -9   33.60   30.20
   7  -9   9  -22.70   29.90
  -8   9  -9  183.18   44.20
   8  -9   9  129.29   42.90
  -9   9  -9   61.89   41.80
   9  -9   9  -31.20   35.50
   9   8  -9   43.60   38.10
  -9  -8   9   10.60   42.30
   8   8  -9  -27.10   28.60
  -8  -8   9  -11.80   35.90
   7   8  -9   22.90   25.50
  -7  -8   9   18.70   17.10
  -7  -8   9   15.50   35.20
   6   8  -9  -56.49   22.00
  -6  -8   9   -9.10   32.20
  -6  -8   9   19.20   13.50
   5   8  -9  115.99   21.40
  -5  -8   9   71.69   13.80
  -5  -8   9   53.59   33.90
   4   8  -9   65.09   16.70
  -4  -8   9   69.39   11.50
  -4  -8   9   81.99   27.30
  -3  -8   9   21.90   24.10
  -2  -8   9  670.93   60.89
  -1  -8   9   42.40   16.80
   0  -8   9  774.62   62.79
  -1   8  -9   48.20   18.40
  -1   8  -9   40.80   12.60
   1  -8   9   25.90   14.30
   1  -8   9   51.99   20.00
  -2   8  -9 1081.29   75.79
  -2   8  -9 1047.40   82.19
   2  -8   9 1153.28   77.59
   2  -8   9 1071.29   81.49
  -3   8  -9   37.70   14.80
  -3   8  -9   18.50   19.90
   3  -8   9   29.80   19.50
   3  -8   9   44.60   18.00
  -4   8  -9  522.55   52.99
  -4   8  -9  528.05   47.80
   4  -8   9  666.13   83.09
   4  -8   9  599.34   52.69
  -5   8  -9   42.00   20.50
  -5   8  -9   74.39   25.10
   5  -8   9   66.69   24.70
   5  -8   9   30.20   25.60
  -6   8  -9  676.73   88.09
   6  -8   9  607.64   63.09
  -7   8  -9   84.59   34.00
   7  -8   9   59.39   34.40
  -8   8  -9   15.40   34.20
   8  -8   9  -47.00   33.70
  -9   8  -9   94.89   45.60
   9  -8   9  131.89   45.60
   9   7  -9   29.80   37.40
  -9  -7   9 -101.79   37.40
  -8  -7   9   13.30   38.90
   7   7  -9   13.60   24.90
  -7  -7   9   40.40   37.60
  -7  -7   9  -10.30   15.40
   6   7  -9   64.99   26.30
  -6  -7   9   35.00   17.10
  -6  -7   9  140.79   40.40
   5   7  -9   37.70   19.90
  -5  -7   9   -6.60   55.69
  -5  -7   9   56.49   13.10
   4   7  -9  271.07   27.00
  -4  -7   9  213.28   21.60
  -4  -7   9  223.88   37.40
   3   7  -9  655.63   48.60
  -3  -7   9  684.23   46.60
  -3  -7   9  744.23   61.99
  -2  -7   9  865.21   69.99
  -1  -7   9 1135.79   82.49
   0   7  -9   11.30    9.20
   0  -7   9   -1.00   14.60
   0  -7   9   27.90   10.50
  -1   7  -9  535.05   49.70
  -1   7  -9  526.25   44.50
   1  -7   9  563.04   42.50
   1  -7   9  518.45   48.00
  -2   7  -9  264.37   28.50
  -2   7  -9  253.77   31.20
   2  -7   9  249.68   30.30
   2  -7   9  260.57   29.40
  -3   7  -9  497.15   45.10
  -3   7  -9  442.86   40.80
   3  -7   9  459.65   43.70
   3  -7   9  420.36   44.40
  -4   7  -9   53.59   21.20
  -4   7  -9   22.20   18.20
   4  -7   9    4.20   17.10
   4  -7   9   -7.20   20.60
  -5   7  -9  244.38   33.70
  -5   7  -9  336.37   41.00
   5  -7   9  291.27   40.50
   5  -7   9  233.78   36.50
  -6   7  -9 1121.89   90.69
   6  -7   9 1107.89   92.19
   6  -7   9 1120.49   92.29
  -7   7  -9   33.90   32.40
   7  -7   9   -1.50   32.60
  -8   7  -9   54.49   36.00
   8  -7   9   35.00   37.80
  -9   7  -9  146.19   48.10
   9  -7   9   32.70   40.80
   9   6  -9   41.80   34.70
  -9  -6   9   44.00   42.70
   8   6  -9  -47.80   26.90
  -8  -6   9  -25.70   34.30
   7   6  -9   10.70   27.30
  -7  -6   9   52.59   18.20
  -7  -6   9   16.20   36.10
   6   6  -9   20.90   22.40
  -6  -6   9  -43.80   33.10
  -6  -6   9   27.00   14.30
   5   6  -9  323.07   33.60
  -5  -6   9  298.37   44.70
  -5  -6   9  281.97   27.80
   4   6  -9   54.89   14.60
  -4  -6   9   36.50   23.30
  -4  -6   9   52.09   11.20
   3   6  -9  209.08   21.70
  -3  -6   9  174.98   29.80
   2   6  -9  186.58   18.40
  -2  -6   9  218.38   29.80
   1   6  -9  415.26   29.40
   1   6  -9  384.16   31.10
  -1  -6   9  410.86   38.10
   0   6  -9  891.51   60.79
   0  -6   9  876.61   65.99
   0  -6   9  841.22   61.39
  -1   6  -9   80.29   16.30
  -1   6  -9   66.89   19.90
   1  -6   9   98.09   17.90
   1  -6   9   44.50   17.70
  -2   6  -9   84.69   19.60
  -2   6  -9  193.08   24.60
   2  -6   9   83.79   21.80
   2  -6   9  152.88   22.20
  -3   6  -9  358.76   36.10
  -3   6  -9  216.48   30.40
   3  -6   9  272.27   31.30
   3  -6   9  254.77   33.90
  -4   6  -9  303.07   38.00
  -4   6  -9  358.36   38.00
   4  -6   9  321.87   36.60
   4  -6   9  361.86   41.80
  -5   6  -9  240.68   34.40
  -5   6  -9  266.97   34.10
   5  -6   9  220.08   35.90
   5  -6   9  303.47   40.20
  -6   6  -9  114.29   33.00
   6  -6   9  116.19   35.70
   6  -6   9   99.49   31.60
  -7   6  -9  373.56   48.80
   7  -6   9  213.18   44.90
  -8   6  -9   -6.00   33.00
   8  -6   9  -39.20   33.90
  -9   6  -9   -9.50   37.50
   9  -6   9  -44.60   35.20
   9   5  -9   -7.80   30.70
  -9  -5   9   58.39   43.00
   8   5  -9    2.90   30.20
  -8  -5   9  -18.00   36.00
   7   5  -9   55.99   25.60
  -7  -5   9   37.00   17.50
  -7  -5   9   10.40   35.50
   6   5  -9  626.54   49.90
  -6  -5   9  516.15   59.79
  -6  -5   9  430.46   41.70
   5   5  -9   43.10   26.20
   5   5  -9   82.69   20.70
  -5  -5   9   73.09   14.20
  -5  -5   9   42.70   29.60
   4   5  -9 1713.33  114.09
  -4  -5   9 1648.94  112.29
  -4  -5   9 1726.33  123.29
   3   5  -9  332.87   28.30
  -3  -5   9  334.17   26.40
  -3  -5   9  230.58   33.80
   2   5  -9  739.93   55.59
  -2  -5   9  850.21   63.19
   1   5  -9  910.11   63.39
   1   5  -9  946.71   65.19
  -1  -5   9  905.71   68.49
  -1  -5   9  884.31   67.29
   0   5  -9   -9.40   18.50
   0  -5   9   24.70   13.60
   0  -5   9   25.70   13.30
  -1   5  -9  533.15   42.80
  -1   5  -9  481.55   42.00
   1  -5   9  493.15   42.70
   1  -5   9  510.25   42.20
  -2   5  -9  288.67   29.50
  -2   5  -9  162.28   25.30
   2  -5   9  217.18   27.70
   2  -5   9  193.68   24.30
  -3   5  -9  677.73   52.29
  -3   5  -9  640.44   52.79
   3  -5   9  661.23   55.99
   3  -5   9  596.74   51.39
  -4   5  -9 1179.18   83.39
  -4   5  -9 1066.39   84.09
   4  -5   9 1172.38   87.39
   4  -5   9 1058.49   82.49
  -5   5  -9  -30.40   22.50
  -5   5  -9    5.80   19.10
   5  -5   9   33.10   26.70
   5  -5   9  -32.90   19.70
  -6   5  -9  925.71   73.19
   6  -5   9  727.03   70.99
   6  -5   9  869.61   77.49
  -7   5  -9   51.09   51.19
   7  -5   9   36.40   35.00
  -8   5  -9   82.89   39.00
   8  -5   9   40.80   38.50
  -9   5  -9  111.59   47.90
   9  -5   9  109.79   42.40
   9   4  -9    0.20   32.70
  -9  -4   9   14.50   37.40
   8   4  -9  204.08   39.90
  -8  -4   9  158.28   44.20
   7   4  -9  332.47   41.30
  -7  -4   9  365.56   53.59
  -7  -4   9  302.47   34.40
   6   4  -9  136.59   26.40
  -6  -4   9   89.69   36.20
  -6  -4   9   98.19   28.10
   5   4  -9  604.34   47.20
   5   4  -9  571.24   55.29
  -5  -4   9  567.74   57.99
  -5  -4   9  500.05   43.20
   4   4  -9  234.08   36.10
   4   4  -9  317.67   29.60
  -4  -4   9  279.47   25.90
  -4  -4   9  257.17   39.90
   3   4  -9  776.42   63.29
   3   4  -9  842.52   56.99
  -3  -4   9  751.72   55.49
  -3  -4   9  803.12   65.59
   2   4  -9  437.96   33.70
  -2  -4   9  411.46   41.70
   1   4  -9  546.55   40.90
   1   4  -9  562.64   43.70
  -1  -4   9  583.24   46.40
   0   4  -9   20.30   13.30
   0  -4   9   27.20   14.30
   0  -4   9   13.50   11.70
  -1   4  -9  754.52   59.69
  -1   4  -9  847.72   58.09
   1  -4   9  773.52   58.59
   1  -4   9  805.52   60.19
  -2   4  -9  330.07   35.30
  -2   4  -9  370.46   32.40
   2  -4   9  315.97   31.40
   2  -4   9  363.46   37.20
  -3   4  -9  775.72   60.79
  -3   4  -9  757.02   57.59
   3  -4   9  748.33   57.59
   3  -4   9  761.82   62.39
  -4   4  -9  100.59   21.80
  -4   4  -9   38.90   35.00
   4  -4   9  102.69   22.50
   4  -4   9  108.79   27.40
  -5   4  -9  450.65   49.00
  -5   4  -9  548.45   48.30
   5  -4   9  534.05   55.09
   5  -4   9  452.25   47.70
  -6   4  -9   29.00   26.70
   6  -4   9    3.40   27.50
   6  -4   9  -11.10   28.30
  -7   4  -9   84.09   35.10
   7  -4   9   86.09   35.30
  -8   4  -9   78.59   40.00
   8  -4   9   72.09   39.00
  -9   4  -9   27.00   42.80
   9  -4   9   22.40   41.20
  10   3  -9  -69.49   33.40
 -10  -3   9   29.00   47.40
   9   3  -9  160.68   39.40
  -9  -3   9  141.99   48.70
   8   3  -9   14.60   27.60
  -8  -3   9   10.30   37.00
   7   3  -9  105.59   28.60
  -7  -3   9   83.99   37.60
   6   3  -9  133.49   25.40
  -6  -3   9  121.99   19.80
  -6  -3   9   98.59   39.30
   5   3  -9  404.26   48.10
   5   3  -9  444.56   40.30
  -5  -3   9  519.15   53.09
  -5  -3   9  392.06   35.80
   4   3  -9  892.01   63.59
   4   3  -9  800.02   69.09
  -4  -3   9  814.22   71.39
  -4  -3   9  906.41   61.89
   3   3  -9  274.47   25.80
   3   3  -9  256.37   32.00
  -3  -3   9  217.98   32.50
  -3  -3   9  199.08   22.50
   2   3  -9  148.89   17.50
  -2  -3   9  134.59   23.30
   1   3  -9  493.45   38.20
   1   3  -9  493.55   41.40
  -1  -3   9  533.95   41.90
   0   3  -9   44.80   15.40
   0  -3   9   69.29   17.50
   0  -3   9   55.99   12.20
  -1   3  -9  257.27   27.50
   1  -3   9  242.28   23.40
   1  -3   9  215.48   28.70
  -2   3  -9  112.59   23.70
  -2   3  -9  164.18   22.20
   2  -3   9  122.49   25.40
   2  -3   9  115.79   16.60
  -3   3  -9  103.29   18.30
  -3   3  -9  105.69   22.40
   3  -3   9  109.59   18.50
   3  -3   9  118.59   26.20
  -4   3  -9  486.05   42.30
  -4   3  -9  328.77   43.60
   4  -3   9  495.95   42.30
   4  -3   9  549.15   50.09
  -5   3  -9   87.49   25.10
  -5   3  -9  123.59   24.90
   5  -3   9  110.59   24.40
   5  -3   9  163.38   33.00
  -6   3  -9  184.48   34.20
   6  -3   9  114.29   39.60
   6  -3   9  126.29   35.40
  -7   3  -9  138.79   37.20
   7  -3   9  147.39   39.80
   7  -3   9   44.80   34.20
  -8   3  -9   17.30   37.50
   8  -3   9   34.10   36.60
  -9   3  -9   68.89   44.40
   9  -3   9  108.89   47.60
  10   2  -9  128.39   44.20
 -10  -2   9  165.28   56.09
   9   2  -9  -10.80   33.20
  -9  -2   9  -14.70   37.00
   8   2  -9  295.27   43.20
  -8  -2   9  219.68   49.99
   7   2  -9   45.70   34.80
  -7  -2   9   60.69   38.90
   6   2  -9  194.58   30.10
  -6  -2   9  179.28   24.20
   5   2  -9   37.50   17.40
   5   2  -9   -0.70   21.90
  -5  -2   9    6.20   23.20
  -5  -2   9   25.40   13.10
   4   2  -9  121.89   25.90
   4   2  -9   89.49   19.80
  -4  -2   9  132.79   29.10
  -4  -2   9  104.49   16.60
   3   2  -9  283.67   32.10
   3   2  -9  273.87   27.90
  -3  -2   9  289.67   33.30
  -3  -2   9  220.68   24.90
   2   2  -9   22.20   16.80
   2   2  -9   56.99   13.20
  -2  -2   9   93.59   19.20
   1   2  -9  704.23   49.60
   1   2  -9  677.83   52.69
  -1  -2   9  640.44   53.59
   0   2  -9  803.82   59.49
   0  -2   9  742.13   54.59
   0  -2   9  817.22   54.29
  -1   2  -9  143.49   22.60
   1  -2   9  191.68   24.20
  -2   2  -9  289.37   25.70
  -2   2  -9  339.37   35.40
   2  -2   9  259.47   33.30
   2  -2   9  294.97   26.50
  -3   2  -9   20.50   18.90
  -3   2  -9   39.30   12.40
   3  -2   9   36.50   20.20
   3  -2   9    9.40   13.10
  -4   2  -9   61.09   18.50
  -4   2  -9   11.50   19.60
   4  -2   9  -17.60   21.70
   4  -2   9   33.50   17.60
  -5   2  -9   29.30   21.60
   5  -2   9    3.60   21.00
   5  -2   9   12.20   25.80
  -6   2  -9   71.49   29.10
   6  -2   9   96.99   32.90
   6  -2   9   53.89   28.10
  -7   2  -9   21.10   28.40
   7  -2   9   31.90   34.50
   7  -2   9  -28.00   30.50
  -8   2  -9  232.98   47.20
   8  -2   9  171.38   46.60
  -9   2  -9   28.70   42.80
   9  -2   9  -45.20   37.50
  10   1  -9   34.70   36.80
 -10  -1   9   42.40   52.39
   9   1  -9  388.26   53.39
  -9  -1   9  339.07   61.29
   8   1  -9   11.50   27.50
  -8  -1   9  -33.00   35.20
   7   1  -9  589.44   56.09
  -7  -1   9  549.35   65.79
   6   1  -9  -21.50   19.40
  -6  -1   9   -1.30   36.20
  -6  -1   9    5.40   14.20
   5   1  -9  409.66   39.60
   5   1  -9  384.36   44.90
  -5  -1   9  304.17   37.90
  -5  -1   9  370.86   45.10
   4   1  -9   -6.00   15.00
   4   1  -9   16.70   19.40
  -4  -1   9   37.80   22.00
  -4  -1   9    8.20   11.60
   3   1  -9   53.59   17.60
   3   1  -9   21.50   14.30
  -3  -1   9   54.09   14.10
  -3  -1   9   25.50   19.50
   2   1  -9  328.57   33.10
   2   1  -9  313.37   30.20
  -2  -1   9  321.17   33.30
   1   1  -9 1199.78   87.69
   1   1  -9 1238.38   85.09
  -1  -1   9 1260.07   84.19
   0   1  -9   36.90   18.10
  -2   1  -9  210.68   28.80
   2  -1   9  186.08   28.20
  -3   1  -9   22.40   21.00
  -3   1  -9   86.89   19.80
   3  -1   9   70.39   15.40
   3  -1   9   69.99   25.10
  -4   1  -9   39.40   17.20
  -4   1  -9   18.50   21.90
   4  -1   9   70.09   17.70
   4  -1   9   35.10   25.20
  -5   1  -9  410.86   40.30
   5  -1   9  305.27   37.10
   5  -1   9  319.27   74.79
  -6   1  -9  150.88   32.90
   6  -1   9  129.99   33.50
   6  -1   9  132.89   37.20
  -7   1  -9  373.56   48.80
   7  -1   9  254.07   48.90
   7  -1   9  331.77   48.20
  -8   1  -9  141.99   44.60
   8  -1   9  135.19   46.00
  -9   1  -9  260.27   55.79
   9  -1   9  180.28   49.20
   9   0  -9  -13.30   31.50
  -9   0   9    1.40   40.10
   8   0  -9  488.45   57.99
  -8   0   9  615.14   72.89
   7   0  -9   -0.60   23.90
  -7   0   9   15.80   33.10
   6   0  -9  210.78   35.30
  -6   0   9  275.17   49.20
   5   0  -9   47.60   20.00
   5   0  -9   26.50   24.00
  -5   0   9   29.10   26.40
  -5   0   9   55.69   16.80
   4   0  -9   15.60   17.60
   4   0  -9   21.20   19.60
  -4   0   9   19.20   13.50
  -4   0   9   67.59   22.40
   3   0  -9   39.10   16.30
   3   0  -9   15.40   14.70
  -3   0   9    9.10   16.80
  -3   0   9   14.50   12.10
   2   0  -9  212.68   25.00
   2   0  -9  224.78   26.00
  -2   0   9  216.08   25.50
   1   0  -9   10.30   10.90
   1   0  -9   -6.80   13.00
   1   0  -9   10.90   17.90
  -1   0   9   -5.40   11.70
   0   0  -9  901.71   69.89
  -1   0  -9   24.80   18.00
   1   0   9   41.00   20.20
  -2   0  -9   33.40   19.60
   2   0   9   35.60   21.70
  -3   0  -9    1.90   19.40
  -3   0  -9   13.80   12.10
   3   0   9   20.70   21.70
   3   0   9   10.40   10.70
  -4   0  -9  311.57   40.60
  -4   0  -9  368.96   33.90
   4   0   9  318.07   42.90
   4   0   9  329.87   34.90
  -5   0  -9  272.87   32.40
   5   0   9  215.58   32.10
   5   0   9  258.47   40.20
  -6   0  -9  117.99   30.30
   6   0   9   18.30   28.10
   6   0   9  182.18   40.20
  -7   0  -9   59.19   34.60
   7   0   9   59.59   35.20
   7   0   9   14.70   36.30
  -8   0  -9  135.89   45.00
   8   0   9   73.09   40.90
  -9   0  -9   62.99   47.60
   9   0   9   94.69   45.90
   9  -1  -9  262.37   45.30
  -9   1   9  274.17   57.49
   8  -1  -9  -34.90   27.40
  -8   1   9  -52.59   31.80
   7  -1  -9  494.85   54.29
  -7   1   9  519.85   62.79
   6  -1  -9   33.20   23.20
  -6   1   9  -16.00   34.00
   5  -1  -9  437.66   47.40
   5  -1  -9  456.45   49.50
  -5   1   9  470.75   43.10
  -5   1   9  586.84   53.49
   4  -1  -9  103.59   25.30
   4  -1  -9  178.28   29.60
  -4   1   9  151.88   23.70
  -4   1   9  213.18   30.50
   3  -1  -9   27.00   17.30
   3  -1  -9   26.90   16.90
  -3   1   9    5.80   17.50
  -3   1   9    8.50   13.20
   2  -1  -9 1041.00   73.29
   2  -1  -9  980.70   73.59
  -2   1   9 1032.50   72.59
   1  -1  -9   24.80   18.10
   1  -1  -9   10.70   10.70
   1  -1  -9   -3.20   13.10
  -1   1   9    1.00    9.90
   0  -1  -9   37.30   19.50
  -1  -1  -9   59.89   21.30
   1   1   9   25.40   20.10
  -2  -1  -9  380.46   59.59
   2   1   9  526.05   48.80
  -3  -1  -9   22.90   20.90
  -3  -1  -9   16.00   10.80
   3   1   9   62.49   23.80
  -4  -1  -9  385.06   37.30
   4   1   9  376.36   36.10
   4   1   9  310.27   44.20
  -5  -1  -9   80.19   25.70
   5   1   9   84.89   25.40
   5   1   9  109.99   34.40
  -6  -1  -9   57.49   29.20
   6   1   9   80.89   29.40
   6   1   9   89.29   38.30
  -7  -1  -9   41.80   35.80
   7   1   9   88.59   38.90
   7   1   9   39.90   34.90
  -8  -1  -9   43.90   40.00
   8   1   9   61.79   43.40
  -9  -1  -9   -7.10   42.80
   9   1   9   12.50   39.10
   9  -2  -9  -16.50   31.30
  -9   2   9   -8.20   37.60
   8  -2  -9   62.79   35.40
  -8   2   9   59.79   38.50
   7  -2  -9  227.68   37.00
  -7   2   9  105.49   37.70
   6  -2  -9  122.89   30.00
   5  -2  -9  272.77   35.90
   5  -2  -9  226.98   37.10
  -5   2   9  291.07   39.30
   4  -2  -9  327.47   37.50
   4  -2  -9  356.86   38.90
  -4   2   9  303.47   32.70
  -4   2   9  304.87   38.10
   3  -2  -9  221.48   29.80
   3  -2  -9  274.77   31.20
  -3   2   9  217.48   28.40
  -3   2   9  273.47   28.90
   2  -2  -9  146.99   23.70
   2  -2  -9  157.28   21.60
  -2   2   9  134.19   20.60
   1  -2  -9   86.59   14.90
   1  -2  -9   55.49   22.30
   1  -2  -9   90.69   18.80
  -1   2   9   50.29   12.60
   0  -2  -9   76.19   18.30
   0  -2  -9   51.19   24.20
  -1  -2  -9   13.10   38.20
   1   2   9  117.89   25.30
  -2  -2  -9   82.99   23.60
   2   2   9   97.49   25.80
  -3  -2  -9   55.29   23.90
  -3  -2  -9   30.90   13.20
   3   2   9   12.70   25.20
  -4  -2  -9   -6.20   18.50
   4   2   9   15.20   29.40
  -5  -2  -9  135.69   27.80
   5   2   9  127.39   27.20
   5   2   9  145.49   38.30
  -6  -2  -9   27.70   27.10
   6   2   9    7.30   27.00
   6   2   9  -43.00   32.10
  -7  -2  -9   48.80   34.90
   7   2   9   40.90   34.60
   7   2   9   31.40   37.40
  -8  -2  -9   16.10   39.50
   8   2   9  -39.00   39.40
  -9  -2  -9   -9.70   43.50
   9   2   9  -48.00   38.00
   9  -3  -9  -26.90   30.50
  -9   3   9    6.90   37.00
   8  -3  -9   91.39   34.10
  -8   3   9   75.59   42.20
   7  -3  -9  215.48   39.30
  -7   3   9  246.28   44.20
   6  -3  -9   47.50   27.60
  -6   3   9   63.69   36.20
   5  -3  -9  281.27   38.10
   5  -3  -9  286.87   35.90
  -5   3   9  190.78   35.60
   4  -3  -9  653.83   59.69
   4  -3  -9  696.13   60.09
  -4   3   9  729.13   58.79
  -4   3   9  756.22   61.39
   3  -3  -9  317.37   34.10
   3  -3  -9  294.37   36.80
  -3   3   9  305.17   34.20
  -3   3   9  323.17   33.20
   2  -3  -9  177.68   29.40
   2  -3  -9  236.48   26.20
  -2   3   9  219.98   25.90
   1  -3  -9 1341.17   93.99
   1  -3  -9 1277.17   89.19
   1  -3  -9 1229.68   85.09
  -1   3   9 1181.88   85.29
   0  -3  -9  -17.20   16.40
   0  -3  -9  -67.99   23.50
  -1  -3  -9  518.15   54.09
   1   3   9  585.04   54.69
  -2  -3  -9  198.48   32.40
   2   3   9  228.38   35.70
  -3  -3  -9   49.40   23.40
   3   3   9   25.30   26.20
  -4  -3  -9  205.68   27.50
   4   3   9  167.78   37.00
  -5  -3  -9   12.60   22.20
   5   3   9   -9.50   27.80
  -6  -3  -9   13.20   29.80
   6   3   9   24.10   35.70
  -7  -3  -9   59.49   38.10
   7   3   9   -0.10   37.00
   7   3   9   27.20   32.80
  -8  -3  -9   -7.20   38.30
   8   3   9    7.70   39.80
   9  -4  -9   82.49   37.50
  -9   4   9   91.79   44.90
   8  -4  -9   35.80   32.30
  -8   4   9  -30.80   31.60
   7  -4  -9  408.26   50.39
  -7   4   9  266.07   48.40
   6  -4  -9    2.40   26.00
  -6   4   9   23.50   27.30
   5  -4  -9  242.38   36.10
   5  -4  -9  218.48   35.90
  -5   4   9  268.97   39.00
   4  -4  -9  767.02   66.49
   4  -4  -9  724.03   63.89
  -4   4   9  819.82   65.69
   3  -4  -9    3.50   20.00
   3  -4  -9    6.60   17.20
  -3   4   9   48.30   17.40
  -3   4   9   -7.50   19.70
   2  -4  -9  884.31   65.89
   2  -4  -9  863.31   69.19
  -2   4   9  898.01   65.69
   1  -4  -9   -5.80   24.80
   1  -4  -9   -5.20   19.70
  -1   4   9   39.00   16.00
   0  -4  -9  580.74   43.60
   0  -4  -9  578.34   57.99
   0  -4  -9  626.44   51.09
  -1  -4  -9  -36.40   23.00
  -2  -4  -9  125.89   14.90
   2   4   9  156.88   30.00
  -3  -4  -9    2.50   16.90
   3   4   9   12.60   29.00
  -4  -4  -9  146.89   24.60
   4   4   9   94.29   34.30
  -5  -4  -9   36.80   23.10
   5   4   9  -48.10   31.40
  -6  -4  -9    5.60   25.70
   6   4   9  -55.49   31.00
  -7  -4  -9   10.50   33.20
   7   4   9   15.60   37.80
  -8  -4  -9   40.70   40.40
   8   4   9   10.70   42.50
   9  -5  -9   -5.90   32.80
  -9   5   9   32.10   39.10
   8  -5  -9   23.90   33.40
  -8   5   9   -2.50   35.80
   7  -5  -9  134.49   36.20
  -7   5   9   77.79   39.10
   6  -5  -9   68.79   29.00
  -6   5   9  104.29   33.60
   5  -5  -9   16.50   22.70
   5  -5  -9   55.79   26.80
  -5   5   9   87.79   28.50
   4  -5  -9  199.78   32.80
   4  -5  -9  228.88   33.60
  -4   5   9  187.58   32.90
   3  -5  -9  591.14   52.09
   3  -5  -9  625.04   55.39
  -3   5   9  600.84   53.49
   2  -5  -9  -11.10   15.20
   2  -5  -9  -12.70   21.30
  -2   5   9  -25.00   16.00
   1  -5  -9 1667.53  115.29
   1  -5  -9 1610.74  119.29
   1  -5  -9 1855.41  136.89
  -1   5   9 1736.63  114.99
   0  -5  -9   31.90   25.50
   0  -5  -9    3.40   49.60
   0  -5  -9   29.10   14.90
  -1  -5  -9  226.88   23.20
  -2  -5  -9   12.80   11.10
   2   5   9   32.90   27.70
  -3  -5  -9   49.90   16.60
  -3  -5  -9   66.39   20.00
   3   5   9   27.80   27.60
  -4  -5  -9  -36.10   20.00
   4   5   9  -24.00   30.30
  -5  -5  -9    4.10   25.30
   5   5   9   -8.80   31.60
  -6  -5  -9   17.00   28.10
   6   5   9   51.89   38.80
  -7  -5  -9   74.69   36.40
   7   5   9    0.60   39.90
  -8  -5  -9   38.00   39.60
   8   5   9   48.80   41.50
   8  -6  -9  -41.50   31.00
  -8   6   9   22.10   33.80
   7  -6  -9  101.69   36.90
  -7   6   9  121.19   39.10
   6  -6  -9   -0.90   27.00
  -6   6   9   34.30   30.80
   5  -6  -9   35.80   24.20
   5  -6  -9    9.10   24.20
  -5   6   9   21.40   29.30
   4  -6  -9  587.34   72.39
   4  -6  -9  732.33   61.29
  -4   6   9  655.63   61.69
   3  -6  -9  102.59   25.80
   3  -6  -9   29.60   21.40
  -3   6   9   71.19   24.90
   2  -6  -9 1007.60   78.09
   2  -6  -9 1048.50   81.69
  -2   6   9 1120.29   78.89
   1  -6  -9   37.70   16.50
   1  -6  -9   35.70   24.60
  -1   6   9   92.69   19.00
   0  -6  -9 1093.19   79.09
   0  -6  -9  957.10   72.19
  -2  -6  -9  171.38   22.40
  -2  -6  -9  181.88   26.50
   2   6   9  174.18   36.40
  -3  -6  -9   66.69   22.50
  -3  -6  -9   86.99   19.70
   3   6   9   69.19   34.60
  -4  -6  -9   14.80   22.40
  -4  -6  -9   12.30   19.30
   4   6   9   -0.40   30.40
  -5  -6  -9  108.49   30.70
   5   6   9  105.09   38.90
  -6  -6  -9   51.89   32.50
   6   6   9   35.30   39.60
  -7  -6  -9   36.60   46.40
   7   6   9   12.80   37.90
   8  -7  -9  -13.80   29.10
  -8   7   9    6.30   33.70
   7  -7  -9   68.69   34.90
  -7   7   9   70.09   37.70
   6  -7  -9  142.09   34.50
  -6   7   9  212.18   41.10
   5  -7  -9  139.79   33.60
  -5   7   9  167.58   39.00
   4  -7  -9   13.40   19.30
   4  -7  -9   -0.20   21.30
  -4   7   9  -31.50   22.50
   3  -7  -9  370.66   42.70
   3  -7  -9  453.55   46.80
  -3   7   9  355.06   42.00
   2  -7  -9    8.10   19.00
   2  -7  -9   44.80   24.20
  -2   7   9   -1.90   20.60
   1  -7  -9  461.85   46.80
   1  -7  -9  659.23   52.89
  -1   7   9  572.34   49.00
   0  -7  -9   91.19   18.20
   0  -7  -9   99.69   26.20
  -1  -7  -9  242.38   28.30
  -1  -7  -9  387.66   39.10
  -2  -7  -9  150.58   26.60
  -2  -7  -9  110.79   18.90
  -3  -7  -9   -0.70   23.00
  -3  -7  -9   -5.40   16.70
   3   7   9  -29.80   29.30
  -4  -7  -9  116.19   28.10
  -4  -7  -9  162.88   32.90
   4   7   9  196.48   39.70
  -5  -7  -9   17.90   24.20
  -5  -7  -9   -6.30   27.90
   5   7   9   82.49   38.90
  -6  -7  -9  137.39   37.90
   6   7   9  116.59   44.50
  -7  -7  -9   20.40   39.80
   7   7   9   49.10   42.60
   8  -8  -9  -33.30   38.40
  -8   8   9  -15.30   34.90
   7  -8  -9  112.59   39.20
  -7   8   9   43.00   38.30
   6  -8  -9  248.78   44.90
  -6   8   9  368.66   50.89
   5  -8  -9  403.56   51.59
  -5   8   9  361.16   50.09
   4  -8  -9  338.07   41.20
   4  -8  -9  259.27   39.20
  -4   8   9  247.98   40.00
   3  -8  -9    7.40   20.60
   3  -8  -9   16.70   24.20
  -3   8   9   48.90   25.50
   2  -8  -9  428.06   47.10
   2  -8  -9  388.76   43.80
  -2   8   9  489.05   46.40
   1  -8  -9   50.69   23.90
   1  -8  -9   44.00   18.00
  -1   8   9   87.99   21.80
   0  -8  -9  140.49   23.50
   0  -8  -9  213.18   32.90
  -1  -8  -9  327.37   40.00
  -1  -8  -9  292.17   32.10
  -2  -8  -9   21.50   25.10
  -2  -8  -9   19.60   15.30
  -3  -8  -9  149.39   25.80
  -3  -8  -9  225.68   35.90
   3   8   9  217.98   41.90
  -4  -8  -9   68.39   26.10
  -4  -8  -9   92.29   30.20
   4   8   9  134.89   38.40
  -5  -8  -9   73.69   33.30
  -5  -8  -9   87.29   33.10
   5   8   9  130.59   43.50
  -6  -8  -9  -39.80   31.30
  -6  -8  -9    6.40   27.90
   6   8   9  -46.40   35.40
   7  -9  -9   17.90   33.50
  -7   9   9   13.20   32.30
   6  -9  -9   62.19   33.90
  -6   9   9   67.59   36.20
   5  -9  -9   52.19   31.20
  -5   9   9   35.40   31.60
   4  -9  -9  124.29   32.00
   4  -9  -9  113.99   33.10
  -4   9   9  115.89   33.70
   3  -9  -9  107.29   26.80
   3  -9  -9  173.58   32.50
  -3   9   9   98.29   29.70
   2  -9  -9   54.49   26.40
   2  -9  -9   37.00   19.60
  -2   9   9   59.69   24.30
   1  -9  -9  117.79   27.50
   1  -9  -9   33.70   18.40
  -1   9   9   35.80   22.40
   0  -9  -9   59.69   27.00
   0  -9  -9   13.50   16.30
  -1  -9  -9   26.70   26.40
  -1  -9  -9   39.80   17.40
  -2  -9  -9  235.48   38.70
  -2  -9  -9  361.86   40.10
  -2  -9  -9  159.28   27.00
  -3  -9  -9   55.99   30.60
  -3  -9  -9   45.60   21.70
  -4  -9  -9   49.10   30.00
  -4  -9  -9   20.70   24.10
   4   9   9   42.10   38.50
  -5  -9  -9   97.69   34.60
  -5  -9  -9   -0.20   27.50
   5   9   9   35.40   39.50
  -6  -9  -9   81.69   41.00
   6   9   9   48.50   40.40
   6 -10  -9  123.29   39.10
  -6  10   9  109.89   40.10
   5 -10  -9   47.90   31.10
  -5  10   9   86.49   34.10
   4 -10  -9   19.50   26.30
  -4  10   9  -17.90   30.00
   3 -10  -9  -10.30   20.00
   3 -10  -9    1.80   24.70
  -3  10   9   44.60   26.60
   2 -10  -9   79.59   29.40
   2 -10  -9   31.90   32.90
  -2  10   9   22.60   25.40
   1 -10  -9   10.40   25.00
   1 -10  -9   10.80   18.60
  -1  10   9   28.10   24.30
   0 -10  -9  -29.50   23.20
   0 -10  -9  -15.90   16.00
  -1 -10  -9  103.59   22.80
  -1 -10  -9   71.09   29.90
  -2 -10  -9   61.39   28.80
  -2 -10  -9   21.20   29.90
  -2 -10  -9   23.70   19.50
  -3 -10  -9   -2.60   30.00
  -3 -10  -9    9.20   20.70
  -4 -10  -9  100.99   39.00
   4  10   9   73.89   39.20
  -5 -10  -9    7.40   29.90
  -5 -10  -9   -4.40   31.50
   5  10   9   33.20   41.60
   6 -11  -9  -25.70   35.20
  -6  11   9   26.30   35.30
   5 -11  -9   12.30   31.00
  -5  11   9   -0.80   30.60
   4 -11  -9  122.59   34.20
  -4  11   9  118.29   35.50
   3 -11  -9   43.00   28.20
  -3  11   9   30.50   28.30
   2 -11  -9   46.10   26.80
   2 -11  -9   -2.70   20.10
  -2  11   9   42.10   27.90
   1 -11  -9    8.10   28.60
   1 -11  -9  -33.90   24.90
  -1  11   9    8.60   23.10
   0 -11  -9   31.60   27.50
   0 -11  -9   11.30   19.10
  -1 -11  -9    2.00   27.50
  -1 -11  -9   13.30   17.80
  -2 -11  -9   49.50   21.90
  -2 -11  -9   13.80   31.90
  -2 -11  -9   58.99   31.10
  -3 -11  -9    3.00   27.80
  -3 -11  -9   35.10   34.10
  -4 -11  -9   14.00   38.30
  -4 -11  -9  -10.80   25.50
   5 -12  -9    2.60   31.60
  -5  12   9   12.80   32.50
   4 -12  -9   16.50   29.20
  -4  12   9   34.20   31.10
   3 -12  -9   29.60   29.60
  -3  12   9    4.90   29.40
   2 -12  -9   97.39   32.70
  -2  12   9   84.49   32.80
   1 -12  -9   43.80   22.90
   1 -12  -9   39.80   30.00
   0 -12  -9    5.70   28.30
   0 -12  -9   23.00   20.90
  -1 -12  -9   26.50   23.80
  -1 -12  -9   63.39   29.00
  -2 -12  -9  -15.40   27.30
  -2 -12  -9   31.80   35.10
  -2 -12  -9   13.80   22.90
  -3 -12  -9  -26.30   28.70
  -3 -12  -9   16.90   39.70
  -3 -12  -9    8.30   22.50
   3 -13  -9   -4.00   28.20
  -3  13   9  -25.80   31.00
   2 -13  -9  -13.60   29.30
  -2  13   9   -2.60   28.20
   1 -13  -9   13.30   29.50
   0 -13  -9    4.60   28.90
   0 -13  -9   10.70   22.70
  -1 -13  -9   20.70   29.80
  -1 -13  -9   34.60   23.00
  -2 -13  -9   27.50   38.90
  -2 -13  -9    5.60   30.60
  -2 -13  -9   -2.20   22.70
   0 -20  10    4.30   14.40
   1 -20  10   18.80   23.80
   1 -20  10   33.10   18.60
  -2  20 -10   17.60   38.90
   2 -20  10   59.79   22.90
   3 -20  10  121.79   29.30
  -3 -19  10   74.59   60.69
   0 -19  10   72.09   19.80
   1 -19  10   26.40   17.60
   1 -19  10  -17.70   20.50
  -2  19 -10    3.20   37.90
   2 -19  10   16.50   19.60
  -3  19 -10   -2.30   16.40
  -3  19 -10    2.20   36.20
   3 -19  10   39.80   22.70
  -4  19 -10  -11.20   37.90
   4 -19  10  -15.00   28.20
  -4 -18  10  311.67   63.99
  -3 -18  10   58.99   45.20
   1 -18  10  102.19   20.10
   1 -18  10   17.30   21.90
  -2  18 -10   28.50   35.30
   2 -18  10   11.10   18.10
  -3  18 -10    0.80   33.00
   3 -18  10   42.50   21.90
  -4  18 -10  -28.50   33.30
   4 -18  10   25.20   26.30
  -5  18 -10    5.90   32.30
   5 -18  10   54.09   29.30
  -5 -17  10  393.86   73.29
  -4 -17  10   -3.30   45.30
  -3 -17  10  345.47   57.79
  -1  17 -10   65.69   38.20
   1 -17  10   34.10   16.40
  -2  17 -10   19.90   14.00
  -2  17 -10   94.19   38.70
   2 -17  10   46.10   20.10
  -3  17 -10   76.89   34.40
  -3  17 -10   59.39   16.60
   3 -17  10   62.99   23.80
  -4  17 -10    3.40   32.30
  -4  17 -10   30.20   15.70
   4 -17  10   66.59   25.90
  -5  17 -10    8.50   34.60
   5 -17  10   -6.40   25.60
  -6  17 -10  127.19   44.00
   6 -17  10   55.09   31.00
  -6 -16  10  235.48  100.19
  -6 -16  10  234.88   26.00
  -5 -16  10  -63.79   41.40
  -4 -16  10  367.86   61.79
  -3 -16  10  136.09   46.60
  -1  16 -10   57.49   34.90
   1 -16  10   16.30   15.10
  -2  16 -10   21.00   13.00
  -2  16 -10    2.00   30.10
   2 -16  10   57.29   19.20
  -3  16 -10    0.30   12.80
  -3  16 -10  -11.90   29.80
   3 -16  10   -9.70   19.20
  -4  16 -10   63.49   34.60
  -4  16 -10   22.80   15.80
   4 -16  10   -8.60   22.50
  -5  16 -10   47.80   35.60
   5 -16  10   21.90   29.00
  -6  16 -10   44.80   34.70
   6 -16  10   44.20   31.00
  -7  16 -10   11.50   35.90
   7 -16  10   63.79   35.50
  -6 -15  10    7.50   45.60
  -6 -15  10   15.90   11.50
  -5 -15  10  352.26   58.39
  -4 -15  10   59.99   43.00
  -3 -15  10  302.57   53.29
  -1  15 -10   49.70   31.60
   1 -15  10   46.40   15.20
  -2  15 -10    8.30   31.00
  -2  15 -10   21.10   12.10
   2 -15  10   44.20   18.30
  -3  15 -10   59.99   32.10
  -3  15 -10   26.70   15.50
   3 -15  10   27.90   22.20
  -4  15 -10   54.49   16.30
  -4  15 -10   23.20   32.80
   4 -15  10   17.60   23.40
  -5  15 -10   67.99   35.40
   5 -15  10  151.68   34.90
  -6  15 -10  202.28   43.30
   6 -15  10   89.39   33.30
  -7  15 -10   26.10   36.60
   7 -15  10   40.00   33.40
   7  14 -10   -3.10   22.30
  -7 -14  10  -53.39   45.10
  -7 -14  10   29.90   15.70
   6  14 -10  100.39   22.60
  -6 -14  10   79.19   15.40
  -6 -14  10   40.40   44.80
  -5 -14  10   61.09   44.00
  -4 -14  10   58.29   38.30
  -3 -14  10  444.86   59.79
  -1  14 -10  113.99   32.80
   1 -14  10  107.49   19.10
  -2  14 -10  118.09   34.00
  -2  14 -10   77.89   14.00
   2 -14  10  101.39   19.40
  -3  14 -10  -11.50   28.60
  -3  14 -10   25.00   13.00
   3 -14  10   35.50   20.10
  -4  14 -10  428.06   52.29
  -4  14 -10  278.47   33.30
   4 -14  10  379.96   43.40
  -5  14 -10   14.20   29.60
   5 -14  10   -0.90   31.60
  -6  14 -10   87.29   37.60
   6 -14  10   74.09   33.30
  -7  14 -10   -8.20   32.80
   7 -14  10   -6.40   29.00
  -8  14 -10  101.69   44.20
   8 -14  10   37.10   39.00
   7  13 -10   31.20   27.10
  -7 -13  10   74.89   17.60
  -7 -13  10  142.89   49.30
   6  13 -10  -15.10   19.30
  -6 -13  10   24.80   12.60
  -6 -13  10   16.50   40.40
  -5 -13  10    9.50   38.20
  -4 -13  10  247.78   48.80
  -3 -13  10  263.07   44.90
  -1  13 -10  581.54   47.20
  -1  13 -10  718.93   64.89
   1 -13  10  649.43   55.49
  -2  13 -10   -6.00   27.50
  -2  13 -10   39.70   10.90
   2 -13  10   48.00   16.10
  -3  13 -10  343.47   48.00
  -3  13 -10  335.37   32.90
   3 -13  10  389.26   39.00
  -4  13 -10   35.50   23.80
  -4  13 -10   12.30   28.30
   4 -13  10  -16.10   20.90
  -5  13 -10  338.77   49.00
  -5  13 -10  220.38   37.50
   5 -13  10  280.67   39.00
  -6  13 -10  145.69   40.50
   6 -13  10  150.78   36.40
  -7  13 -10  174.58   44.20
   7 -13  10  185.58   43.60
  -8  13 -10   67.29   38.40
   8 -13  10    0.80   35.00
   8  12 -10   -9.10   29.50
  -8 -12  10   20.50   56.79
  -8 -12  10   48.60   18.10
   7  12 -10   10.90   25.20
  -7 -12  10   36.50   14.80
  -7 -12  10  -24.30   41.20
   6  12 -10   -7.90   21.10
  -6 -12  10   34.20   37.20
  -6 -12  10    6.70   11.60
   5  12 -10  125.59   24.10
  -5 -12  10  179.08   44.70
  -4 -12  10   54.79   34.10
  -3 -12  10  491.85   58.59
   0 -12  10  643.84   82.59
  -1  12 -10   11.00   25.90
  -1  12 -10   37.70    9.50
   1 -12  10   40.40   27.20
  -2  12 -10 1362.56  104.29
  -2  12 -10 1274.47   90.29
   2 -12  10 1396.56   92.89
  -3  12 -10   37.50   13.50
  -3  12 -10   24.00   33.60
   3 -12  10   24.80   19.50
  -4  12 -10  322.27   46.70
  -4  12 -10  278.17   36.10
   4 -12  10  344.47   39.10
  -5  12 -10    9.00   16.80
  -5  12 -10  -11.70   25.30
   5 -12  10   -1.60   24.00
  -6  12 -10  256.07   43.70
   6 -12  10  160.88   39.00
  -7  12 -10    1.90   33.10
   7 -12  10  -19.60   28.60
  -8  12 -10    0.10   35.00
   8 -12  10   55.09   38.50
   8  11 -10  -54.79   29.70
  -8 -11  10   34.20   17.50
  -8 -11  10  -19.90   42.20
   7  11 -10  -42.10   25.50
  -7 -11  10    7.50   37.40
  -7 -11  10   29.70   15.40
   6  11 -10   -6.10   19.10
  -6 -11  10    4.50   35.40
  -6 -11  10    1.00   11.90
   5  11 -10   -6.80   15.40
  -5 -11  10   23.90   32.40
  -5 -11  10   16.20   10.10
  -4 -11  10   29.20   33.50
  -3 -11  10  236.18   42.30
  -1 -11  10  664.73   59.99
   0 -11  10  -29.80   21.90
  -1  11 -10 1056.79   70.69
  -1  11 -10 1150.28   85.39
   1 -11  10  970.20   82.69
  -2  11 -10   23.70   10.40
  -2  11 -10  -26.30   22.40
   2 -11  10  -24.20   19.80
   2 -11  10   28.90   15.60
  -3  11 -10 1311.37  106.69
  -3  11 -10 1408.16   98.09
   3 -11  10 1504.45  101.09
   3 -11  10 1448.96  106.99
  -4  11 -10   91.59   18.90
   4 -11  10   38.70   24.20
  -5  11 -10  233.28   41.10
  -5  11 -10  222.08   30.90
   5 -11  10  188.68   34.50
  -6  11 -10   -7.30   29.30
   6 -11  10   28.70   28.70
  -7  11 -10   20.00   32.40
   7 -11  10   20.20   31.00
  -8  11 -10   96.99   41.40
   8 -11  10  -54.69   31.20
  -9  11 -10   67.29   42.90
   9 -11  10   46.50   41.80
   8  10 -10   18.10   30.30
  -8 -10  10   29.70   18.50
  -8 -10  10  -12.50   42.20
   7  10 -10  -50.69   26.10
  -7 -10  10   11.90   14.70
  -7 -10  10  -35.30   36.30
   6  10 -10    4.10   21.40
  -6 -10  10   -0.10   12.30
  -6 -10  10   12.10   35.90
   5  10 -10   91.89   20.80
  -5 -10  10   81.59   38.30
  -5 -10  10  110.09   14.60
  -4 -10  10    1.40   27.40
  -3 -10  10   53.19   31.10
  -2 -10  10  453.35   47.60
  -1 -10  10   11.30   19.80
   0 -10  10  893.71   78.19
  -1  10 -10   49.20   11.20
  -1  10 -10   18.80   24.60
   1 -10  10   41.30   22.10
  -2  10 -10 1216.68   92.89
  -2  10 -10 1200.28   82.79
   2 -10  10 1233.48   84.99
   2 -10  10 1181.68   92.19
  -3  10 -10  101.09   28.00
  -3  10 -10   89.19   17.60
   3 -10  10  103.59   26.00
   3 -10  10   98.39   24.20
  -4  10 -10  514.45   55.79
  -4  10 -10  582.34   46.60
   4 -10  10  566.84   52.19
   4 -10  10  460.05   53.29
  -5  10 -10   17.60   16.90
  -5  10 -10  -21.90   27.80
   5 -10  10   46.80   25.20
  -6  10 -10   64.09   32.30
   6 -10  10   70.69   32.50
  -7  10 -10    7.60   31.30
   7 -10  10  -18.00   31.00
  -8  10 -10   25.50   36.50
   8 -10  10  -26.60   34.00
  -9  10 -10  364.96   63.29
   9 -10  10  305.17   57.69
   9   9 -10   -9.10   34.40
  -9  -9  10  -42.10   50.19
   8   9 -10  -44.50   31.50
  -8  -9  10   11.10   18.70
  -8  -9  10   42.30   41.20
   7   9 -10  -10.00   27.80
  -7  -9  10   57.69   20.30
  -7  -9  10   78.89   41.30
   6   9 -10   20.60   22.70
  -6  -9  10   29.70   13.80
  -6  -9  10   32.30   36.30
   5   9 -10   32.50   18.90
  -5  -9  10   51.29   11.90
  -5  -9  10   40.50   30.30
  -4  -9  10  818.52   94.19
  -4  -9  10  555.24   42.90
  -3  -9  10   60.39   26.40
  -2  -9  10   56.89   23.30
  -2  -9  10   81.09   22.20
  -1  -9  10  952.80   75.09
   0  -9  10   27.70   20.80
  -1   9 -10 1163.28   77.19
  -1   9 -10 1000.50   79.59
   1  -9  10  959.70   78.69
   1  -9  10  976.40   70.89
  -2   9 -10  -13.20   18.30
  -2   9 -10   -9.10   12.10
   2  -9  10    2.40   17.30
   2  -9  10   -7.10   15.90
  -3   9 -10  741.73   56.59
  -3   9 -10  692.83   62.39
   3  -9  10  788.02   82.69
   3  -9  10  741.53   59.99
  -4   9 -10   66.79   25.20
  -4   9 -10   35.60   19.20
   4  -9  10   96.29   25.30
   4  -9  10   51.79   23.40
  -5   9 -10  163.28   28.00
  -5   9 -10  192.58   36.20
   5  -9  10  221.28   34.70
   5  -9  10  126.99   31.10
  -6   9 -10   80.49   31.60
   6  -9  10   22.50   31.30
  -7   9 -10   36.50   31.90
   7  -9  10   28.80   34.70
  -8   9 -10  199.58   48.00
   8  -9  10  183.48   45.10
  -9   9 -10   47.20   41.80
   9  -9  10   58.79   42.30
   9   8 -10   27.60   34.70
  -9  -8  10    6.70   42.50
   8   8 -10   -8.40   29.30
  -8  -8  10  -25.50   39.70
   7   8 -10  -22.70   24.20
  -7  -8  10   24.00   40.20
   6   8 -10   37.90   23.30
  -6  -8  10  -28.60   33.10
  -6  -8  10   27.40   13.60
   5   8 -10   92.29   19.70
  -5  -8  10  104.39   33.60
  -5  -8  10   53.39   12.90
   4   8 -10  146.69   19.70
  -4  -8  10  112.99   31.70
  -4  -8  10  154.38   16.10
  -3  -8  10 1052.29   85.29
  -2  -8  10  205.48   31.80
  -2  -8  10  253.87   35.40
  -1  -8  10  298.97   34.00
   0   8 -10  131.59   14.10
   0  -8  10   91.39   22.40
  -1   8 -10   -5.80   11.50
  -1   8 -10   -3.70   17.90
   1  -8  10  -11.80   16.80
   1  -8  10  -44.80   13.00
  -2   8 -10  808.82   63.29
  -2   8 -10  734.63   56.39
   2  -8  10  708.03   61.29
   2  -8  10  796.72   58.29
  -3   8 -10  163.28   26.00
  -3   8 -10  112.29   21.40
   3  -8  10   86.49   25.20
   3  -8  10  104.79   22.90
  -4   8 -10   -1.20   21.70
  -4   8 -10   15.80   17.70
   4  -8  10   22.60   40.20
   4  -8  10   52.69   23.90
  -5   8 -10  242.58   36.60
  -5   8 -10  175.28   31.30
   5  -8  10  241.08   36.30
   5  -8  10  328.07   41.10
   6  -8  10  107.19   34.40
  -7   8 -10   -1.20   29.90
   7  -8  10  -11.90   31.10
  -8   8 -10  126.69   40.60
   8  -8  10   10.00   36.90
  -9   8 -10   82.79   45.70
   9  -8  10   34.40   40.90
   9   7 -10   15.50   36.60
  -9  -7  10   76.99   44.80
  -8  -7  10    5.40   38.90
   7   7 -10   -3.60   23.10
  -7  -7  10  -21.30   36.30
  -7  -7  10   13.50   14.80
   6   7 -10  497.45   45.80
  -6  -7  10  370.06   55.39
  -6  -7  10  374.66   36.50
   5   7 -10   15.00   17.80
  -5  -7  10  -30.40   28.90
  -5  -7  10    8.70   10.80
   4   7 -10  769.62   53.39
  -4  -7  10  803.42   66.49
  -4  -7  10  634.94   50.19
  -3  -7  10  -26.50   22.00
   2   7 -10  611.44   41.20
   2   7 -10  548.85   42.50
  -2  -7  10  652.63   55.49
   1   7 -10    1.40    7.30
   1   7 -10    8.40   10.20
  -1  -7  10   11.10   14.70
   0   7 -10   20.20   10.90
   0  -7  10   -3.00   15.50
  -1   7 -10  344.47   43.60
  -1   7 -10  285.17   28.60
   1  -7  10  299.87   30.10
   1  -7  10  310.97   33.40
  -2   7 -10  112.59   22.90
  -2   7 -10  105.99   21.90
   2  -7  10  134.79   24.60
   2  -7  10  136.89   22.80
  -3   7 -10   10.20   15.10
  -3   7 -10    7.20   20.60
   3  -7  10   -2.00   17.90
   3  -7  10   14.80   20.20
  -4   7 -10  400.56   40.50
  -4   7 -10  270.97   35.80
   4  -7  10  300.37   35.50
   4  -7  10  295.97   38.90
  -5   7 -10  164.88   33.10
  -5   7 -10  104.99   26.40
   5  -7  10  132.89   33.70
   5  -7  10  112.39   30.50
  -6   7 -10  749.92   65.19
   6  -7  10  515.05   61.29
   6  -7  10  642.44   65.89
  -7   7 -10  -43.00   30.30
   7  -7  10    7.20   32.10
  -8   7 -10   34.50   35.30
   8  -7  10   25.50   35.70
  -9   7 -10  129.69   49.80
   9  -7  10   91.19   41.00
   9   6 -10  -18.50   29.90
  -9  -6  10   -6.40   41.30
   8   6 -10   65.79   33.60
  -8  -6  10  192.88   48.20
   7   6 -10  278.27   37.00
  -7  -6  10  166.38   45.30
  -7  -6  10  171.68   24.30
   6   6 -10  144.69   26.30
  -6  -6  10  109.69   17.70
  -6  -6  10   26.40   36.70
   5   6 -10  745.43   54.79
  -5  -6  10  670.23   70.89
  -5  -6  10  626.44   49.60
   4   6 -10  388.66   34.80
  -4  -6  10  402.56   31.90
  -4  -6  10  405.26   47.10
   3   6 -10  985.20   66.79
  -3  -6  10  927.21   65.39
  -3  -6  10 1015.60   78.29
   2   6 -10  813.52   59.09
  -2  -6  10  877.81   67.69
   1   6 -10 1159.48   77.09
   1   6 -10 1156.98   76.79
  -1  -6  10 1047.70   80.39
   0   6 -10   56.79   17.70
   0  -6  10   58.79   16.50
  -1   6 -10  226.08   28.50
   1  -6  10  226.98   28.00
  -2   6 -10  116.09   21.00
  -2   6 -10   67.99   19.80
   2  -6  10  140.79   21.10
   2  -6  10  109.19   23.00
  -3   6 -10  499.05   45.50
  -3   6 -10  472.95   45.60
   3  -6  10  479.35   44.60
   3  -6  10  515.05   48.70
  -4   6 -10   26.90   19.20
   4  -6  10   -9.90   24.10
   4  -6  10   20.00   18.30
  -5   6 -10  135.79   27.80
  -5   6 -10  244.48   33.60
   5  -6  10  119.69   33.70
   5  -6  10  236.38   33.30
  -6   6 -10   51.49   29.80
   6  -6  10  -27.80   28.70
   6  -6  10   12.30   24.60
  -7   6 -10   22.40   31.30
   7  -6  10   34.70   33.20
  -8   6 -10  134.19   42.60
   8  -6  10   28.70   38.70
  -9   6 -10  220.58   53.49
   9  -6  10   97.99   45.00
   9   5 -10   44.70   32.90
  -9  -5  10  128.39   47.80
   8   5 -10   22.80   28.90
  -8  -5  10   23.90   36.90
   7   5 -10  259.87   36.70
  -7  -5  10  206.88   27.50
  -7  -5  10  292.07   50.69
   6   5 -10  511.25   46.40
  -6  -5  10  387.76   38.90
  -6  -5  10  463.75   56.69
   5   5 -10   29.60   25.80
   5   5 -10   25.30   18.50
  -5  -5  10   67.49   14.50
  -5  -5  10   92.59   30.10
   4   5 -10  536.75   43.40
  -4  -5  10  527.35   40.90
  -4  -5  10  582.64   55.39
   3   5 -10  213.88   22.70
  -3  -5  10  187.98   20.20
  -3  -5  10  207.78   31.90
   2   5 -10  141.59   16.80
   2   5 -10  137.39   19.60
  -2  -5  10  160.98   25.60
   1   5 -10  207.08   20.90
   1   5 -10  213.68   22.90
  -1  -5  10  204.08   25.30
  -1  -5  10  222.98   28.20
   0   5 -10  765.12   54.39
   0  -5  10  700.83   55.39
  -1   5 -10   57.39   17.60
   1  -5  10   61.29   18.20
   1  -5  10   65.49   14.90
  -2   5 -10   22.80   15.40
  -2   5 -10   -9.50   15.50
   2  -5  10   23.40   20.40
   2  -5  10   32.50   13.90
  -3   5 -10   21.80   17.20
  -3   5 -10   36.00   19.40
   3  -5  10   28.80   14.10
   3  -5  10   62.59   21.70
  -4   5 -10  334.77   37.20
  -4   5 -10  319.37   40.10
   4  -5  10  466.75   46.00
   4  -5  10  321.47   37.00
  -5   5 -10   17.70   21.80
  -5   5 -10    5.30   20.10
   5  -5  10   14.60   25.40
   5  -5  10   14.90   20.30
  -6   5 -10  333.37   42.40
   6  -5  10  222.88   35.20
   6  -5  10  166.58   39.00
   7  -5  10   24.00   32.70
  -8   5 -10   32.20   37.60
   8  -5  10    4.70   36.80
  -9   5 -10   12.80   43.00
   9  -5  10   35.20   41.10
   9   4 -10  -14.10   29.70
  -9  -4  10    6.10   38.80
   8   4 -10  106.99   33.90
  -8  -4  10  213.58   50.29
   7   4 -10   10.70   24.70
  -7  -4  10  -42.30   32.60
  -7  -4  10    3.80   15.20
   6   4 -10  107.69   24.50
  -6  -4  10   56.39   15.90
  -6  -4  10   51.99   33.60
   5   4 -10  121.29   21.80
   5   4 -10   86.79   28.40
  -5  -4  10   84.79   30.90
  -5  -4  10   91.09   16.50
   4   4 -10  354.26   32.50
   4   4 -10  348.17   42.20
  -4  -4  10  298.27   28.70
  -4  -4  10  343.97   42.40
   3   4 -10  267.17   26.90
  -3  -4  10  343.87   36.60
  -3  -4  10  233.38   24.40
   2   4 -10  242.58   23.40
  -2  -4  10  205.98   28.50
   1   4 -10   88.19   18.70
   1   4 -10   94.09   14.60
  -1  -4  10  107.99   20.40
   0   4 -10 1039.80   73.69
   0  -4  10 1014.40   71.89
  -1   4 -10   67.39   18.50
   1  -4  10   83.49   21.80
   1  -4  10   84.49   16.50
  -2   4 -10  104.79   21.20
  -2   4 -10   87.19   16.60
   2  -4  10   79.79   15.70
   2  -4  10  102.69   22.80
  -3   4 -10   81.09   18.40
  -3   4 -10   87.79   21.90
   3  -4  10   71.89   16.70
   3  -4  10   69.59   24.20
  -4   4 -10   83.29   21.70
  -4   4 -10  118.99   25.70
   4  -4  10   85.79   21.00
   4  -4  10  117.49   28.20
  -5   4 -10  106.89   24.70
   5  -4  10   41.40   21.60
   5  -4  10   22.40   26.40
  -6   4 -10  -29.30   24.20
   6  -4  10   -1.80   32.40
   6  -4  10   18.70   25.50
  -7   4 -10   33.60   31.10
   7  -4  10   36.30   45.80
   7  -4  10   49.20   36.50
  -8   4 -10   47.80   38.40
   8  -4  10   63.29   39.90
  -9   4 -10   38.70   46.40
   9  -4  10   69.69   44.30
   9   3 -10  254.67   46.50
  -9  -3  10  194.78   52.59
   8   3 -10   66.39   29.70
  -8  -3  10  -24.10   37.50
  -7  -3  10  323.57   51.29
   6   3 -10   46.10   22.60
  -6  -3  10   39.60   32.30
  -6  -3  10   58.59   15.40
   5   3 -10  128.89   23.40
   5   3 -10   80.49   27.30
  -5  -3  10  141.19   19.50
  -5  -3  10  163.78   33.90
   4   3 -10   -5.40   18.40
   4   3 -10   48.70   16.00
  -4  -3  10   18.40   22.80
  -4  -3  10    4.00   11.30
   3   3 -10   70.69   16.00
   3   3 -10   41.60   21.10
  -3  -3  10   50.29   21.60
  -3  -3  10   51.59   14.10
   2   3 -10   53.49   13.30
  -2  -3  10   62.49   19.10
   1   3 -10  114.39   15.90
   1   3 -10  133.79   20.80
  -1  -3  10   89.99   16.80
   0   3 -10   10.80   15.50
   0  -3  10    8.00   10.40
   0  -3  10  -27.00   12.90
  -1   3 -10  383.26   37.50
   1  -3  10  419.06   38.80
   1  -3  10  367.56   30.80
  -2   3 -10  111.39   23.40
   2  -3  10  141.09   17.50
   2  -3  10  172.48   26.20
  -3   3 -10    3.50   12.30
  -3   3 -10  -10.80   18.90
   3  -3  10   55.19   21.70
   3  -3  10    0.30   12.30
  -4   3 -10   48.00   18.40
  -4   3 -10   51.59   22.60
   4  -3  10   16.30   24.00
   4  -3  10   36.50   18.20
  -5   3 -10  299.27   35.10
   5  -3  10  240.08   33.40
  -6   3 -10   74.39   29.10
   6  -3  10   31.50   31.60
   6  -3  10   47.30   30.30
  -7   3 -10  347.97   48.50
   7  -3  10  282.87   50.59
   7  -3  10  318.27   49.30
  -8   3 -10   80.69   40.10
   8  -3  10   60.79   41.70
  -9   3 -10   -5.50   42.00
   9  -3  10   45.50   43.60
   9   2 -10   -3.50   30.80
  -9  -2  10    7.30   39.80
   8   2 -10  342.87   46.30
  -8  -2  10  389.06   58.79
   7   2 -10    8.40   23.10
  -7  -2  10   13.60   35.50
   6   2 -10  434.76   44.80
  -6  -2  10  550.04   60.49
  -6  -2  10  381.46   38.60
   5   2 -10  -20.70   22.00
   5   2 -10   34.30   18.70
  -5  -2  10   62.49   27.10
  -5  -2  10   67.39   26.30
   4   2 -10  114.89   25.70
   4   2 -10  134.69   22.80
  -4  -2  10  132.39   18.90
  -4  -2  10  146.79   27.50
   3   2 -10  134.49   20.50
   3   2 -10  107.09   23.50
  -3  -2  10  158.18   19.60
  -3  -2  10  146.69   26.20
   2   2 -10  346.67   32.30
  -2  -2  10  363.36   36.70
   1   2 -10  419.66   38.90
   1   2 -10  417.66   35.50
  -1  -2  10  407.86   36.00
   0   2 -10   75.19   20.10
   0  -2  10   52.39   11.30
  -1   2 -10  620.44   52.19
   1  -2  10  611.84   51.99
  -2   2 -10   56.89   11.40
  -2   2 -10   45.90   18.90
   2  -2  10   77.69   11.80
   2  -2  10   92.09   22.60
  -3   2 -10  145.49   18.30
   3  -2  10  103.09   27.60
  -4   2 -10  331.67   32.80
  -4   2 -10  271.67   37.30
   4  -2  10  279.07   31.10
   4  -2  10  235.78   38.00
  -5   2 -10  295.47   34.60
   5  -2  10  285.67   36.60
   5  -2  10  240.98   42.10
  -6   2 -10  184.18   34.90
   6  -2  10  166.28   39.30
   6  -2  10  176.08   35.00
  -7   2 -10  217.78   43.30
   7  -2  10  135.59   41.30
   7  -2  10  189.28   43.50
  -8   2 -10   60.19   43.40
   8  -2  10   78.59   40.60
  -9   2 -10  -43.00   41.70
   9  -2  10   38.30   43.00
   9   1 -10  391.76   55.09
  -9  -1  10  347.57   63.99
   8   1 -10  111.99   32.90
  -8  -1  10  120.79   43.50
   7   1 -10  176.28   33.00
  -7  -1  10  201.88   42.70
   6   1 -10  192.98   31.40
  -6  -1  10  138.09   53.89
   5   1 -10  192.58   32.90
   5   1 -10  146.99   27.50
  -5  -1  10  146.89   22.50
  -5  -1  10  178.58   33.50
   4   1 -10  247.78   35.10
   4   1 -10  237.58   30.50
  -4  -1  10  288.17   36.40
  -4  -1  10  274.07   28.70
   3   1 -10   66.59   20.90
   3   1 -10   15.20   16.20
  -3  -1  10   44.10   19.40
  -3  -1  10   63.49   14.40
   2   1 -10  224.58   25.00
   2   1 -10  187.18   24.80
  -2  -1  10  209.68   25.80
   1   1 -10   55.69   20.20
   1   1 -10   84.69   16.80
  -1  -1  10   66.59   14.70
   0   1 -10   31.20   17.70
  -1   1 -10    7.80   17.90
   1  -1  10   18.50   18.20
  -2   1 -10  526.85   52.09
   2  -1  10  664.73   54.49
  -3   1 -10  157.48   30.00
  -3   1 -10  189.58   22.80
   3  -1  10  153.08   31.50
   3  -1  10  247.98   23.50
  -4   1 -10  293.47   31.20
  -4   1 -10  266.37   36.60
   4  -1  10  234.48   28.10
   4  -1  10  253.27   38.40
  -5   1 -10  323.37   36.30
   5  -1  10  253.77   40.90
   5  -1  10  224.48   32.90
  -6   1 -10   41.00   26.30
   6  -1  10   80.39   29.10
   6  -1  10   14.20   32.40
  -7   1 -10  138.69   38.30
   7  -1  10   93.49   41.10
   7  -1  10   83.19   36.80
  -8   1 -10   73.09   40.80
   8  -1  10   42.10   40.20
  -9   1 -10   -6.00   42.80
   9  -1  10    5.30   39.60
   9   0 -10   79.09   36.80
  -9   0  10  150.88   48.70
   8   0 -10  225.78   41.40
  -8   0  10  315.57   56.69
   7   0 -10   44.50   25.40
  -7   0  10   62.29   35.90
   6   0 -10  225.68   38.70
  -6   0  10  228.28   64.49
   5   0 -10  204.48   31.30
   5   0 -10  206.18   36.30
  -5   0  10  213.98   36.30
  -5   0  10  194.68   26.10
   4   0 -10   20.90   21.10
   4   0 -10   75.49   21.30
  -4   0  10   94.39   18.40
  -4   0  10   86.09   25.80
   3   0 -10  206.08   27.10
   3   0 -10  209.98   27.90
  -3   0  10  198.88   28.20
  -3   0  10  215.58   24.90
   2   0 -10   17.60   15.50
   2   0 -10   27.60   15.90
  -2   0  10   14.10   15.10
   1   0 -10  205.68   26.80
   1   0 -10  246.98   32.40
  -1   0  10  253.87   24.20
   0   0 -10  459.55   45.70
  -1   0 -10  321.27   38.30
   1   0  10  345.37   39.40
  -2   0 -10  229.58   40.80
   2   0  10  241.78   33.00
  -3   0 -10   27.70   11.90
  -3   0 -10   67.99   22.80
   3   0  10   67.29   25.00
   3   0  10   53.39   12.80
  -4   0 -10   89.29   21.90
   4   0  10  100.49   20.00
   4   0  10  110.39   34.00
  -5   0 -10   10.00   20.40
   5   0  10   -3.00   22.10
   5   0  10   30.20   30.10
  -6   0 -10   41.90   25.20
   6   0  10   23.50   27.40
   6   0  10    8.40   34.20
  -7   0 -10   24.00   33.30
   7   0  10  -20.60   34.30
   7   0  10   36.50   35.20
  -8   0 -10   31.50   39.10
   8   0  10   59.39   41.90
  -9   0 -10   25.00   43.90
   9   0  10   71.09   45.40
   9  -1 -10   -1.20   33.40
  -9   1  10   63.19   45.90
   8  -1 -10  143.29   35.20
  -8   1  10   94.29   43.10
   7  -1 -10   85.89   31.50
  -7   1  10  208.28   43.40
   6  -1 -10  140.19   31.50
  -6   1  10  209.98   60.29
   5  -1 -10  222.08   35.10
   5  -1 -10  137.69   28.60
  -5   1  10  168.18   34.70
   4  -1 -10  414.66   46.20
   4  -1 -10  472.75   45.30
  -4   1  10  464.15   41.80
  -4   1  10  498.55   48.00
   3  -1 -10  528.35   46.00
   3  -1 -10  450.55   45.90
  -3   1  10  499.15   42.30
  -3   1  10  568.44   46.90
   2  -1 -10  -23.40   15.90
   2  -1 -10   11.50   15.20
  -2   1  10   -2.10   13.90
   1  -1 -10 1469.55  107.19
   1  -1 -10 1431.56  103.49
   1  -1 -10 1390.06   98.99
  -1   1  10 1635.24   98.99
   0  -1 -10  -45.60   19.20
   0  -1 -10   -6.00   14.70
  -1  -1 -10 1049.70   97.39
   1   1  10 1080.79   82.69
  -2  -1 -10   56.49   25.30
   2   1  10   98.59   26.10
  -3  -1 -10   39.40   23.90
   3   1  10   70.29   28.30
  -4  -1 -10   68.99   18.30
   4   1  10   42.70   17.60
   4   1  10   79.79   29.10
  -5  -1 -10    7.90   20.70
   5   1  10   -6.50   21.70
   5   1  10   -5.30   30.60
  -6  -1 -10   -3.80   25.50
   6   1  10   -2.20   25.80
   6   1  10   21.40   33.90
  -7  -1 -10    6.30   32.80
   7   1  10   14.50   38.30
   7   1  10   -8.20   30.10
  -8  -1 -10  -10.00   35.30
   8   1  10   30.90   40.10
  -9  -1 -10   78.09   44.70
   9   1  10  -51.29   50.69
   9  -2 -10  -14.50   30.50
  -9   2  10   38.10   39.90
   8  -2 -10   83.59   35.80
  -8   2  10  121.99   44.80
   7  -2 -10  154.28   36.00
  -7   2  10  185.78   44.70
   6  -2 -10  101.09   29.70
  -6   2  10  115.09   42.90
   5  -2 -10  124.89   28.80
   5  -2 -10  131.89   31.30
  -5   2  10  169.78   33.50
   4  -2 -10  427.76   45.60
   4  -2 -10  416.56   45.00
  -4   2  10  478.65   47.40
  -4   2  10  451.65   41.40
   3  -2 -10   21.20   19.70
   3  -2 -10   59.59   19.80
  -3   2  10   68.09   20.50
  -3   2  10   45.90   16.00
   2  -2 -10  429.76   42.40
   2  -2 -10  431.36   39.00
   2  -2 -10  410.26   45.30
  -2   2  10  447.16   38.30
   1  -2 -10  -78.59   20.50
   1  -2 -10  -32.50   12.30
   1  -2 -10  -50.49   17.70
  -1   2  10  -32.70   11.30
   0  -2 -10 1074.89   82.09
   0  -2 -10 1210.08   88.89
  -1  -2 -10    0.10   21.20
   1   2  10   54.49   24.50
  -2  -2 -10  535.55   56.49
   2   2  10  646.64   57.99
   3   2  10   37.60   43.60
  -4  -2 -10   86.69   19.40
   4   2  10   58.69   30.40
  -5  -2 -10   28.20   22.60
   5   2  10    4.90   32.90
  -6  -2 -10   -5.40   26.60
   6   2  10   73.79   35.60
   6   2  10   -8.60   25.80
  -7  -2 -10  -31.40   31.30
   7   2  10   27.90   32.90
   7   2  10   19.70   37.20
  -8  -2 -10   19.60   38.80
   8   2  10    3.10   39.20
   9  -3 -10  -23.20   31.70
  -9   3  10   37.60   40.80
   8  -3 -10  249.18   45.20
  -8   3  10  263.47   53.19
   7  -3 -10   37.50   31.00
  -7   3  10   37.90   34.00
   6  -3 -10   10.70   24.20
  -6   3  10   33.40   29.00
   5  -3 -10  372.56   43.10
   5  -3 -10  352.96   45.00
  -5   3  10  386.76   46.70
   4  -3 -10    2.10   23.00
   4  -3 -10   26.40   19.60
  -4   3  10   -6.10   20.10
   3  -3 -10  801.92   64.09
   3  -3 -10  778.02   63.19
  -3   3  10  818.12   63.69
  -3   3  10  778.92   63.29
   2  -3 -10  -89.09   21.90
   2  -3 -10    6.70   15.30
   2  -3 -10  -37.60   22.10
  -2   3  10   16.10   15.70
   1  -3 -10 1112.79   77.59
   1  -3 -10 1159.78   88.49
   1  -3 -10 1177.08   83.59
  -1   3  10 1077.69   76.99
   0  -3 -10  -47.10   19.40
   0  -3 -10  -79.69   25.10
  -1  -3 -10  932.11   77.69
   2   3  10   20.10   25.50
  -3  -3 -10   57.59   12.50
   3   3  10   14.20   26.90
  -4  -3 -10   18.80   17.80
   4   3  10  -19.20   26.80
  -5  -3 -10   -2.90   20.70
   5   3  10  -61.89   27.80
  -6  -3 -10    9.10   26.50
   6   3  10   -9.10   33.10
  -7  -3 -10  -14.20   31.90
   7   3  10  -70.59   33.40
  -8  -3 -10   38.40   41.90
   8   3  10   11.40   42.30
   9  -4 -10   23.00   37.00
  -9   4  10   -7.90   34.00
   8  -4 -10   17.70   30.90
  -8   4  10   12.80   37.00
   7  -4 -10  171.98   38.50
  -7   4  10  161.98   41.70
   6  -4 -10   79.09   30.30
  -6   4  10  137.89   35.10
   5  -4 -10   -6.80   21.50
   5  -4 -10   13.20   22.90
  -5   4  10   39.40   26.80
   4  -4 -10  230.98   34.40
   4  -4 -10  158.38   31.40
  -4   4  10  232.08   35.00
   3  -4 -10   78.59   23.90
   3  -4 -10   33.00   19.50
  -3   4  10    7.60   18.60
   2  -4 -10  820.72   71.09
   2  -4 -10  762.32   60.49
  -2   4  10  805.72   60.49
   1  -4 -10   45.60   25.20
   1  -4 -10   78.79   22.80
  -1   4  10   39.30   25.50
   0  -4 -10 1427.46  103.29
   2   4  10  230.48   38.10
  -3  -4 -10   49.50   21.40
  -3  -4 -10   39.00   14.30
   3   4  10  120.29   32.30
  -4  -4 -10   62.49   21.90
   4   4  10   95.49   33.80
  -5  -4 -10   78.69   25.40
   5   4  10   26.00   34.30
  -6  -4 -10  -29.20   26.40
   6   4  10   36.00   38.10
  -7  -4 -10  120.29   39.80
   7   4  10   18.70   38.30
  -8  -4 -10    4.40   38.20
   8   4  10    7.60   39.50
   8  -5 -10    5.30   29.80
  -8   5  10   -0.20   35.40
   7  -5 -10  112.79   35.70
  -7   5  10   86.19   38.40
   6  -5 -10   73.29   30.20
  -6   5  10   22.00   32.10
   5  -5 -10  251.07   40.20
   5  -5 -10  291.97   40.30
  -5   5  10  284.07   42.70
   4  -5 -10  575.34   57.99
   4  -5 -10  623.64   57.79
  -4   5  10  658.93   58.99
   3  -5 -10  549.74   52.49
   3  -5 -10  541.05   50.29
  -3   5  10  569.24   51.09
   2  -5 -10    8.60   16.00
   2  -5 -10   19.50   20.70
  -2   5  10  -10.00   16.20
   1  -5 -10  348.57   39.10
   1  -5 -10  295.27   30.20
  -1   5  10  292.87   30.60
   0  -5 -10    0.80   11.90
   0  -5 -10  -18.60   22.50
   2   5  10  177.38   35.80
  -3  -5 -10   31.40   19.30
   3   5  10   71.49   31.40
  -4  -5 -10  171.68   26.40
  -4  -5 -10  222.08   29.50
   4   5  10  241.38   43.90
  -5  -5 -10   -3.20   25.10
   5   5  10   16.90   34.80
  -6  -5 -10  136.09   35.00
   6   5  10  199.98   46.70
  -7  -5 -10   40.80   35.70
   7   5  10   17.80   40.10
   8  -6 -10    0.60   34.20
  -8   6  10   34.70   39.40
   7  -6 -10  108.59   35.20
  -7   6  10  100.89   39.70
   6  -6 -10  255.97   41.20
  -6   6  10  220.58   43.80
   5  -6 -10  131.79   35.80
   5  -6 -10  144.09   33.50
  -5   6  10  158.18   34.90
   4  -6 -10   52.69   28.60
   4  -6 -10   64.99   27.40
  -4   6  10   66.79   25.90
   3  -6 -10   93.99   23.70
   3  -6 -10   88.49   27.70
  -3   6  10  130.59   27.40
   2  -6 -10  509.25   46.80
   2  -6 -10  527.05   52.39
  -2   6  10  528.35   47.50
   1  -6 -10   22.50   14.90
   1  -6 -10   -8.40   20.40
  -1   6  10   26.70   16.50
   0  -6 -10  189.78   32.50
  -1  -6 -10  378.26   33.90
  -1  -6 -10  433.56   45.30
  -2  -6 -10   21.30   15.60
  -3  -6 -10   47.90   16.50
  -3  -6 -10   80.59   21.90
   3   6  10   76.69   34.90
  -4  -6 -10   69.19   24.10
  -4  -6 -10   70.69   21.70
   4   6  10   97.89   37.10
  -5  -6 -10  186.18   33.30
  -5  -6 -10  276.77   37.90
   5   6  10  270.67   48.90
  -6  -6 -10   -2.60   28.60
   6   6  10   88.69   45.20
  -7  -6 -10   36.40   35.10
   7   6  10  -22.10   43.50
   8  -7 -10  208.88   47.80
   7  -7 -10   57.49   35.50
  -7   7  10  142.59   41.50
   6  -7 -10  181.38   39.70
  -6   7  10  246.28   44.40
   5  -7 -10  120.89   31.50
   4  -7 -10   78.49   26.70
   4  -7 -10   87.59   30.50
  -4   7  10  179.88   33.30
   3  -7 -10  119.29   27.90
   3  -7 -10   42.90   21.40
  -3   7  10   31.60   23.70
   2  -7 -10  -12.00   17.50
   2  -7 -10   11.80   20.40
  -2   7  10   -1.20   18.30
   1  -7 -10   24.70   16.00
   1  -7 -10   -6.50   21.50
  -1   7  10   20.00   16.80
   0  -7 -10   59.39   24.80
   0  -7 -10   28.90   14.30
  -1  -7 -10   37.00   24.00
  -1  -7 -10   20.00   13.70
  -2  -7 -10  160.68   21.60
  -2  -7 -10  206.98   29.70
  -3  -7 -10   47.90   16.40
  -3  -7 -10   37.30   20.90
   3   7  10   30.40   31.70
  -4  -7 -10   90.39   24.00
  -4  -7 -10  135.99   29.10
   4   7  10  172.48   43.40
  -5  -7 -10   88.19   30.10
  -5  -7 -10   74.89   26.70
   5   7  10   66.99   39.30
  -6  -7 -10   27.70   30.80
   6   7  10   63.99   41.30
   7  -8 -10   79.39   39.00
  -7   8  10  183.18   43.20
   6  -8 -10   99.59   36.10
  -6   8  10   38.90   34.20
   5  -8 -10   31.80   29.80
  -5   8  10   34.60   30.30
   4  -8 -10    7.60   21.10
   4  -8 -10   56.99   28.90
  -4   8  10   18.40   25.00
   3  -8 -10  -11.30   21.90
   3  -8 -10   32.60   25.30
  -3   8  10   36.10   23.30
   2  -8 -10  -13.50   22.40
   2  -8 -10  -17.70   17.90
  -2   8  10   33.70   23.60
   1  -8 -10    8.20   16.70
   1  -8 -10   42.30   22.70
  -1   8  10    2.00   19.20
   0  -8 -10   46.60   25.70
   0  -8 -10   16.50   13.80
  -1  -8 -10   10.70   14.70
  -1  -8 -10   -0.30   22.60
  -2  -8 -10   91.99   26.00
  -2  -8 -10   63.09   17.20
  -3  -8 -10   51.09   24.40
  -3  -8 -10   35.50   17.80
   3   8  10   81.19   37.70
  -4  -8 -10  134.69   31.40
  -4  -8 -10  107.49   25.30
   4   8  10  116.89   39.50
  -5  -8 -10   55.39   27.40
  -5  -8 -10   12.10   27.60
   5   8  10   26.80   36.90
  -6  -8 -10  105.39   35.10
  -6  -8 -10   26.40   31.80
   6   8  10   69.59   43.20
   6  -9 -10   60.29   34.60
  -6   9  10   60.99   35.90
   5  -9 -10  -21.10   29.20
  -5   9  10   50.19   30.50
   4  -9 -10   39.60   32.70
   4  -9 -10   14.80   26.50
  -4   9  10   18.00   27.60
   3  -9 -10   44.40   23.20
   3  -9 -10   22.40   26.10
  -3   9  10   31.60   24.70
   2  -9 -10   12.50   19.90
   2  -9 -10   28.40   25.40
  -2   9  10   -0.10   24.20
   1  -9 -10   23.40   18.30
   1  -9 -10   79.69   26.60
  -1   9  10   33.00   23.30
   0  -9 -10    7.20   25.40
   0  -9 -10   27.90   17.70
  -1  -9 -10    8.00   15.50
  -1  -9 -10   34.60   27.40
  -2  -9 -10   15.30   16.50
  -2  -9 -10   36.30   26.20
  -2  -9 -10   34.30   28.00
  -3  -9 -10   33.60   29.60
  -3  -9 -10   38.70   18.90
  -4  -9 -10   26.00   25.90
  -4  -9 -10   -4.20   20.50
   4   9  10   33.60   38.90
  -5  -9 -10   78.59   32.90
   5   9  10   99.19   42.90
   6 -10 -10  -44.50   30.70
  -6  10  10    5.40   33.50
   5 -10 -10   -3.10   29.60
  -5  10  10   39.80   31.10
   4 -10 -10    2.20   26.90
  -4  10  10    7.20   30.70
   3 -10 -10  145.29   32.00
   3 -10 -10   70.09   25.90
  -3  10  10   75.99   29.90
   2 -10 -10   25.50   27.60
  -2  10  10    7.10   24.10
   1 -10 -10   24.70   20.10
   1 -10 -10   -6.40   24.90
   0 -10 -10   75.89   21.30
   0 -10 -10  136.09   31.40
  -1 -10 -10   21.70   17.80
  -1 -10 -10   10.70   26.80
  -2 -10 -10   38.20   19.40
  -2 -10 -10   49.10   31.40
  -2 -10 -10   20.10   27.80
  -3 -10 -10  -17.60   31.90
  -3 -10 -10   10.80   18.10
  -4 -10 -10   60.09   24.70
  -4 -10 -10   82.99   31.60
   5 -11 -10   40.20   34.70
  -5  11  10   11.60   31.00
   4 -11 -10   -3.70   28.50
  -4  11  10    2.10   29.10
   3 -11 -10  116.69   35.10
  -3  11  10   73.69   33.40
   2 -11 -10    5.70   24.20
   2 -11 -10    3.40   22.20
  -2  11  10   33.00   27.10
   1 -11 -10   -4.60   27.50
   0 -11 -10   -3.50   18.00
   0 -11 -10  -25.80   26.30
  -1 -11 -10   29.60   19.60
  -1 -11 -10   51.99   31.20
  -2 -11 -10   -7.40   32.60
  -2 -11 -10   44.80   29.50
  -2 -11 -10   11.20   19.60
  -3 -11 -10    8.30   21.10
  -3 -11 -10   10.40   29.00
  -3 -11 -10   18.10   36.70
   4 -12 -10  -47.80   39.00
  -4  12  10   11.20   29.30
   3 -12 -10   12.20   29.00
  -3  12  10  -12.20   29.30
   2 -12 -10   23.20   27.70
   2 -12 -10   25.10   31.00
  -2  12  10  -16.00   27.00
   1 -12 -10    3.50   20.20
   1 -12 -10   28.20   31.00
   0 -12 -10   28.80   29.70
   0 -12 -10   -4.00   27.50
  -1 -12 -10   42.40   31.60
  -2 -12 -10   91.79   34.30
  -2 -12 -10  -14.80   37.30
   1 -13 -10   65.49   35.40
   1 -20  11   31.00   18.50
  -2  20 -11  -58.49   36.10
   2 -20  11   -6.50   20.50
  -3 -19  11   99.19   83.99
   1 -19  11    0.70   15.10
  -2  19 -11   14.10   35.00
   2 -19  11   15.30   18.20
  -3  19 -11   -3.70   35.00
   3 -19  11   15.60   22.20
  -4  19 -11   21.50   38.50
   4 -19  11  -21.10   30.70
  -4 -18  11  284.77   63.89
  -3 -18  11   80.99   46.60
   1 -18  11   45.30   15.70
  -2  18 -11   35.00   34.40
   2 -18  11   55.49   20.30
  -3  18 -11   44.80   16.70
  -3  18 -11   47.90   38.50
   3 -18  11   41.80   23.40
  -4  18 -11   79.19   38.00
  -4  18 -11    1.80   17.00
   4 -18  11    5.00   25.40
  -5  18 -11   44.60   40.50
   5 -18  11   37.90   30.50
  -5 -17  11   81.09   58.79
  -4 -17  11  177.18   54.69
  -3 -17  11  117.39   45.60
   1 -17  11   76.19   18.80
  -2  17 -11    3.50   11.90
  -2  17 -11   -9.30   33.00
   2 -17  11   -2.00   16.60
  -3  17 -11  171.98   24.10
  -3  17 -11  197.18   44.20
   3 -17  11  273.07   34.90
  -4  17 -11   87.29   40.90
  -4  17 -11   38.00   16.80
   4 -17  11   52.59   25.40
  -5  17 -11   74.39   37.50
   5 -17  11  102.09   31.50
  -6  17 -11    7.30   33.20
   6 -17  11   49.70   30.10
  -5 -16  11   26.80   40.70
  -4 -16  11  121.09   47.30
  -3 -16  11  168.38   45.70
  -1  16 -11  164.28   40.90
  -2  16 -11  172.78   21.80
  -2  16 -11  260.97   46.90
   2 -16  11  221.68   27.80
  -3  16 -11   47.70   15.10
  -3  16 -11   11.00   32.70
   3 -16  11   54.59   22.30
  -4  16 -11  375.46   38.30
  -4  16 -11  455.05   59.29
   4 -16  11  426.16   47.30
  -5  16 -11   43.00   34.20
   5 -16  11  -19.50   25.50
  -6  16 -11   98.89   41.40
   6 -16  11  179.08   38.80
  -6 -15  11   27.60   44.90
  -5 -15  11  -22.20   38.80
  -4 -15  11  220.28   47.80
  -3 -15  11   18.50   35.40
  -1  15 -11  446.26   58.49
  -2  15 -11   99.29   34.40
  -2  15 -11   26.80   12.80
   2 -15  11   41.70   17.90
  -3  15 -11  439.16   55.39
  -3  15 -11  355.66   35.10
   3 -15  11  428.46   43.10
  -4  15 -11    7.50   14.20
  -4  15 -11  -41.80   29.50
   4 -15  11  -14.70   22.30
  -5  15 -11  518.65   64.69
   5 -15  11  505.95   61.79
  -6  15 -11   17.40   36.00
   6 -15  11    2.70   28.40
  -7  15 -11  237.28   52.29
   7 -15  11  202.98   45.60
   7  14 -11    4.70   22.10
  -7 -14  11   34.30   14.20
  -7 -14  11   76.19   61.09
  -6 -14  11  -13.40   40.40
  -5 -14  11   54.99   41.80
  -4 -14  11   44.50   36.60
  -3 -14  11  215.58   44.40
  -1  14 -11   75.39   35.30
  -2  14 -11  777.42   72.09
  -2  14 -11  692.23   52.19
   2 -14  11  750.92   56.79
  -3  14 -11   62.49   15.10
  -3  14 -11   64.39   32.80
   3 -14  11   16.10   20.80
  -4  14 -11  792.02   77.29
  -4  14 -11  786.52   63.89
   4 -14  11  857.11   68.79
  -5  14 -11   54.59   32.60
   5 -14  11  -16.40   32.60
  -6  14 -11  292.77   52.19
   6 -14  11  211.28   42.70
  -7  14 -11  -24.20   32.20
   7 -14  11  -16.40   31.50
   7  13 -11   20.90   25.00
  -7 -13  11   84.59   16.40
  -7 -13  11   77.89   45.30
   6  13 -11   -8.70   18.40
  -6 -13  11  -28.30   37.60
  -6 -13  11   22.30   11.00
  -5 -13  11   -4.40   37.70
  -4 -13  11   31.40   37.90
  -3 -13  11   72.29   34.60
  -1  13 -11  898.11   79.49
   1 -13  11  882.91   69.29
  -2  13 -11    7.10   27.30
  -2  13 -11   37.80   11.50
   2 -13  11   16.80   18.50
  -3  13 -11  367.36   47.50
  -3  13 -11  244.08   28.60
   3 -13  11  327.17   35.30
  -4  13 -11  -25.60   27.40
  -4  13 -11   16.20   22.40
   4 -13  11   20.50   23.60
  -5  13 -11  546.25   61.39
   5 -13  11  402.56   52.19
  -6  13 -11   42.80   34.60
   6 -13  11   54.89   32.10
  -7  13 -11  -22.30   32.60
   7 -13  11   30.70   35.00
  -8  13 -11   67.09   40.70
   8 -13  11   30.50   37.00
   7  12 -11   -6.60   23.90
  -7 -12  11   50.49   44.70
  -7 -12  11   34.20   14.00
   6  12 -11   -1.10   19.50
  -6 -12  11   14.90   11.50
  -6 -12  11   28.90   40.00
  -5 -12  11  -57.49   31.70
  -4 -12  11   66.99   37.30
  -3 -12  11  -11.30   30.80
  -1  12 -11   15.60    7.80
  -1  12 -11  -22.60   28.10
   1 -12  11    7.90   20.50
  -2  12 -11 1301.57   92.49
  -2  12 -11 1440.26  110.09
   2 -12  11 1401.46   95.19
  -3  12 -11   82.49   17.30
  -3  12 -11   44.70   30.20
   3 -12  11  112.79   24.50
  -4  12 -11  514.35   56.39
  -4  12 -11  536.75   56.19
   4 -12  11  376.16   45.90
  -5  12 -11   92.39   23.60
  -5  12 -11  159.28   37.50
   5 -12  11  106.69   29.70
  -6  12 -11   67.29   33.40
   6 -12  11   36.10   30.80
  -7  12 -11  118.49   40.90
   7 -12  11  100.29   38.20
  -8  12 -11   32.00   38.20
   8 -12  11   -8.90   35.90
   8  11 -11  -34.60   28.80
  -8 -11  11   24.90   16.50
  -8 -11  11   37.00   46.80
   7  11 -11    8.50   25.80
  -7 -11  11   -3.30   38.40
  -7 -11  11   17.10   12.60
   6  11 -11   25.10   22.00
  -6 -11  11    6.30   11.60
  -6 -11  11   52.59   36.70
   5  11 -11   -1.60   18.50
  -5 -11  11    4.10   33.10
  -4 -11  11  -21.00   32.20
  -3 -11  11  150.08   38.30
  -1 -11  11  650.53   59.09
   0 -11  11   26.50   22.30
  -1  11 -11  496.85   37.00
  -1  11 -11  488.85   53.79
   1 -11  11  461.05   50.19
  -2  11 -11  -14.40   23.30
  -2  11 -11   19.50   11.60
   2 -11  11   30.90   16.60
   2 -11  11  -40.00   19.40
  -3  11 -11  526.95   54.39
  -3  11 -11  459.45   40.40
   3 -11  11  445.86   44.50
   3 -11  11  496.65   52.59
  -4  11 -11  164.38   30.10
   4 -11  11  213.48   33.10
  -5  11 -11   90.09   22.50
  -5  11 -11  145.99   34.80
   5 -11  11   99.59   32.30
  -6  11 -11  421.06   52.99
   6 -11  11  248.58   45.10
  -7  11 -11   17.80   33.20
   7 -11  11   35.60   32.70
  -8  11 -11   72.89   41.00
   8 -11  11   79.09   41.20
   8  10 -11  -73.89   28.40
  -8 -10  11   11.80   41.10
  -8 -10  11    1.30   15.80
   7  10 -11  -87.29   25.40
  -7 -10  11   12.50   14.70
  -7 -10  11    0.80   37.60
   6  10 -11   17.00   22.30
  -6 -10  11   34.10   13.60
  -6 -10  11   -2.30   35.90
   5  10 -11   58.39   17.70
  -5 -10  11   86.89   36.10
  -5 -10  11   54.29   11.70
  -4 -10  11   15.30   30.70
  -3 -10  11   92.69   48.70
  -2 -10  11   70.49   26.30
  -2 -10  11   51.19   22.50
  -1 -10  11   39.80   21.70
   0 -10  11   59.99   22.40
  -1  10 -11  138.19   29.70
   1 -10  11  111.89   18.80
   1 -10  11  161.68   32.50
  -2  10 -11  426.36   45.80
  -2  10 -11  404.36   34.20
   2 -10  11  377.66   37.20
   2 -10  11  373.16   42.60
  -3  10 -11  -28.90   16.40
  -3  10 -11   64.29   24.40
   3 -10  11   -0.40   20.50
   3 -10  11    6.40   20.70
  -4  10 -11  151.08   34.80
  -4  10 -11  145.99   28.20
   4 -10  11  199.28   32.20
   4 -10  11  114.79   28.50
  -5  10 -11   -9.00   17.90
  -5  10 -11  -33.00   29.50
   5 -10  11  -17.70   24.20
  -6  10 -11   -3.10   30.30
   6 -10  11   25.80   30.60
  -7  10 -11  126.49   38.40
   7 -10  11  109.79   40.30
  -8  10 -11  254.37   50.99
   8 -10  11  103.49   41.50
  -9  10 -11  144.59   51.39
   9 -10  11   77.69   42.30
   8   9 -11   19.00   30.20
  -8  -9  11   15.80   17.40
  -8  -9  11   56.29   45.30
   7   9 -11  -14.50   25.80
  -7  -9  11    5.30   14.50
  -7  -9  11   -7.30   37.90
   6   9 -11   92.99   25.10
  -6  -9  11  100.19   17.10
  -6  -9  11  138.39   42.60
   5   9 -11   -9.40   17.00
  -5  -9  11   -0.50   27.90
  -5  -9  11  -20.10    9.90
  -4  -9  11 1149.19   91.29
  -4  -9  11  999.00   72.89
  -3  -9  11  194.88   36.60
  -2  -9  11  260.97   34.20
  -2  -9  11  283.77   38.00
  -1  -9  11  115.39   26.80
   0  -9  11   26.40   18.10
  -1   9 -11   19.90   10.90
  -1   9 -11   18.80   21.30
   1  -9  11   11.30   16.60
   1  -9  11   13.50   12.90
  -2   9 -11  -26.00   12.80
  -2   9 -11  -28.50   19.20
   2  -9  11  -15.00   16.10
   2  -9  11    4.10   20.50
  -3   9 -11   23.80   14.60
  -3   9 -11   -4.10   21.90
   3  -9  11  -16.80   33.20
   3  -9  11    1.60   18.30
  -4   9 -11   65.89   33.80
  -4   9 -11  171.48   30.40
   4  -9  11   60.49   25.60
   4  -9  11   74.69   26.00
  -5   9 -11  -15.70   25.60
  -5   9 -11    4.90   19.50
   5  -9  11  -21.80   22.80
   5  -9  11   13.80   24.10
  -6   9 -11   77.09   32.60
   6  -9  11   87.19   33.50
  -7   9 -11  195.48   42.80
   7  -9  11  108.69   39.60
  -8   9 -11  -25.40   35.60
   8  -9  11   -5.60   33.60
  -9   9 -11   88.29   46.00
   9  -9  11   -6.00   38.90
   9   8 -11  -47.70   32.90
  -9  -8  11  -32.40   41.40
   8   8 -11  195.98   41.90
  -8  -8  11  237.98   51.29
   7   8 -11  124.29   31.00
  -7  -8  11   96.69   42.70
  -7  -8  11  117.39   27.30
   6   8 -11   11.20   21.50
  -6  -8  11   14.70   12.30
  -6  -8  11  -36.80   31.60
   5   8 -11  163.48   24.70
  -5  -8  11  133.29   37.30
  -5  -8  11  171.08   19.00
   4   8 -11  143.29   19.60
  -4  -8  11  147.99   34.10
  -4  -8  11  137.69   15.60
   3   8 -11  345.87   29.20
  -3  -8  11  411.66   46.10
  -2  -8  11   31.50   18.20
  -2  -8  11   54.39   22.10
  -1  -8  11   12.80   16.30
   0   8 -11   -6.10    9.90
   0  -8  11   13.00   16.90
  -1   8 -11  133.79   26.50
  -1   8 -11  119.59   19.90
   1  -8  11  120.89   21.40
   1  -8  11  154.88   24.50
  -2   8 -11   27.30   19.80
  -2   8 -11   33.40   15.40
   2  -8  11   38.40   18.10
   2  -8  11   26.10   17.20
  -3   8 -11   60.59   19.00
  -3   8 -11  103.39   24.20
   3  -8  11   92.79   22.90
   3  -8  11   71.89   23.50
  -4   8 -11  100.79   26.50
  -4   8 -11   62.69   36.80
   4  -8  11   47.40   26.40
  -5   8 -11   92.89   25.00
  -5   8 -11  110.19   28.70
   5  -8  11   62.09   28.90
   5  -8  11   96.79   27.40
   6  -8  11   55.69   32.90
  -7   8 -11   39.00   32.40
   7  -8  11    5.40   33.00
  -8   8 -11  193.28   46.60
   8  -8  11  151.78   44.50
  -9   8 -11   65.59   47.60
   9  -8  11  105.69   46.30
   9   7 -11  134.09   40.60
  -9  -7  11  124.09   49.60
   8   7 -11   52.79   51.39
  -8  -7  11   19.20   38.90
   7   7 -11  120.69   30.40
  -7  -7  11   79.89   40.70
  -7  -7  11  107.09   20.50
   6   7 -11  311.27   34.90
  -6  -7  11  292.77   49.40
  -6  -7  11  222.48   26.90
   5   7 -11   93.59   21.20
  -5  -7  11   89.49   15.50
  -5  -7  11   83.69   34.80
   4   7 -11  725.53   53.69
  -4  -7  11  739.23   67.29
  -4  -7  11  709.33   50.99
   3   7 -11  229.48   22.70
  -3  -7  11  178.48   32.70
   2   7 -11  279.67   24.00
   2   7 -11  239.28   24.60
  -2  -7  11  284.67   36.20
   1   7 -11  262.27   25.10
   1   7 -11  311.47   23.60
  -1  -7  11  232.08   30.30
   0   7 -11   13.60   14.40
   0  -7  11   22.70   15.70
  -1   7 -11   22.20   13.50
   1  -7  11    6.80   14.30
   1  -7  11    8.60   16.10
  -2   7 -11    3.40   17.90
  -2   7 -11   -4.20   15.50
   2  -7  11    2.60   16.60
   2  -7  11   10.00   16.10
  -3   7 -11  509.35   45.40
  -3   7 -11  479.35   44.90
   3  -7  11  415.76   43.60
   3  -7  11  446.96   46.80
  -4   7 -11  124.79   25.60
  -4   7 -11   41.60   21.00
   4  -7  11   35.50   25.00
   4  -7  11  108.99   22.30
  -5   7 -11    3.90   25.50
  -5   7 -11  -13.10   22.30
   5  -7  11    2.90   26.60
   5  -7  11  -13.90   21.50
  -6   7 -11   23.70   26.90
   6  -7  11  -12.00   30.20
   6  -7  11   69.19   29.80
  -7   7 -11   14.90   30.50
   7  -7  11   75.89   36.20
  -8   7 -11  102.39   44.30
   8  -7  11   75.09   41.90
  -9   7 -11  105.89   46.00
   9  -7  11   48.80   41.00
   9   6 -11   56.59   33.90
  -9  -6  11    0.30   43.10
   8   6 -11  118.49   33.90
  -8  -6  11   13.90   39.60
   7   6 -11   28.80   25.20
  -7  -6  11    5.20   34.10
  -7  -6  11   14.80   14.30
   6   6 -11  142.39   26.80
  -6  -6  11   84.69   18.20
  -6  -6  11   87.49   39.80
   5   6 -11  134.79   21.70
  -5  -6  11   76.39   15.60
   4   6 -11   48.60   16.10
  -4  -6  11   53.39   26.60
  -4  -6  11   91.69   13.60
   3   6 -11   51.59   12.80
  -3  -6  11   23.20   22.90
   2   6 -11   61.29   11.50
   2   6 -11   49.40   14.30
  -2  -6  11   42.40   20.80
   1   6 -11   29.40   13.50
   1   6 -11   15.90    9.40
  -1  -6  11   26.10   17.30
  -1  -6  11   24.30   14.80
   0   6 -11  119.09   18.80
   0  -6  11   89.09   19.40
  -1   6 -11  230.28   27.90
   1  -6  11  237.98   27.80
   1  -6  11  274.77   29.10
  -2   6 -11  294.37   31.30
  -2   6 -11  243.28   30.10
   2  -6  11  268.47   31.90
   2  -6  11  255.47   29.60
  -3   6 -11    9.30   17.70
  -3   6 -11   48.70   19.30
   3  -6  11   42.60   21.30
   3  -6  11   49.90   18.20
  -4   6 -11   17.20   18.80
  -4   6 -11    3.90   20.50
   4  -6  11   40.40   18.10
   4  -6  11   19.20   24.50
  -5   6 -11  138.59   29.30
   5  -6  11  192.38   37.40
   5  -6  11  180.98   30.30
  -6   6 -11   23.20   26.60
   6  -6  11   64.29   31.80
   6  -6  11   51.59   25.60
  -7   6 -11   82.79   37.50
   7  -6  11   51.19   36.30
  -8   6 -11   50.69   39.50
   8  -6  11  -21.50   36.70
  -9   6 -11   72.69   47.10
   9  -6  11  138.99   50.09
   9   5 -11  257.37   47.30
  -9  -5  11  341.77   59.29
   8   5 -11   14.40   29.20
  -8  -5  11   15.40   35.60
   7   5 -11  244.58   36.10
  -7  -5  11  244.98   47.20
  -7  -5  11  155.98   25.10
   6   5 -11   68.29   24.30
  -6  -5  11  -17.60   32.50
   5   5 -11   33.80   18.40
  -5  -5  11   16.10   12.90
  -5  -5  11   33.00   29.50
   4   5 -11   31.30   15.30
  -4  -5  11   -7.10   24.90
  -4  -5  11    9.60   10.10
   3   5 -11  340.67   30.80
  -3  -5  11  344.97   40.60
   2   5 -11  206.18   22.70
   2   5 -11  238.98   25.40
  -2  -5  11  194.08   29.40
   1   5 -11  392.46   30.30
   1   5 -11  358.06   32.90
  -1  -5  11  297.67   33.50
  -1  -5  11  378.66   37.00
   0   5 -11   73.49   18.40
   0  -5  11   33.40   16.00
  -1   5 -11  142.59   23.10
   1  -5  11  160.18   20.00
   1  -5  11  119.59   22.80
  -2   5 -11   66.39   16.50
  -2   5 -11   45.40   19.40
   2  -5  11   66.69   16.30
   2  -5  11   90.49   23.50
  -3   5 -11   61.59   21.30
  -3   5 -11   87.09   19.10
   3  -5  11   62.79   17.00
   3  -5  11   68.89   22.50
  -4   5 -11   -5.70   18.90
  -4   5 -11   15.50   18.60
   4  -5  11   -1.60   21.30
   4  -5  11   40.20   19.20
  -5   5 -11   50.09   23.00
   5  -5  11   46.10   23.20
  -6   5 -11  119.89   31.30
   6  -5  11  109.39   38.70
   6  -5  11  111.69   31.00
   7  -5  11  151.38   40.80
  -8   5 -11  189.78   49.30
   8  -5  11  236.68   50.09
  -9   5 -11   65.89   44.90
   9  -5  11   38.10   42.70
   9   4 -11  -16.70   31.40
  -9  -4  11  -32.40   42.00
   8   4 -11  354.96   48.30
  -8  -4  11  405.66   61.59
   7   4 -11   52.79   28.80
  -7  -4  11   45.10   36.00
   6   4 -11  320.47   35.90
  -6  -4  11  271.67   46.30
  -6  -4  11  263.27   30.10
   5   4 -11  113.89   30.00
   5   4 -11  185.98   25.50
  -5  -4  11  128.99   19.00
  -5  -4  11  146.49   33.90
   4   4 -11  151.68   22.50
   4   4 -11   63.99   44.50
  -4  -4  11   92.89   30.20
  -4  -4  11  155.28   18.80
   3   4 -11  209.48   24.20
  -3  -4  11  245.78   32.40
   2   4 -11  220.38   26.40
   2   4 -11  216.88   23.20
  -2  -4  11  201.68   27.70
   1   4 -11   10.50   14.60
   1   4 -11   20.70   12.10
  -1  -4  11   32.20   16.40
   0   4 -11   24.90   16.30
   0  -4  11   38.40   13.70
   0  -4  11   49.20   14.60
  -1   4 -11   39.60   18.20
   1  -4  11   12.90   18.30
  -2   4 -11   27.10   13.80
  -2   4 -11   38.70   19.10
   2  -4  11   32.30   19.40
   2  -4  11   51.99   13.80
  -3   4 -11  303.57   31.10
  -3   4 -11  315.27   38.00
   3  -4  11  273.87   31.00
   3  -4  11  279.97   37.90
  -4   4 -11  284.47   37.50
  -4   4 -11  319.27   34.80
   4  -4  11  309.07   33.20
   4  -4  11  304.67   39.70
  -5   4 -11  460.15   46.40
   5  -4  11  568.84   56.89
   5  -4  11  395.36   46.50
  -6   4 -11  190.78   35.80
   6  -4  11  146.09   38.40
   6  -4  11  114.39   45.60
  -7   4 -11  293.97   45.20
   7  -4  11  250.77   48.50
   7  -4  11  189.08   45.10
  -8   4 -11  109.19   43.30
   8  -4  11   60.39   41.60
  -9   4 -11   73.09   47.20
   9  -4  11   52.59   47.10
   9   3 -11  249.38   44.90
  -9  -3  11  216.78   55.79
   8   3 -11  155.18   37.30
  -8  -3  11  237.78   49.50
   7   3 -11  125.69   30.40
  -7  -3  11   28.10   35.00
   6   3 -11  192.18   31.10
  -6  -3  11  215.28   41.70
  -6  -3  11  182.48   25.00
   5   3 -11  176.88   38.20
   5   3 -11  302.17   33.70
  -5  -3  11  294.17   42.10
  -5  -3  11  266.07   40.50
   4   3 -11  502.35   43.90
   4   3 -11  456.85   49.30
  -4  -3  11  531.55   52.09
  -4  -3  11  487.75   40.40
   3   3 -11  225.38   25.10
   3   3 -11  147.89   26.30
  -3  -3  11  252.07   31.90
  -3  -3  11  209.58   22.50
   2   3 -11  569.94   43.90
   2   3 -11  534.85   47.40
  -2  -3  11  559.14   49.00
   1   3 -11  229.28   27.00
   1   3 -11  191.48   21.50
  -1  -3  11  144.89   22.20
   0   3 -11   50.29   19.10
   0  -3  11    9.10   10.90
   0  -3  11    5.00   15.40
  -1   3 -11  404.16   39.00
   1  -3  11  367.46   31.30
   1  -3  11  448.66   41.60
  -2   3 -11  903.21   69.79
  -2   3 -11  926.41   65.49
   2  -3  11  873.41   70.39
   2  -3  11  855.11   61.69
  -3   3 -11  723.63   63.79
  -3   3 -11  764.22   55.39
   3  -3  11  739.13   65.19
   3  -3  11  756.22   55.69
  -4   3 -11  591.54   47.80
  -4   3 -11  483.05   52.09
   4  -3  11  544.55   48.00
   4  -3  11  644.84   58.59
  -5   3 -11  305.47   35.90
   5  -3  11  270.87   35.60
   5  -3  11  259.97   42.80
  -6   3 -11   63.59   27.70
   6  -3  11  114.59   35.90
   6  -3  11   20.80   29.40
  -7   3 -11  116.29   39.30
   7  -3  11  152.88   38.90
   7  -3  11  167.78   43.20
  -8   3 -11   95.49   42.90
   8  -3  11   35.50   37.10
  -9   3 -11   -6.70   40.70
   9  -3  11  -18.10   37.50
   9   2 -11   70.59   35.70
  -9  -2  11   78.79   46.10
   8   2 -11  174.88   36.70
  -8  -2  11  234.38   51.39
   7   2 -11  130.09   31.40
  -7  -2  11  132.39   42.40
   6   2 -11   73.49   22.90
  -6  -2  11   64.39   29.80
  -6  -2  11    5.30   16.60
   5   2 -11  553.14   57.99
   5   2 -11  633.84   52.79
  -5  -2  11  662.53   60.69
  -5  -2  11  571.14   48.60
   4   2 -11   46.00   17.40
   4   2 -11    3.30   23.10
  -4  -2  11    8.40   21.60
  -4  -2  11   34.10   13.70
   3   2 -11    5.20   18.10
   3   2 -11    8.60   14.40
  -3  -2  11    8.60   10.90
  -3  -2  11   25.00   20.60
   2   2 -11  518.25   42.80
   2   2 -11  500.75   45.70
  -2  -2  11  499.05   44.80
   1   2 -11   11.90   13.10
   1   2 -11   13.00   17.50
  -1  -2  11   17.80   14.20
   0   2 -11  717.33   57.99
   0  -2  11  698.03   49.20
  -1   2 -11   28.70   18.70
   1  -2  11   14.20   19.50
  -2   2 -11  283.57   38.60
   2  -2  11  480.15   44.00
  -3   2 -11   80.89   22.30
  -3   2 -11   56.09   23.50
   3  -2  11   86.79   16.90
   3  -2  11   59.49   26.20
  -4   2 -11  414.46   38.80
   4  -2  11  401.76   48.50
   4  -2  11  423.16   39.80
  -5   2 -11   67.19   22.60
   5  -2  11  103.89   25.80
   5  -2  11   56.19   30.30
  -6   2 -11  101.99   29.00
   6  -2  11   65.89   29.80
   6  -2  11   50.59   33.60
  -7   2 -11   76.59   37.70
   7  -2  11  113.79   41.00
   7  -2  11   93.29   37.10
  -8   2 -11   18.00   39.90
   8  -2  11    5.60   38.30
  -9   2 -11  -57.79   38.50
   9  -2  11  -63.99   38.80
   9   1 -11  107.69   39.20
  -9  -1  11  126.19   48.50
   8   1 -11  175.98   39.30
  -8  -1  11  192.98   47.10
   7   1 -11   43.30   27.60
  -7  -1  11  118.79   39.50
   6   1 -11   26.20   30.00
  -6  -1  11   44.20   30.40
   5   1 -11  191.88   35.60
   5   1 -11  238.58   32.20
  -5  -1  11  269.47   29.40
  -5  -1  11  246.78   39.60
   4   1 -11  379.46   39.50
   4   1 -11  364.26   43.70
  -4  -1  11  384.56   36.20
  -4  -1  11  403.36   44.70
   3   1 -11   -5.00   15.70
   3   1 -11   21.00   17.40
  -3  -1  11   25.00   12.90
  -3  -1  11   18.30   18.70
   2   1 -11  507.15   46.10
   2   1 -11  446.16   40.80
   2   1 -11  416.56   40.00
  -2  -1  11  428.26   40.50
   1   1 -11 1587.54  105.99
   1   1 -11 1372.96  101.09
  -1  -1  11 1467.75   99.59
   0   1 -11   80.09   24.40
  -1   1 -11 1915.11  134.29
   1  -1  11 1906.01  133.29
  -2   1 -11   17.60   20.10
  -3   1 -11  327.07   43.80
  -3   1 -11  450.55   32.40
   3  -1  11  425.96   33.20
   3  -1  11  331.37   44.50
  -4   1 -11   26.50   16.80
   4  -1  11   41.10   45.00
   4  -1  11   47.20   17.80
  -5   1 -11   83.69   24.60
   5  -1  11   84.29   25.10
   5  -1  11   88.39   35.00
  -6   1 -11  -44.90   24.10
   6  -1  11  -19.30   30.90
   6  -1  11  -23.80   27.30
  -7   1 -11   -3.20   31.20
   7  -1  11  -14.60   32.40
   7  -1  11   40.60   33.00
  -8   1 -11    5.80   37.00
   8  -1  11  -17.90   40.80
  -9   1 -11    5.20   41.50
   9  -1  11  -18.00   51.49
   9   0 -11   -9.80   31.80
  -9   0  11   39.10   43.20
   8   0 -11   16.90   31.50
  -8   0  11   50.69   40.40
   7   0 -11  139.49   33.90
  -7   0  11  194.98   45.90
   6   0 -11  -11.30   21.20
  -6   0  11  -36.70   27.80
   5   0 -11  130.69   32.70
   5   0 -11  169.78   29.00
  -5   0  11  206.88   36.80
   4   0 -11  375.46   41.40
   4   0 -11  415.86   45.40
  -4   0  11  399.26   44.50
  -4   0  11  384.96   37.00
   3   0 -11  214.78   29.00
   3   0 -11  212.28   29.00
  -3   0  11  215.18   30.10
   2   0 -11 1090.09   81.59
   2   0 -11 1132.29   79.89
   2   0 -11 1144.39   89.79
  -2   0  11 1123.59   79.79
   1   0 -11   -8.10   17.50
   1   0 -11   15.20   21.80
  -1   0  11  -33.40   11.30
   0   0 -11  895.51   67.79
   0   0 -11  931.31   79.29
  -1   0 -11   40.10   23.40
   1   0  11   31.70   22.70
  -2   0 -11  618.84   58.09
   2   0  11  657.23   59.09
  -3   0 -11   14.00   26.90
   3   0  11    3.00   26.20
  -4   0 -11  107.99   18.80
   4   0  11   80.99   29.50
   4   0  11   53.19   17.90
  -5   0 -11    8.90   20.80
   5   0  11   15.40   22.00
   5   0  11   32.40   31.80
  -6   0 -11  -12.80   25.70
   6   0  11   10.70   35.00
   6   0  11   34.50   26.70
  -7   0 -11   16.40   31.20
   7   0  11   -6.00   30.80
   7   0  11  -37.90   34.80
  -8   0 -11   30.50   38.70
   8   0  11  -67.89   35.20
   9  -1 -11  -19.90   30.80
  -9   1  11   17.40   41.00
   8  -1 -11   45.60   32.40
  -8   1  11   52.09   42.50
   7  -1 -11  111.99   32.70
  -7   1  11   91.89   39.50
   6  -1 -11   -1.80   23.50
  -6   1  11   47.00   33.60
   5  -1 -11   80.19   25.00
   5  -1 -11   70.99   27.80
  -5   1  11   53.59   30.50
   4  -1 -11   -0.30   21.10
   4  -1 -11   -9.80   18.80
  -4   1  11  -33.80   21.80
  -4   1  11   12.80   14.80
   3  -1 -11  837.72   63.99
   3  -1 -11  807.72   65.39
  -3   1  11  789.92   64.19
   2  -1 -11  -59.49   18.10
   2  -1 -11  -49.20   21.00
   2  -1 -11  -15.70   13.60
  -2   1  11  -24.40   13.90
   1  -1 -11  669.33   60.39
   1  -1 -11  759.22   65.69
  -1   1  11  784.72   52.89
   0  -1 -11    6.30   23.70
   0  -1 -11   26.80   18.10
  -1  -1 -11 1874.31  136.39
   1   1  11 1941.11  135.19
  -2  -1 -11  -26.20   20.30
   2   1  11    0.20   22.60
   3   1  11  284.77   53.49
  -4  -1 -11    1.20   16.00
   4   1  11   13.10   28.70
  -5  -1 -11   51.29   21.80
   5   1  11   36.10   31.30
   5   1  11   42.00   21.50
  -6  -1 -11   29.10   27.10
   6   1  11    3.00   34.30
   6   1  11   13.30   26.70
  -7  -1 -11   15.20   32.40
   7   1  11   73.69   35.40
   7   1  11   -5.10   37.20
  -8  -1 -11   23.60   40.20
   8   1  11   38.20   40.90
   9  -2 -11  -13.10   30.00
  -9   2  11   34.60   39.00
   8  -2 -11  -21.60   28.20
  -8   2  11  -12.30   37.70
   7  -2 -11  197.18   41.70
  -7   2  11  259.57   49.40
   6  -2 -11   50.39   27.30
  -6   2  11   -1.80   31.00
   5  -2 -11   47.80   23.80
   5  -2 -11   31.00   25.40
  -5   2  11   25.00   25.30
   4  -2 -11  534.85   54.09
   4  -2 -11  571.84   60.49
  -4   2  11  609.74   54.69
   3  -2 -11  301.07   34.10
   3  -2 -11  230.28   32.00
  -3   2  11  266.67   31.60
   2  -2 -11  526.75   43.90
   2  -2 -11  447.36   46.70
   2  -2 -11  431.06   49.99
  -2   2  11  554.84   42.80
   1  -2 -11    3.30   29.40
   1  -2 -11  133.79   16.90
   1  -2 -11   83.29   26.10
  -1   2  11  123.59   15.50
   0  -2 -11 1080.39   80.39
   0  -2 -11 1064.99   86.49
  -1  -2 -11   62.99   27.30
   2   2  11  112.79   53.79
   3   2  11   46.80   28.20
  -4  -2 -11   98.39   20.40
   4   2  11  101.39   35.80
  -5  -2 -11   60.29   23.20
   5   2  11  -16.70   33.70
  -6  -2 -11   34.60   27.90
   6   2  11   62.19   37.10
  -7  -2 -11   94.59   35.60
   7   2  11   59.19   44.90
   7   2  11   45.30   35.90
  -8  -2 -11   49.00   40.70
   8   2  11   22.60   43.30
   8  -3 -11   -3.40   29.80
  -8   3  11  -29.00   33.90
   7  -3 -11  147.29   37.60
  -7   3  11  201.48   44.40
   6  -3 -11   55.39   29.20
  -6   3  11   58.59   31.80
   5  -3 -11  204.18   36.00
   5  -3 -11  197.68   37.00
  -5   3  11  162.28   34.20
   4  -3 -11  135.49   27.90
   4  -3 -11  113.39   27.50
  -4   3  11  160.58   30.30
   3  -3 -11  214.98   31.00
   3  -3 -11  258.37   34.60
  -3   3  11  239.58   31.30
   2  -3 -11   44.20   17.00
   2  -3 -11   32.00   29.90
  -2   3  11   61.99   16.80
   1  -3 -11  848.62   65.49
   1  -3 -11  780.02   57.09
  -1   3  11  770.42   55.49
   0  -3 -11  -53.09   22.10
   2   3  11  404.66   49.00
   3   3  11   32.00   28.40
  -4  -3 -11   55.79   18.60
   4   3  11    5.80   30.60
  -5  -3 -11   38.30   22.90
   5   3  11  -13.10   31.40
  -6  -3 -11   82.99   32.80
   6   3  11   10.70   38.10
  -7  -3 -11   50.59   35.10
   7   3  11  -27.60   35.70
  -8  -3 -11   66.79   43.40
   8   3  11   66.19   50.19
   8  -4 -11  -31.90   30.20
  -8   4  11  -56.09   31.20
   7  -4 -11    4.80   29.80
  -7   4  11   -2.10   33.90
   6  -4 -11  382.76   49.40
  -6   4  11  355.16   50.49
   5  -4 -11  589.34   63.69
   5  -4 -11  768.92   64.39
  -5   4  11  698.83   66.19
   4  -4 -11  138.49   29.90
   4  -4 -11  103.69   28.40
  -4   4  11  144.19   29.80
   3  -4 -11  121.79   26.70
   3  -4 -11   99.19   23.20
  -3   4  11  100.19   24.50
   2  -4 -11  106.79   27.30
   2  -4 -11  148.49   22.70
  -2   4  11  148.19   21.90
   1  -4 -11   25.30   14.00
   1  -4 -11   15.40   21.00
  -1   4  11   41.30   18.70
  -1   4  11   39.80   18.20
   0  -4 -11  144.89   29.00
   2   4  11   33.00   27.60
   3   4  11  284.37   44.40
  -4  -4 -11   66.69   20.20
  -4  -4 -11   93.49   20.50
   4   4  11   40.60   36.60
  -5  -4 -11  102.99   26.50
   5   4  11   57.89   39.90
  -6  -4 -11   10.10   29.60
   6   4  11   49.30   40.50
  -7  -4 -11   85.19   38.30
   7   4  11   46.50   43.30
   8  -5 -11  203.48   44.50
  -8   5  11  147.79   45.80
   7  -5 -11  140.59   39.60
  -7   5  11  149.19   43.10
   6  -5 -11  120.19   34.50
  -6   5  11  118.69   36.10
   5  -5 -11   18.20   23.60
   5  -5 -11   -6.20   26.50
  -5   5  11   26.50   27.00
   4  -5 -11  264.87   38.30
   4  -5 -11  201.78   38.50
  -4   5  11  220.38   35.20
   3  -5 -11   38.40   20.60
   3  -5 -11   30.60   23.30
  -3   5  11    9.70   21.00
   2  -5 -11   51.39   23.90
   2  -5 -11   61.09   19.50
  -2   5  11   68.19   19.40
   1  -5 -11   53.29   24.00
  -1   5  11   63.59   17.30
   0  -5 -11   50.99   25.90
  -1  -5 -11    6.80   22.10
   2   5  11  279.17   43.20
   3   5  11   17.20   31.50
  -4  -5 -11  123.09   22.50
  -4  -5 -11   86.59   20.20
   4   5  11  123.69   39.60
  -5  -5 -11   55.39   24.30
   5   5  11    7.70   34.20
  -6  -5 -11   45.20   29.80
   6   5  11   48.80   39.80
  -7  -5 -11   91.89   38.30
   7   5  11  108.69   46.10
   7  -6 -11  229.18   45.80
  -7   6  11  300.17   51.89
   6  -6 -11   27.50   31.50
  -6   6  11   82.69   35.10
   5  -6 -11    1.70   26.80
  -5   6  11  -24.70   25.90
   4  -6 -11   16.50   22.80
   4  -6 -11   -5.10   24.00
  -4   6  11  -23.60   22.80
   3  -6 -11   32.30   25.40
   3  -6 -11   52.99   21.00
  -3   6  11   51.69   22.50
   2  -6 -11    0.70   15.30
   2  -6 -11   12.80   22.30
  -2   6  11  -20.60   16.70
   1  -6 -11   15.80   14.00
   1  -6 -11    7.40   21.50
  -1   6  11   16.40   15.70
   0  -6 -11    8.20   12.30
   0  -6 -11   27.00   23.00
  -1  -6 -11    5.60   23.30
   3   6  11  -19.30   30.90
  -4  -6 -11  101.29   22.30
  -4  -6 -11   91.99   20.20
   4   6  11   55.39   37.10
  -5  -6 -11   77.99   26.40
  -5  -6 -11   53.39   24.00
   5   6  11  116.19   43.50
  -6  -6 -11   47.40   29.90
   6   6  11   28.60   41.20
   7  -7 -11   25.00   32.00
  -7   7  11   -1.40   35.00
   6  -7 -11   41.80   31.10
  -6   7  11   25.50   32.40
   5  -7 -11  -28.90   25.90
  -5   7  11  -42.70   35.30
   4  -7 -11   25.60   21.80
   4  -7 -11   -2.60   25.10
  -4   7  11   -2.80   24.70
   3  -7 -11   25.70   20.80
   3  -7 -11  -12.00   23.90
  -3   7  11   26.90   21.90
   2  -7 -11   31.90   26.00
   2  -7 -11   45.70   19.40
  -2   7  11   39.60   21.00
   1  -7 -11   46.00   23.80
   1  -7 -11   -3.60   15.40
  -1   7  11   -2.70   16.60
   0  -7 -11    3.70   15.40
   0  -7 -11   24.30   23.70
  -1  -7 -11    0.20   15.50
  -1  -7 -11   15.00   24.10
  -3  -7 -11   20.20   15.10
  -3  -7 -11   54.89   19.10
   3   7  11    4.10   34.20
  -4  -7 -11   21.80   17.00
  -4  -7 -11    2.20   19.60
   4   7  11  -30.80   34.10
  -5  -7 -11   58.49   24.70
  -5  -7 -11   96.59   27.90
   5   7  11   69.49   39.40
  -6  -7 -11   52.19   30.90
  -6  -7 -11  -25.20   33.40
   6   7  11   44.00   44.20
   6  -8 -11  -42.40   28.10
  -6   8  11  -16.80   32.00
   5  -8 -11  -24.10   28.60
  -5   8  11   10.50   27.40
   4  -8 -11   52.49   28.30
   4  -8 -11   35.50   24.30
  -4   8  11   79.99   28.20
   3  -8 -11   29.60   22.80
   3  -8 -11  -58.39   24.00
  -3   8  11  -57.69   22.20
   2  -8 -11  212.78   34.80
   2  -8 -11  105.49   25.70
  -2   8  11  187.08   29.90
   1  -8 -11    1.00   24.00
   1  -8 -11   30.90   17.90
   0  -8 -11   36.90   16.90
   0  -8 -11  121.49   28.80
  -1  -8 -11  -19.20   21.80
  -1  -8 -11   61.09   16.30
  -1  -8 -11   77.69   28.80
  -2  -8 -11  121.49   32.10
  -2  -8 -11   52.19   24.30
  -2  -8 -11   50.69   16.30
  -3  -8 -11   23.70   15.30
  -3  -8 -11   25.20   15.30
  -3  -8 -11   57.59   22.00
  -4  -8 -11   31.50   18.80
  -4  -8 -11   33.30   24.00
   4   8  11   32.10   38.90
  -5  -8 -11   49.99   28.10
  -5  -8 -11   -4.60   24.00
   5   8  11   67.29   42.40
   6  -9 -11   -7.10   30.70
  -6   9  11   -0.70   33.90
   5  -9 -11  -18.00   28.10
  -5   9  11   11.00   29.00
   4  -9 -11    4.30   29.80
  -4   9  11  -15.80   25.20
   3  -9 -11   30.70   23.20
   3  -9 -11    8.00   26.50
  -3   9  11  -41.00   22.50
   2  -9 -11   28.70   20.00
   2  -9 -11   70.49   27.90
  -2   9  11   71.49   26.80
   1  -9 -11   42.00   26.90
   1  -9 -11   44.10   19.90
   0  -9 -11   71.19   29.70
   0  -9 -11   24.20   16.90
  -1  -9 -11  -40.20   26.90
  -1  -9 -11    2.10   25.00
  -1  -9 -11    6.50   15.00
  -2  -9 -11   37.90   28.60
  -2  -9 -11   31.40   26.20
  -2  -9 -11   11.20   16.80
  -3  -9 -11   17.40   17.50
  -3  -9 -11    7.60   22.70
  -4  -9 -11   32.40   20.80
  -4  -9 -11   97.19   29.30
   4   9  11  102.29   40.40
   5 -10 -11   -5.80   30.30
  -5  10  11   59.59   32.50
   4 -10 -11   -3.10   30.40
  -4  10  11   15.30   33.90
   3 -10 -11   34.20   24.50
   3 -10 -11   15.10   29.20
  -3  10  11    1.50   26.30
   2 -10 -11   37.40   29.10
   2 -10 -11   -7.80   26.80
  -2  10  11   -2.60   25.10
   1 -10 -11  -20.60   26.80
   1 -10 -11   10.50   19.20
   0 -10 -11   20.10   27.30
   0 -10 -11   -7.20   16.90
  -1 -10 -11   22.60   28.60
  -1 -10 -11   42.60   32.70
  -1 -10 -11   27.00   18.10
  -2 -10 -11   60.09   32.10
  -2 -10 -11   32.40   19.10
  -2 -10 -11   71.39   32.50
  -3 -10 -11   41.80   21.20
  -3 -10 -11  138.69   36.10
  -3 -10 -11  123.29   31.10
  -4 -10 -11   36.50   22.30
   4 -11 -11   -5.70   36.10
  -4  11  11  -18.40   29.00
   3 -11 -11   -5.10   30.20
  -3  11  11  -30.20   29.50
   2 -11 -11    3.60   30.20
   2 -11 -11   14.30   22.10
  -2  11  11  -20.70   25.90
   1 -11 -11  -30.60   29.10
   1 -11 -11   39.50   24.90
   0 -11 -11   32.80   21.30
   0 -11 -11  144.09   34.00
  -1 -11 -11   20.50   31.70
  -1 -11 -11   24.90   20.20
  -1 -11 -11    3.20   32.20
  -2 -11 -11  165.28   38.40
  -2 -11 -11  120.69   38.80
  -2 -11 -11   54.29   23.50
   2 -12 -11  170.68   64.09
  -2  12  11  149.19   36.10
   1 -12 -11   43.10   35.70
   1 -12 -11   48.10   27.30
   0 -12 -11   67.19   38.80
  -2  20 -12   -6.60   50.39
   2 -20  12   16.10   19.60
  -2  19 -12  114.49   44.80
   2 -19  12  123.09   24.90
  -3  19 -12   92.49   43.50
  -3  19 -12  129.09   22.10
   3 -19  12  148.09   29.30
  -4  19 -12   25.40   36.60
  -4  19 -12   26.60   17.90
   4 -19  12   30.10   25.40
  -4 -18  12   30.90   60.59
  -3 -18  12  247.18   58.59
  -2  18 -12  340.17   58.19
   2 -18  12  332.37   36.00
  -3  18 -12   20.70   14.10
  -3  18 -12    3.80   37.10
   3 -18  12   24.30   22.70
  -4  18 -12  392.36   58.99
  -4  18 -12  351.66   38.30
   4 -18  12  352.96   44.80
  -5  18 -12    1.50   37.00
   5 -18  12  -24.80   27.40
  -4 -17  12  164.88   54.09
  -3 -17  12   86.79   45.30
  -2  17 -12   14.50   11.70
  -2  17 -12   -5.20   31.20
   2 -17  12    9.90   17.60
  -3  17 -12  467.15   62.99
  -3  17 -12  425.76   39.90
   3 -17  12  509.35   48.00
  -4  17 -12   21.70   15.50
  -4  17 -12    7.80   36.40
   4 -17  12   46.10   25.90
  -5  17 -12  500.55   66.09
   5 -17  12  426.76   53.39
  -6  17 -12  -27.00   35.60
   6 -17  12  -11.60   29.60
  -5 -16  12   24.00   43.00
  -4 -16  12   -3.90   40.40
  -3 -16  12  219.68   50.69
  -2  16 -12  529.55   62.59
  -2  16 -12  416.06   35.30
   2 -16  12  449.56   41.20
  -3  16 -12   43.20   13.90
  -3  16 -12   -6.30   30.80
   3 -16  12  -14.10   20.00
  -4  16 -12  868.51   76.99
  -4  16 -12  587.54   54.39
   4 -16  12  713.03   63.29
  -5  16 -12   62.89   36.50
   5 -16  12   46.20   29.70
  -6  16 -12  352.76   56.39
   6 -16  12  254.67   44.50
  -6 -15  12   19.80   45.30
  -5 -15  12   55.49   42.20
  -4 -15  12  183.18   48.40
  -3 -15  12   16.00   36.20
  -2  15 -12   61.29   32.30
  -2  15 -12   45.90   11.80
   2 -15  12   19.30   18.10
  -3  15 -12  685.03   66.99
  -3  15 -12  546.95   45.80
   3 -15  12  560.64   52.19
  -4  15 -12   14.10   30.10
  -4  15 -12   12.20   15.60
   4 -15  12    3.70   22.90
  -5  15 -12  755.32   73.29
   5 -15  12  494.55   66.09
  -6  15 -12   68.79   37.60
   6 -15  12   55.29   31.90
  -7  15 -12  105.29   44.70
   7 -15  12   27.30   32.30
  -6 -14  12    8.50   41.50
  -5 -14  12   52.19   43.00
  -4 -14  12   18.10   38.80
  -3 -14  12   49.80   35.80
  -2  14 -12  244.18   42.40
  -2  14 -12  210.38   24.20
   2 -14  12  304.67   30.00
  -3  14 -12  100.19   35.20
  -3  14 -12  110.19   18.40
   3 -14  12  149.88   28.30
  -4  14 -12  257.77   46.60
  -4  14 -12  236.78   31.60
   4 -14  12  366.56   41.10
  -5  14 -12  322.57   49.40
   5 -14  12  166.38   54.39
  -6  14 -12   85.59   38.20
   6 -14  12   84.39   32.60
  -7  14 -12  198.08   49.40
   7 -14  12   85.99   36.50
   7  13 -12   29.10   22.00
  -7 -13  12   52.19   44.40
  -7 -13  12   28.60   12.40
  -6 -13  12  -20.20   36.40
  -5 -13  12   24.20   40.00
  -4 -13  12  134.89   43.70
  -3 -13  12  205.78   44.80
  -1  13 -12  877.21   79.09
  -2  13 -12  403.26   35.00
  -2  13 -12  551.64   55.79
   2 -13  12  433.26   39.80
  -3  13 -12   71.49   17.00
  -3  13 -12   77.39   32.40
   3 -13  12   71.19   23.50
  -4  13 -12   -0.60   17.10
  -4  13 -12   25.00   29.80
   4 -13  12  -32.70   24.50
  -5  13 -12  240.38   44.40
   5 -13  12  240.58   48.30
  -6  13 -12  273.27   50.69
   6 -13  12  312.77   48.60
  -7  13 -12    5.70   37.00
   7 -13  12  -29.30   29.10
  -8  13 -12  117.29   44.20
   8 -13  12   88.99   41.40
   7  12 -12  -35.30   20.90
  -7 -12  12  -45.40   37.60
  -7 -12  12   13.30   12.10
   6  12 -12   -6.90   18.20
  -6 -12  12   10.50   10.40
  -6 -12  12  -78.39   35.30
  -5 -12  12  -27.70   32.70
  -4 -12  12  107.99   40.00
  -3 -12  12   19.60   32.90
  -1  12 -12    3.20    9.70
  -1  12 -12  -21.20   26.60
   1 -12  12    5.00   24.40
  -2  12 -12   51.19   13.30
  -2  12 -12   58.59   42.10
   2 -12  12   55.29   19.30
  -3  12 -12  332.87   43.80
  -3  12 -12  234.58   26.50
   3 -12  12  195.28   30.00
  -4  12 -12   48.50   30.00
  -4  12 -12   33.50   20.40
   4 -12  12   68.19   26.80
  -5  12 -12  365.16   49.80
   5 -12  12  309.07   47.90
  -6  12 -12   15.40   32.70
   6 -12  12   42.90   32.30
  -7  12 -12  228.18   48.80
   7 -12  12  143.59   43.00
  -8  12 -12   49.99   41.70
   8 -12  12   24.10   36.90
   8  11 -12  -24.00   29.60
  -8 -11  12  -54.39   43.10
  -8 -11  12   15.00   15.80
   7  11 -12   38.60   26.30
  -7 -11  12  106.79   17.40
  -7 -11  12  118.39   45.30
   6  11 -12  104.59   26.40
  -6 -11  12  183.18   48.30
  -6 -11  12  130.49   17.90
  -5 -11  12  111.49   40.00
  -4 -11  12  185.48   43.80
  -3 -11  12   -0.20   28.80
  -1 -11  12   16.30   20.90
   0 -11  12  180.88   31.90
  -1  11 -12   28.00   24.90
   1 -11  12  -19.90   19.70
   1 -11  12    3.70   14.70
  -2  11 -12   34.10   16.10
  -2  11 -12   87.69   28.10
   2 -11  12   59.29   20.20
   2 -11  12   96.59   25.30
  -3  11 -12   80.59   18.50
  -3  11 -12   46.60   29.60
   3 -11  12  107.69   23.80
   3 -11  12   67.09   26.30
  -4  11 -12  130.79   51.99
  -4  11 -12   80.49   25.50
   4 -11  12   99.49   29.20
  -5  11 -12   -1.80   27.80
   5 -11  12  -22.60   25.50
  -6  11 -12  164.28   42.20
   6 -11  12  169.18   39.50
  -7  11 -12   75.39   38.10
   7 -11  12   11.80   36.10
  -8  11 -12   34.70   40.40
   8 -11  12   41.00   37.90
   8  10 -12  140.89   36.10
  -8 -10  12   92.09   21.20
  -8 -10  12  183.18   51.99
   7  10 -12  -15.10   26.10
  -7 -10  12    6.50   12.90
  -7 -10  12  -52.19   36.00
   6  10 -12  155.88   28.00
  -6 -10  12  174.28   47.60
  -6 -10  12  135.29   19.60
   5  10 -12   21.40   17.20
  -5 -10  12   17.00   31.10
  -5 -10  12   58.29   11.30
  -4 -10  12   12.30   31.70
  -3 -10  12   67.69   50.39
  -2 -10  12  218.78   31.40
  -2 -10  12  141.19   32.70
  -1 -10  12   28.40   20.00
   0 -10  12   68.49   23.30
  -1  10 -12  156.38   18.70
   1 -10  12  171.68   28.00
   1 -10  12  170.08   21.40
  -2  10 -12   38.90   14.50
  -2  10 -12   55.39   23.30
   2 -10  12   31.90   17.40
   2 -10  12   66.89   22.40
  -3  10 -12  -31.70   22.20
  -3  10 -12    6.50   15.70
   3 -10  12  -16.30   19.40
   3 -10  12  -10.50   20.90
  -4  10 -12   86.29   21.60
  -4  10 -12   69.79   30.00
   4 -10  12   73.79   26.40
   4 -10  12   75.99   27.10
  -5  10 -12  168.98   38.30
   5 -10  12  148.99   35.60
  -6  10 -12   45.20   32.30
   6 -10  12   45.50   32.50
  -7  10 -12   60.99   37.40
   7 -10  12   45.70   36.10
  -8  10 -12  225.08   52.79
   8 -10  12  251.57   51.69
   8   9 -12   24.70   31.30
  -8  -9  12  -39.80   38.70
  -8  -9  12   17.70   17.10
   7   9 -12  500.25   51.39
  -7  -9  12  384.86   60.89
  -7  -9  12  426.86   41.00
   6   9 -12  187.08   29.50
  -6  -9  12  166.48   22.00
  -6  -9  12  158.68   44.50
   5   9 -12  -18.80   15.00
  -5  -9  12   -1.70   33.30
  -5  -9  12   24.20   11.10
   4   9 -12  166.88   27.70
  -4  -9  12  209.98   38.30
  -3  -9  12   52.99   27.60
  -2  -9  12   43.20   25.70
  -2  -9  12   35.40   20.20
   0   9 -12   -6.10    9.50
   0  -9  12  -18.80   15.50
  -1   9 -12  159.68   20.00
   1  -9  12  133.79   26.40
   1  -9  12  162.48   21.50
  -2   9 -12   30.30   21.20
  -2   9 -12   45.70   15.70
   2  -9  12   35.80   18.40
   2  -9  12   17.00   19.20
  -3   9 -12   28.40   21.50
  -3   9 -12   12.80   16.50
   3  -9  12  -14.70   19.00
  -4   9 -12   58.49   20.40
  -4   9 -12   67.69   26.10
   4  -9  12   36.70   22.10
   4  -9  12   81.99   24.50
  -5   9 -12  208.68   36.00
   5  -9  12  174.98   33.70
   5  -9  12  151.18   40.00
  -6   9 -12   33.60   30.50
   6  -9  12  -39.70   27.40
  -7   9 -12  358.36   54.09
   7  -9  12  297.97   51.39
  -8   9 -12  140.49   46.70
   8  -9  12  109.09   44.20
   8   8 -12  252.07   47.30
  -8  -8  12  362.76   57.69
   7   8 -12    8.30   25.80
  -7  -8  12   -3.70   38.30
  -7  -8  12   12.70   16.40
   6   8 -12  329.87   36.40
  -6  -8  12  276.47   29.40
  -6  -8  12  285.67   49.99
   5   8 -12   26.60   18.30
  -5  -8  12   40.50   34.90
  -5  -8  12   30.90   12.00
   4   8 -12  121.09   19.70
  -4  -8  12  181.98   46.00
   3   8 -12   52.19   20.10
  -3  -8  12   58.59   27.10
   2   8 -12  317.67   25.20
   2   8 -12  287.87   27.10
  -2  -8  12  379.96   42.00
   1   8 -12  451.05   35.30
   1   8 -12  473.05   33.50
  -1  -8  12  450.25   44.00
   0   8 -12   10.20   12.30
   0  -8  12   11.10   16.50
  -1   8 -12   -5.90   13.80
   1  -8  12  -24.00   16.40
   1  -8  12   21.90   18.40
  -2   8 -12  254.47   32.60
  -2   8 -12  267.57   30.20
   2  -8  12  269.27   32.30
   2  -8  12  250.97   32.50
  -3   8 -12    1.40   16.80
  -3   8 -12    8.60   20.40
   3  -8  12   45.30   18.90
   3  -8  12   13.70   21.90
  -4   8 -12   54.09   23.50
  -4   8 -12  -19.60   21.10
   4  -8  12  -40.40   27.00
   4  -8  12   40.20   38.60
  -5   8 -12   85.89   29.70
   5  -8  12  106.89   48.00
   5  -8  12  123.89   28.60
   6  -8  12   15.90   30.70
  -7   8 -12  385.16   53.99
   7  -8  12  214.68   48.80
  -8   8 -12  133.29   44.70
   8  -8  12  188.28   48.80
  -9   8 -12   55.59   45.80
   9  -8  12   50.29   42.80
   8   7 -12   42.50   34.20
  -8  -7  12   60.09   41.00
   7   7 -12   -5.00   25.50
  -7  -7  12   27.30   15.90
  -7  -7  12   35.80   37.30
   6   7 -12   51.79   22.40
  -6  -7  12   -1.80   13.10
  -6  -7  12  -13.10   32.50
   5   7 -12  240.98   29.10
  -5  -7  12  235.58   24.90
  -5  -7  12  208.18   41.90
   4   7 -12    7.00   13.50
  -4  -7  12    9.30   11.00
  -4  -7  12   31.70   26.20
   3   7 -12   -5.50   10.70
  -3  -7  12    7.70   23.80
   2   7 -12  223.38   22.70
   2   7 -12  238.28   25.50
  -2  -7  12  263.87   35.30
   1   7 -12  228.98   23.80
   1   7 -12  221.28   20.80
  -1  -7  12  192.38   26.20
  -1  -7  12  189.18   28.30
   0   7 -12  235.58   25.60
   0  -7  12  230.48   29.80
  -1   7 -12   37.70   15.90
   1  -7  12   68.79   18.60
   1  -7  12   24.40   17.80
  -2   7 -12   56.89   19.90
  -2   7 -12   62.59   19.80
   2  -7  12   96.89   21.90
   2  -7  12   76.99   19.30
  -3   7 -12   56.89   20.10
  -3   7 -12   74.29   22.30
   3  -7  12  105.59   22.30
   3  -7  12  115.79   25.10
  -4   7 -12   11.10   20.70
  -4   7 -12   -1.50   19.10
   4  -7  12   34.70   19.70
   4  -7  12   -3.00   22.60
  -5   7 -12   13.60   22.50
   5  -7  12  -18.50   47.40
   5  -7  12    2.70   21.40
  -6   7 -12  147.49   35.10
   6  -7  12  161.08   39.80
   6  -7  12  132.79   34.80
  -7   7 -12   56.89   34.60
   7  -7  12   24.50   35.70
  -8   7 -12  166.28   48.40
   8  -7  12  105.79   46.10
  -9   7 -12  110.99   52.39
   9  -7  12   66.39   44.20
   9   6 -12   21.10   33.80
  -9  -6  12   39.20   44.90
   8   6 -12  374.96   49.30
  -8  -6  12  337.77   60.09
   7   6 -12  100.99   30.30
  -7  -6  12   20.90   34.60
  -7  -6  12   44.70   16.60
   6   6 -12  444.66   42.60
  -6  -6  12  357.16   38.70
  -6  -6  12  299.27   52.29
   5   6 -12  257.17   30.00
  -5  -6  12  218.98   24.90
  -5  -6  12  231.88   44.30
   4   6 -12  284.77   31.00
  -4  -6  12  281.77   26.80
  -4  -6  12  303.57   43.10
   3   6 -12  482.75   38.90
  -3  -6  12  487.65   51.19
   2   6 -12   33.20   16.00
   2   6 -12   32.40   11.80
  -2  -6  12   70.29   23.20
   1   6 -12 1053.79   68.99
   1   6 -12 1023.80   71.89
  -1  -6  12 1013.90   75.89
  -1  -6  12  909.81   73.49
   0   6 -12  600.74   49.10
   0  -6  12  633.04   50.89
  -1   6 -12  231.88   26.50
   1  -6  12  146.19   22.80
   1  -6  12  158.48   25.60
  -2   6 -12   17.40   17.30
  -2   6 -12   46.20   17.30
   2  -6  12   14.90   15.30
   2  -6  12  -16.70   18.60
  -3   6 -12  173.48   28.20
  -3   6 -12  208.98   27.90
   3  -6  12  157.38   25.00
   3  -6  12  203.48   31.00
  -4   6 -12  251.57   31.50
  -4   6 -12  119.39   27.00
   4  -6  12  184.18   32.70
   4  -6  12  187.28   29.10
  -5   6 -12  439.46   45.80
   5  -6  12  393.46   50.79
   5  -6  12  361.86   43.80
   6  -6  12  103.99   32.30
   6  -6  12  171.78   38.80
  -7   6 -12  641.64   67.39
   7  -6  12  546.15   69.89
  -8   6 -12   40.10   38.10
   8  -6  12   62.19   41.60
  -9   6 -12   -9.90   44.70
   9  -6  12    1.60   45.10
   9   5 -12  168.98   41.90
  -9  -5  12  192.28   52.29
   8   5 -12  125.19   36.10
  -8  -5  12  187.48   48.20
   7   5 -12   81.29   27.00
  -7  -5  12  -15.00   34.30
   6   5 -12  229.88   32.60
  -6  -5  12  223.88   46.70
  -6  -5  12  229.98   26.80
   5   5 -12  115.49   22.60
  -5  -5  12  132.19   19.00
  -5  -5  12   65.09   43.90
   4   5 -12  520.75   41.40
  -4  -5  12  468.35   52.69
  -4  -5  12  433.96   38.00
   3   5 -12   87.39   16.90
  -3  -5  12   60.89   24.60
   2   5 -12  372.86   37.60
   2   5 -12  439.46   35.00
  -2  -5  12  424.86   43.80
   1   5 -12  602.64   47.50
   1   5 -12  572.14   43.70
  -1  -5  12  580.04   47.20
  -1  -5  12  519.95   48.80
   0   5 -12  243.58   28.30
   0  -5  12  215.28   26.30
  -1   5 -12 1658.43  114.99
   1  -5  12 1708.93  115.09
   1  -5  12 1601.24  111.89
  -2   5 -12  179.88   23.20
  -2   5 -12  179.28   28.10
   2  -5  12  221.48   29.70
   2  -5  12  166.08   22.00
  -3   5 -12  198.18   44.50
  -3   5 -12  189.18   26.10
   3  -5  12  145.89   29.90
   3  -5  12  196.28   26.10
  -4   5 -12  455.85   42.40
  -4   5 -12  438.06   46.10
   4  -5  12  350.46   45.10
   4  -5  12  390.06   42.50
  -5   5 -12  234.48   33.90
   5  -5  12  191.88   31.50
   5  -5  12  160.48   37.40
  -6   5 -12  178.28   34.20
   6  -5  12  168.68   34.60
   6  -5  12   81.19   36.50
  -7   5 -12   51.39   44.70
   7  -5  12   37.60   34.30
  -8   5 -12   50.69   38.70
   8  -5  12   55.69   41.60
  -9   5 -12   54.49   45.40
   9  -5  12  -13.70   41.90
   9   4 -12    1.20   32.30
  -9  -4  12  -64.29   40.30
   8   4 -12  106.69   34.40
  -8  -4  12  110.99   45.80
   7   4 -12  198.38   40.40
  -7  -4  12  169.78   44.70
   6   4 -12   51.09   23.30
  -6  -4  12    4.60   30.70
  -6  -4  12   26.80   15.30
   5   4 -12  386.06   39.80
   5   4 -12  326.17   49.50
  -5  -4  12  394.86   36.60
  -5  -4  12  409.46   50.09
   4   4 -12  156.28   23.20
   4   4 -12  144.79   35.60
  -4  -4  12  120.89   18.90
  -4  -4  12  175.18   33.20
   3   4 -12  627.74   50.09
  -3  -4  12  650.53   57.59
   2   4 -12  391.96   38.80
   2   4 -12  402.16   34.60
  -2  -4  12  393.86   41.30
   1   4 -12  296.77   28.60
   1   4 -12  292.37   33.00
  -1  -4  12  253.77   29.40
  -1  -4  12  286.17   31.10
   0   4 -12  673.43   56.19
   0  -4  12  691.23   51.39
   0  -4  12  672.93   51.99
  -1   4 -12   98.09   21.90
   1  -4  12  115.09   22.60
  -2   4 -12 1211.68   79.49
  -2   4 -12  997.50   84.69
   2  -4  12 1078.99   79.19
   2  -4  12 1308.47   86.99
  -3   4 -12  363.66   41.90
  -3   4 -12  418.66   37.00
   3  -4  12  408.96   36.90
   3  -4  12  390.36   44.00
  -4   4 -12  373.06   48.20
  -4   4 -12  493.95   42.50
   4  -4  12  481.25   42.90
   4  -4  12  375.76   50.39
  -5   4 -12   59.79   24.10
   5  -4  12   69.59   31.40
   5  -4  12   76.29   25.30
  -6   4 -12   56.89   30.10
   6  -4  12  158.48   43.30
   6  -4  12  206.48   42.20
  -7   4 -12  307.17   47.80
   7  -4  12  184.68   42.20
   7  -4  12  159.68   47.40
  -8   4 -12   24.60   39.10
   8  -4  12  -33.60   36.60
  -9   4 -12   -5.20   41.30
   9  -4  12   70.19   48.80
   9   3 -12   38.00   34.80
  -9  -3  12  -21.90   40.10
   8   3 -12   93.39   35.80
  -8  -3  12  188.38   50.59
   7   3 -12   48.60   26.90
  -7  -3  12   37.90   35.80
   6   3 -12   81.69   27.50
  -6  -3  12  153.98   37.20
  -6  -3  12  105.29   20.70
   5   3 -12   43.00   27.60
   5   3 -12   39.80   20.70
  -5  -3  12   47.30   15.80
  -5  -3  12   34.30   29.40
   4   3 -12  622.24   50.29
   4   3 -12  531.65   58.19
  -4  -3  12  655.13   58.59
  -4  -3  12  568.84   46.60
   3   3 -12  202.78   25.90
  -3  -3  12  214.58   33.00
   2   3 -12   22.20   19.20
   2   3 -12   30.10   14.60
  -2  -3  12  -11.80   18.10
   1   3 -12 1519.05  103.29
   1   3 -12 1515.25  107.09
  -1  -3  12 1499.75  103.69
   0   3 -12   17.80   18.80
   0  -3  12    4.50   12.90
   0  -3  12   -4.00   11.30
  -1   3 -12 1761.32  125.49
   1  -3  12 1896.41  126.09
   1  -3  12 1758.72  117.99
  -2   3 -12   29.10   37.20
   2  -3  12   58.29   25.20
   2  -3  12   76.19   13.20
  -3   3 -12  393.66   47.40
  -3   3 -12  435.76   38.40
   3  -3  12  512.05   50.59
   3  -3  12  521.85   43.40
  -4   3 -12   47.10   17.50
   4  -3  12   40.40   19.10
   4  -3  12  191.28   46.70
  -5   3 -12  186.78   28.50
   5  -3  12  122.79   35.70
   5  -3  12  165.78   29.30
  -6   3 -12   -3.40   25.70
   6  -3  12   14.10   32.60
   6  -3  12   59.09   28.40
  -7   3 -12   39.00   34.50
   7  -3  12   39.70   34.80
   7  -3  12   68.79   37.80
  -8   3 -12   31.30   39.50
   8  -3  12   39.70   39.80
   9   2 -12  -56.39   30.80
  -9  -2  12  -32.60   37.20
   8   2 -12  -77.99   27.50
  -8  -2  12  -32.20   34.80
   7   2 -12   53.69   27.70
  -7  -2  12   90.29   39.40
   6   2 -12   -7.60   39.70
  -6  -2  12   20.70   31.80
   5   2 -12  -21.90   22.90
   5   2 -12   14.40   19.60
  -5  -2  12  -35.30   24.00
  -5  -2  12   -4.40   14.30
   4   2 -12  393.46   44.80
   4   2 -12  423.26   40.20
  -4  -2  12  329.37   36.10
  -4  -2  12  448.86   46.80
   3   2 -12    8.60   21.60
   3   2 -12   47.40   16.70
  -3  -2  12    8.60   22.40
   2   2 -12  665.43   52.49
   2   2 -12  655.83   56.79
  -2  -2  12  656.13   53.19
   1   2 -12   16.90   15.90
   1   2 -12  -39.40   21.20
  -1  -2  12   35.80   15.60
   0   2 -12 1598.64  114.59
  -1   2 -12   48.80   22.60
   1  -2  12   85.09   23.20
  -2   2 -12  501.85   51.09
   2  -2  12  531.75   52.19
  -3   2 -12   65.39   24.90
  -3   2 -12   71.69   16.90
   3  -2  12  101.39   28.10
   3  -2  12  100.09   16.50
  -4   2 -12  403.26   34.90
   4  -2  12  373.36   37.10
   4  -2  12  273.87   44.90
  -5   2 -12   65.09   21.30
   5  -2  12   13.10   30.70
   5  -2  12   41.10   22.20
  -6   2 -12   32.00   26.10
   6  -2  12    1.60   27.10
   6  -2  12   15.90   33.70
  -7   2 -12   31.70   33.40
   7  -2  12   -5.40   35.30
   7  -2  12   24.70   32.10
  -8   2 -12    7.50   37.80
   8  -2  12    2.90   40.00
   9   1 -12   14.90   33.50
  -9  -1  12  125.59   47.10
   8   1 -12  -41.90   27.30
  -8  -1  12   29.10   38.00
   7   1 -12   50.29   27.90
  -7  -1  12    9.00   36.30
   6   1 -12   77.09   25.80
  -6  -1  12   88.99   35.90
   5   1 -12    0.00   24.50
   5   1 -12  -14.80   19.70
  -5  -1  12  -26.10   26.40
  -5  -1  12  -29.20   19.50
   4   1 -12  -10.70   16.80
   4   1 -12    2.10   20.00
  -4  -1  12    7.10   13.80
  -4  -1  12   48.40   24.60
   3   1 -12  704.43   58.69
   3   1 -12  708.53   60.59
  -3  -1  12  799.52   61.09
   2   1 -12  -41.80   32.50
   2   1 -12  -31.70   14.90
  -2  -1  12  -10.80   16.00
   1   1 -12 1887.91  132.99
   1   1 -12 1954.30  127.89
  -1  -1  12 1783.22  124.29
   0   1 -12   -6.30   38.10
   0   1 -12  -23.40   17.50
  -1   1 -12  893.31   75.79
   1  -1  12  976.30   75.79
  -2   1 -12   37.20   23.60
   2  -1  12   41.40   24.80
   3  -1  12  727.73   69.99
  -4   1 -12   29.00   15.30
   4  -1  12   21.60   28.70
   4  -1  12    7.80   18.80
  -5   1 -12   28.60   21.60
   5  -1  12   63.99   23.80
   5  -1  12   45.20   30.90
  -6   1 -12   21.40   26.50
   6  -1  12   12.40   27.70
   6  -1  12   34.60   36.90
  -7   1 -12  112.59   38.40
   7  -1  12  111.39   38.70
   7  -1  12  143.19   44.00
  -8   1 -12   65.19   46.30
   8  -1  12   33.80   43.60
  -9   0  12   26.90   43.00
   8   0 -12   -9.00   30.50
  -8   0  12  -32.40   36.00
   7   0 -12  -10.40   28.20
  -7   0  12   -1.50   35.40
   6   0 -12   75.29   25.90
  -6   0  12   96.59   36.10
   5   0 -12   16.60   21.40
   5   0 -12   78.99   29.50
  -5   0  12   21.60   27.40
   4   0 -12  196.18   35.00
   4   0 -12  221.18   31.70
  -4   0  12  227.78   34.60
  -4   0  12  195.88   27.20
   3   0 -12   39.10   20.00
   3   0 -12   22.20   18.00
  -3   0  12   36.40   21.00
   2   0 -12  254.27   36.50
   2   0 -12  253.57   30.40
   2   0 -12  286.97   33.20
  -2   0  12  298.67   31.70
   1   0 -12   48.60   25.70
   1   0 -12  -12.20   17.90
  -1   0  12    6.90   11.70
   0   0 -12  915.71   77.79
   0   0 -12  982.80   71.79
  -1   0 -12    3.90   21.80
   1   0  12   14.80   23.60
  -2   0 -12  152.78   34.70
   2   0  12  243.28   36.50
   3   0  12  290.87   43.10
  -4   0 -12  162.88   29.60
   4   0  12   98.29   34.30
  -5   0 -12   20.80   20.90
   5   0  12   -8.40   20.70
   5   0  12   23.30   31.20
  -6   0 -12  139.79   32.10
   6   0  12  104.39   31.60
   6   0  12  160.08   44.40
  -7   0 -12   35.30   36.10
   7   0  12   13.60   42.60
   7   0  12   51.29   38.50
   8   0  12   91.49   49.50
   8  -1 -12  -36.50   29.80
  -8   1  12  -25.50   38.30
   7  -1 -12   65.09   30.40
  -7   1  12   83.19   41.30
   6  -1 -12   58.49   26.40
  -6   1  12   86.89   35.60
   5  -1 -12  199.58   32.90
   5  -1 -12  191.88   37.90
  -5   1  12  205.98   38.40
   4  -1 -12  326.27   41.50
   4  -1 -12  382.86   47.90
  -4   1  12  295.87   40.30
   3  -1 -12  515.95   49.30
   3  -1 -12  496.75   49.60
  -3   1  12  590.84   49.40
   2  -1 -12  111.49   30.30
   2  -1 -12   77.39   19.00
   2  -1 -12  131.89   24.20
  -2   1  12   80.49   17.60
   1  -1 -12  262.77   38.20
   1  -1 -12  289.87   33.50
   0  -1 -12  167.38   27.10
   0  -1 -12  130.39   31.20
  -1  -1 -12  243.88   44.90
   2   1  12  -58.19   29.80
   3   1  12   79.29   31.30
   4   1  12  201.18   40.10
  -5  -1 -12    9.20   22.10
   5   1  12  -51.59   29.20
  -6  -1 -12   82.09   31.30
   6   1  12   84.49   32.10
   6   1  12  117.09   42.30
  -7  -1 -12  158.68   39.50
   7   1  12   64.29   43.10
   8   1  12   15.90   44.00
   8  -2 -12    4.70   32.30
  -8   2  12   16.80   39.00
   7  -2 -12  178.78   38.40
  -7   2  12  217.08   44.90
   6  -2 -12  121.89   33.70
  -6   2  12  197.98   42.40
   5  -2 -12  105.59   33.70
   5  -2 -12  129.69   30.80
  -5   2  12  101.19   32.70
   4  -2 -12   39.10   23.00
   4  -2 -12   18.30   22.80
  -4   2  12   43.00   24.40
   3  -2 -12  419.76   45.10
   3  -2 -12  441.96   45.60
  -3   2  12  465.45   43.80
   2  -2 -12   -2.60   35.80
   2  -2 -12   54.49   18.00
  -2   2  12   51.49   16.40
   1  -2 -12   12.80   20.40
   0  -2 -12  174.18   42.00
   2   2  12   51.49   28.70
   3   2  12   18.00   29.60
   4   2  12  110.89   38.10
  -5  -2 -12  125.89   26.40
   5   2  12  106.09   38.50
  -6  -2 -12   86.09   31.00
   6   2  12  154.08   45.90
  -7  -2 -12    1.00   33.70
   7   2  12   -4.80   37.40
   8  -3 -12   73.29   39.10
  -8   3  12  101.19   41.50
   7  -3 -12  105.39   33.00
  -7   3  12  106.69   40.00
   6  -3 -12  351.86   47.90
  -6   3  12  354.86   49.90
   5  -3 -12   47.40   26.80
   5  -3 -12   30.50   26.50
  -5   3  12   41.10   27.90
   4  -3 -12  472.95   53.49
   4  -3 -12  574.14   54.59
  -4   3  12  585.74   54.69
   3  -3 -12   18.80   20.10
   3  -3 -12    8.60   20.70
  -3   3  12   11.00   18.40
   2  -3 -12   -1.90   16.70
   2  -3 -12   -0.20   18.40
  -2   3  12   29.40   15.60
   1  -3 -12  -32.20   18.50
   0  -3 -12  102.89   25.90
   2   3  12  166.88   36.30
   3   3  12   34.00   32.70
   4   3  12   41.00   30.90
  -5  -3 -12  117.49   25.60
   5   3  12   75.09   41.20
  -6  -3 -12  -16.40   25.40
   6   3  12  -54.99   34.90
  -7  -3 -12  101.09   35.90
   7   3  12   99.49   47.30
   8  -4 -12   44.20   32.80
  -8   4  12   77.49   41.50
   7  -4 -12  -44.90   28.30
  -7   4  12   13.60   34.90
   6  -4 -12  -27.90   26.70
  -6   4  12  -22.60   29.70
   5  -4 -12   58.89   26.40
   5  -4 -12   72.99   29.50
  -5   4  12   24.00   27.00
   4  -4 -12   21.90   22.40
   4  -4 -12    7.40   22.80
  -4   4  12   43.00   23.70
   3  -4 -12   56.89   21.50
   3  -4 -12   56.59   23.60
  -3   4  12   25.40   20.80
   2  -4 -12   -2.30   21.20
  -2   4  12   10.00   15.40
   1  -4 -12   30.50   22.40
   1  -4 -12   43.30   14.70
   0  -4 -12   19.70   23.50
   2   4  12   19.50   29.80
   3   4  12  -10.20   29.90
   4   4  12   24.20   34.20
  -5  -4 -12  -15.70   20.90
   5   4  12  -28.50   33.90
  -6  -4 -12  235.68   37.40
   6   4  12   94.69   43.90
  -7  -4 -12    7.50   32.20
   7   4  12  -59.39   38.00
   7  -5 -12   36.10   33.00
  -7   5  12   37.30   35.80
   6  -5 -12  105.69   35.60
  -6   5  12   85.99   35.70
   5  -5 -12    3.50   27.10
   5  -5 -12   45.80   28.20
  -5   5  12   20.80   27.10
   4  -5 -12   19.30   27.30
   4  -5 -12   49.20   31.60
  -4   5  12   13.20   24.10
   3  -5 -12   74.09   23.00
   3  -5 -12   73.49   26.20
  -3   5  12   18.50   21.10
   2  -5 -12   33.60   17.50
   2  -5 -12   -0.20   23.00
  -2   5  12   11.90   17.10
   1  -5 -12  -15.50   17.20
   1  -5 -12  -12.50   20.40
   0  -5 -12  -25.80   23.40
  -1  -5 -12    3.70   22.40
   3   5  12   17.90   32.70
   4   5  12    0.20   34.00
  -5  -5 -12   82.49   25.20
  -5  -5 -12   82.09   22.50
   5   5  12   82.99   40.10
  -6  -5 -12   26.00   27.60
   6   5  12   36.40   40.10
   7  -6 -12    2.10   33.00
  -7   6  12  -23.20   31.40
   6  -6 -12  -33.60   28.60
  -6   6  12  -17.00   29.40
   5  -6 -12   12.90   28.10
  -5   6  12   42.90   31.50
   4  -6 -12    5.90   25.90
   4  -6 -12   11.20   28.40
  -4   6  12   23.50   24.80
   3  -6 -12   11.90   25.00
   3  -6 -12   38.20   20.90
  -3   6  12   30.60   23.00
   2  -6 -12  -12.60   23.50
   2  -6 -12   28.30   18.70
  -2   6  12   20.20   18.20
   1  -6 -12   58.79   24.90
   1  -6 -12   28.40   17.10
   0  -6 -12   13.10   25.20
  -1  -6 -12   -1.40   23.20
   3   6  12  111.39   39.10
  -4  -6 -12  141.69   29.30
   4   6  12  151.68   43.70
  -5  -6 -12   43.50   23.30
  -5  -6 -12   29.20   21.30
   5   6  12   46.20   38.70
  -6  -6 -12  -11.80   25.00
  -6  -6 -12   62.19   27.90
   6   6  12   24.70   42.20
   6  -7 -12   35.90   30.60
  -6   7  12   95.39   33.60
   5  -7 -12   22.90   28.80
  -5   7  12   -4.80   32.30
   4  -7 -12  -22.70   27.40
   4  -7 -12   -0.40   22.90
  -4   7  12  -17.00   24.50
   3  -7 -12  150.58   33.50
   3  -7 -12  122.69   27.00
  -3   7  12  106.29   28.70
   2  -7 -12   13.50   25.40
   2  -7 -12   33.40   18.30
  -2   7  12    6.40   20.40
   1  -7 -12   -1.10   25.20
   1  -7 -12    5.60   15.20
   0  -7 -12   70.09   26.50
   0  -7 -12   87.59   21.10
  -1  -7 -12  -34.20   25.20
  -4  -7 -12   69.99   20.60
  -4  -7 -12   51.39   19.30
   4   7  12   53.29   38.30
  -5  -7 -12    6.50   20.90
  -5  -7 -12   72.09   24.60
   5   7  12   68.09   43.50
   6  -8 -12   26.90   32.90
  -6   8  12   36.90   33.70
   5  -8 -12   98.49   35.10
  -5   8  12   78.99   32.40
   4  -8 -12   14.90   23.50
   4  -8 -12   10.50   29.90
  -4   8  12   78.19   30.10
   3  -8 -12   29.30   24.10
   3  -8 -12   37.20   28.30
  -3   8  12   33.60   25.30
   2  -8 -12   14.60   19.10
   2  -8 -12   24.60   28.80
  -2   8  12  -16.30   22.10
   1  -8 -12    3.90   16.00
   1  -8 -12    1.90   25.70
   0  -8 -12   18.70   25.70
   0  -8 -12   20.40   16.60
  -1  -8 -12    7.70   27.80
  -2  -8 -12  282.47   42.90
  -3  -8 -12   85.59   24.70
  -4  -8 -12   40.20   17.90
  -4  -8 -12   56.79   21.70
   4   8  12  102.49   43.30
   5  -9 -12   22.80   32.40
  -5   9  12    9.30   28.60
   4  -9 -12   22.60   31.50
  -4   9  12   -4.30   27.10
   3  -9 -12    2.10   29.20
   3  -9 -12   13.80   25.20
  -3   9  12  -19.80   25.20
   2  -9 -12   44.80   31.70
   2  -9 -12   10.50   19.80
  -2   9  12   20.70   25.20
   1  -9 -12  -92.89   24.70
   1  -9 -12   -4.80   17.80
   0  -9 -12   28.10   17.50
   0  -9 -12   31.60   30.40
  -1  -9 -12   88.49   32.90
  -1  -9 -12   20.00   17.10
  -1  -9 -12   47.80   25.20
  -2  -9 -12   72.99   24.20
  -2  -9 -12   67.09   26.20
  -2  -9 -12   90.09   34.50
  -3  -9 -12   84.39   23.00
  -3  -9 -12   59.69   18.70
  -4  -9 -12   31.10   19.10
   4 -10 -12   69.39   41.70
  -4  10  12    5.20   35.20
   3 -10 -12   23.40   23.00
   3 -10 -12   -8.10   28.70
  -3  10  12  -10.30   28.70
   2 -10 -12  106.19   29.50
   2 -10 -12  129.09   39.60
  -2  10  12   77.49   29.20
   1 -10 -12   -2.40   20.90
   1 -10 -12   69.09   35.40
   0 -10 -12  180.08   40.20
   0 -10 -12   95.69   23.70
  -1 -10 -12    2.30   17.60
  -1 -10 -12   54.69   34.10
  -1 -10 -12   30.30   29.60
  -2 -10 -12   67.59   34.10
  -2 -10 -12  102.89   38.10
  -2 -10 -12   91.19   22.30
   2 -11 -12  -24.00   52.19
   2 -11 -12   71.69   28.70
  -2  11  12   93.39   31.60
   1 -11 -12  187.88   34.70
   1 -11 -12  326.87   50.89
   0 -11 -12    3.20   35.70
   0 -11 -12   -1.10   21.00
  -2  19 -13   24.60   38.40
   2 -19  13   13.40   17.60
  -3  19 -13  301.47   54.59
  -3  19 -13  248.88   28.30
   3 -19  13  266.87   36.30
  -3 -18  13  160.58   50.39
  -2  18 -13  151.38   44.90
   2 -18  13   98.29   22.00
  -3  18 -13  -37.20   33.30
  -3  18 -13   23.40   13.40
   3 -18  13   27.20   23.20
  -4  18 -13  482.05   47.00
  -4  18 -13  578.24   71.79
   4 -18  13  596.04   56.69
  -4 -17  13  104.79   45.20
  -3 -17  13   70.69   42.00
  -2  17 -13    5.30   10.40
  -2  17 -13   31.20   33.20
   2 -17  13   -0.70   17.50
  -3  17 -13  176.68   42.50
  -3  17 -13   95.69   18.50
   3 -17  13  127.29   28.00
  -4  17 -13   25.70   38.00
  -4  17 -13   18.70   15.10
   4 -17  13    4.30   24.00
  -5  17 -13  713.73   77.59
   5 -17  13  583.34   64.49
  -5 -16  13   78.79   44.30
  -4 -16  13   86.59   42.00
  -3 -16  13  164.28   48.30
  -2  16 -13   64.79   34.60
  -2  16 -13   58.79   13.00
   2 -16  13   55.79   19.00
  -3  16 -13  -17.50   31.80
  -3  16 -13   52.89   14.60
   3 -16  13    3.20   21.50
  -4  16 -13  390.06   41.70
  -4  16 -13  574.94   67.49
   4 -16  13  484.45   51.29
  -5  16 -13  155.08   43.70
   5 -16  13   78.49   33.90
  -6  16 -13  112.59   46.60
   6 -16  13   36.40   32.20
  -6 -15  13   32.10   49.80
  -5 -15  13   45.40   42.40
  -4 -15  13   98.69   45.90
  -3 -15  13  181.78   45.20
  -2  15 -13  101.59   35.00
  -2  15 -13   31.60   11.60
   2 -15  13    1.50   17.90
  -3  15 -13  112.09   36.80
  -3  15 -13   47.20   15.30
   3 -15  13   53.69   23.60
  -4  15 -13   37.30   34.00
  -4  15 -13   -7.00   15.80
   4 -15  13  -44.70   25.00
  -5  15 -13   69.59   36.00
   5 -15  13  -32.60   30.10
  -6  15 -13  193.78   49.10
   6 -15  13  177.88   39.40
  -6 -14  13  -28.50   42.20
  -5 -14  13  -65.89   38.60
  -4 -14  13  150.68   45.40
  -3 -14  13  225.58   50.49
  -2  14 -13  187.38   20.40
  -2  14 -13  214.88   41.20
   2 -14  13  178.88   25.90
  -3  14 -13    0.60   13.80
  -3  14 -13   36.70   31.70
   3 -14  13    2.30   21.50
  -4  14 -13  -24.30   30.10
  -4  14 -13   12.30   16.80
   4 -14  13    8.50   23.60
  -5  14 -13  108.99   41.00
   5 -14  13   85.09   51.49
  -6  14 -13  -16.10   33.20
   6 -14  13   38.30   32.90
  -7  14 -13  184.98   49.40
   7 -14  13   80.59   38.60
   7  13 -13   52.69   22.10
  -7 -13  13   65.39   15.10
  -7 -13  13  141.99   49.99
  -6 -13  13   42.30   43.80
  -5 -13  13  174.88   48.40
  -4 -13  13   94.99   44.10
  -3 -13  13  122.49   38.90
  -2  13 -13   36.90   30.10
  -2  13 -13   51.79   14.20
   2 -13  13   58.49   19.90
  -3  13 -13   19.10   14.10
  -3  13 -13   15.20   29.50
   3 -13  13  -17.50   20.40
  -4  13 -13   43.80   33.60
  -4  13 -13   11.30   17.70
   4 -13  13  -24.00   23.50
  -5  13 -13   49.90   34.30
  -6  13 -13   92.09   39.20
   6 -13  13   55.99   33.50
  -7  13 -13   -3.40   36.50
   7 -13  13   -6.40   32.80
   7  12 -13   -9.00   22.40
  -7 -12  13   18.40   13.90
  -7 -12  13   49.10   48.20
   6  12 -13  255.67   30.50
  -6 -12  13  286.37   27.20
  -6 -12  13  293.87   54.39
  -5 -12  13  -32.90   34.70
  -4 -12  13  155.48   41.60
  -3 -12  13  103.39   37.50
  -2 -12  13   87.59   31.50
  -1  12 -13  286.27   31.40
  -2  12 -13   73.39   15.60
   2 -12  13   34.10   19.60
  -3  12 -13   69.69   17.70
  -3  12 -13   79.79   30.40
   3 -12  13   45.60   22.80
  -4  12 -13   29.60   17.00
  -4  12 -13   72.89   31.80
   4 -12  13    9.20   26.60
  -5  12 -13  -24.40   30.10
  -6  12 -13    5.00   31.40
   6 -12  13   20.50   31.10
  -7  12 -13  -94.49   33.70
   7 -12  13   21.40   34.10
  -8  12 -13   49.60   42.50
   8 -12  13   -7.70   35.20
   7  11 -13  164.28   30.80
  -7 -11  13  145.59   21.10
  -7 -11  13  170.58   49.60
   6  11 -13   10.20   19.40
  -6 -11  13    4.70   11.60
  -6 -11  13   51.59   40.40
  -5 -11  13  583.64   69.69
  -4 -11  13  132.79   41.20
  -3 -11  13   30.40   30.70
  -2 -11  13   50.49   35.10
  -1 -11  13   -1.00   21.50
   0 -11  13  -14.10   20.00
  -1  11 -13   76.59   14.80
   1 -11  13   71.99   17.60
   1 -11  13   68.49   23.50
  -2  11 -13   16.60   13.00
  -2  11 -13    3.80   24.90
   2 -11  13  -27.50   21.40
   2 -11  13   10.60   17.30
  -3  11 -13   32.40   28.50
  -3  11 -13   79.39   19.00
   3 -11  13   65.89   27.60
   3 -11  13   93.49   25.20
  -4  11 -13  295.27   50.99
  -4  11 -13  226.68   31.30
   4 -11  13  205.48   34.80
  -5  11 -13  -14.10   27.30
  -6  11 -13   44.20   34.20
   6 -11  13   17.90   30.60
  -7  11 -13   24.40   35.20
   7 -11  13   -5.50   34.90
  -8  11 -13   22.90   40.90
   8 -11  13   69.39   41.50
   8  10 -13  234.88   40.90
  -8 -10  13  182.18   26.30
  -8 -10  13  279.87   58.09
   7  10 -13    6.00   26.00
  -7 -10  13   41.60   15.30
  -7 -10  13  -28.90   36.00
   6  10 -13  444.86   43.10
  -6 -10  13  432.16   61.59
  -6 -10  13  370.36   34.60
   5  10 -13    7.40   16.40
  -5 -10  13  -41.90   32.10
  -4 -10  13    2.60   29.60
  -3 -10  13  287.37   46.20
  -2 -10  13  -10.70   19.40
  -2 -10  13    9.90   24.90
  -1 -10  13  266.87   36.20
   0 -10  13  -10.70   18.50
  -1  10 -13    8.20   11.90
   1 -10  13    5.20   16.00
   1 -10  13  -29.00   18.50
  -2  10 -13  176.28   23.90
  -2  10 -13  174.18   31.80
   2 -10  13  154.68   25.30
   2 -10  13  165.18   30.60
  -3  10 -13   -4.10   15.00
  -3  10 -13   19.50   24.60
   3 -10  13    8.50   19.90
   3 -10  13   17.50   21.50
  -4  10 -13   41.50   28.10
  -4  10 -13    6.70   18.40
   4 -10  13   39.20   25.50
   4 -10  13   -0.50   23.40
  -5  10 -13   65.59   31.70
   5 -10  13  100.09   49.20
  -6  10 -13   80.29   35.80
   6 -10  13   76.69   34.00
  -7  10 -13    0.50   37.30
   7 -10  13   56.69   37.20
  -8  10 -13  148.69   46.50
   8 -10  13   51.09   42.50
   8   9 -13   47.30   30.60
  -8  -9  13   13.00   16.60
  -8  -9  13  -25.10   37.40
   7   9 -13  292.37   39.80
  -7  -9  13  285.97   54.39
  -7  -9  13  211.28   33.40
   6   9 -13  -18.40   19.20
  -6  -9  13  -15.60   35.30
  -6  -9  13   11.40   12.30
   5   9 -13   80.19   20.30
  -5  -9  13   72.29   14.50
  -5  -9  13  142.69   39.10
   4   9 -13    8.60   13.70
  -4  -9  13    9.30   30.50
  -3  -9  13  631.74   64.59
  -2  -9  13  240.08   36.60
  -2  -9  13  193.48   30.30
  -1  -9  13    6.70   21.30
   0   9 -13  628.94   59.09
   0  -9  13  708.33   59.09
  -1   9 -13   13.80   13.20
   1  -9  13   14.90   18.70
   1  -9  13   24.90   16.90
  -2   9 -13   -1.40   21.10
  -2   9 -13   -9.10   16.60
   2  -9  13    1.20   18.20
   2  -9  13    9.20   18.00
  -3   9 -13   15.80   17.20
  -3   9 -13   32.20   24.30
   3  -9  13    1.00   21.30
  -4   9 -13   32.60   20.80
  -4   9 -13   63.69   26.10
   4  -9  13   71.99   26.30
   4  -9  13   52.89   22.80
  -5   9 -13    1.80   27.10
   5  -9  13   64.99   33.10
   5  -9  13   30.00   26.40
  -6   9 -13   35.10   30.70
   6  -9  13   20.50   33.00
  -7   9 -13  188.08   44.20
   7  -9  13  159.38   43.40
  -8   9 -13  263.37   54.69
   8  -9  13  204.38   50.99
   8   8 -13  216.88   50.09
  -8  -8  13  274.47   55.39
   7   8 -13   16.60   26.10
  -7  -8  13   27.50   16.70
  -7  -8  13  -16.60   36.90
   6   8 -13  183.38   29.30
  -6  -8  13  191.78   43.80
  -6  -8  13  140.79   20.90
   5   8 -13  253.87   30.80
  -5  -8  13  308.87   49.10
  -5  -8  13  220.78   24.30
   4   8 -13   39.20   15.60
   3   8 -13  938.41   73.59
   3   8 -13 1063.69   71.79
  -3  -8  13 1183.28   86.89
   2   8 -13   97.49   16.30
  -2  -8  13   88.69   25.90
  -2  -8  13  143.99   29.30
   1   8 -13  380.36   40.20
   1   8 -13  453.65   33.00
  -1  -8  13  437.16   45.70
  -1  -8  13  398.36   44.20
   0   8 -13  419.26   40.00
   0  -8  13  566.24   47.00
  -1   8 -13   23.80   16.00
   1  -8  13    4.80   18.40
   1  -8  13   62.89   19.30
  -2   8 -13    2.60   16.50
  -2   8 -13    2.20   18.50
   2  -8  13   32.10   18.00
   2  -8  13   17.90   19.60
  -3   8 -13  418.36   42.30
  -3   8 -13  278.67   35.90
   3  -8  13  300.87   36.70
   3  -8  13  282.57   38.50
  -4   8 -13  185.88   30.90
  -4   8 -13  172.88   32.90
   4  -8  13  259.17   37.20
   4  -8  13  205.98   52.19
  -5   8 -13   62.09   28.30
   5  -8  13   67.59   31.40
   5  -8  13   53.09   27.60
  -6   8 -13   73.59   57.39
   6  -8  13  -24.60   32.60
  -7   8 -13  279.67   49.20
   7  -8  13  139.29   46.80
  -8   8 -13  155.98   44.40
   8  -8  13   59.99   41.60
   8   7 -13   26.50   30.70
  -8  -7  13   57.49   41.40
   7   7 -13  207.98   33.80
  -7  -7  13  219.28   49.99
  -7  -7  13  148.09   25.20
   6   7 -13   30.50   22.30
  -6  -7  13   46.00   36.80
  -6  -7  13   11.40   13.90
   5   7 -13  336.77   33.30
  -5  -7  13  262.47   28.40
  -5  -7  13  285.77   49.50
   4   7 -13  385.36   36.60
  -4  -7  13  451.85   52.29
   3   7 -13   79.19   15.80
   3   7 -13   55.79   18.50
  -3  -7  13   86.89   29.00
   2   7 -13  677.23   47.10
   2   7 -13  611.34   49.60
  -2  -7  13  571.54   54.89
  -2  -7  13  707.63   59.69
   1   7 -13  316.77   26.90
   1   7 -13  266.77   29.30
  -1  -7  13  268.57   35.50
  -1  -7  13  285.37   33.70
   0   7 -13  383.26   35.30
   0  -7  13  338.57   37.40
  -1   7 -13  437.66   43.20
   1  -7  13  523.45   45.10
   1  -7  13  493.95   44.90
  -2   7 -13  145.59   25.40
  -2   7 -13  190.18   27.00
   2  -7  13  126.59   23.80
   2  -7  13  142.19   27.10
  -3   7 -13  482.45   56.39
  -3   7 -13  552.24   50.49
   3  -7  13  576.14   53.09
   3  -7  13  557.34   49.80
  -4   7 -13  159.98   30.50
  -4   7 -13  227.88   30.70
   4  -7  13  115.59   26.50
   4  -7  13  205.88   34.60
  -5   7 -13  105.69   30.60
   5  -7  13   65.49   31.80
   5  -7  13   60.39   28.00
  -6   7 -13  109.19   32.70
   6  -7  13   22.80   31.50
   6  -7  13   65.99   30.10
  -7   7 -13  155.48   39.80
   7  -7  13  104.89   42.00
  -8   7 -13   26.70   38.50
   8  -7  13   15.10   41.70
   8   6 -13   24.30   29.70
  -8  -6  13   50.79   38.80
   7   6 -13  124.49   31.00
  -7  -6  13  219.18   47.40
  -7  -6  13   97.49   22.60
   6   6 -13   37.80   22.40
  -6  -6  13   20.30   16.80
  -6  -6  13   60.99   35.30
   5   6 -13  532.35   45.90
  -5  -6  13  483.75   41.90
  -5  -6  13  502.85   58.99
   4   6 -13  237.88   26.30
  -4  -6  13  173.88   38.30
   3   6 -13  440.46   42.70
   3   6 -13  474.65   39.80
  -3  -6  13  528.75   53.09
   2   6 -13  619.34   43.40
   2   6 -13  480.45   46.10
  -2  -6  13  524.05   53.89
   1   6 -13   68.39   19.50
   1   6 -13   69.29   15.40
  -1  -6  13  105.79   20.50
  -1  -6  13   65.09   21.60
   0   6 -13 1475.25  102.79
   0  -6  13 1455.35  102.49
  -1   6 -13  110.49   22.40
   1  -6  13  130.19   20.80
   1  -6  13  123.49   24.90
  -2   6 -13  839.32   72.49
  -2   6 -13  989.60   70.69
   2  -6  13 1026.30   74.29
   2  -6  13  921.51   69.99
  -3   6 -13   89.29   22.80
  -3   6 -13  125.59   26.60
   3  -6  13  117.59   22.80
   3  -6  13  118.59   29.10
  -4   6 -13  282.77   41.00
  -4   6 -13  425.96   41.50
   4  -6  13  401.26   47.30
   4  -6  13  368.56   40.30
  -5   6 -13   87.99   26.00
   5  -6  13   59.49   24.80
   5  -6  13   97.29   32.80
  -6   6 -13   46.90   30.20
   6  -6  13   60.89   29.40
   6  -6  13  115.29   37.50
  -7   6 -13   97.79   42.00
   7  -6  13  109.79   37.50
  -8   6 -13  -11.70   37.10
   8  -6  13   -6.00   36.80
   8   5 -13   38.70   31.00
  -8  -5  13   -0.60   38.10
  -7  -5  13   27.30   34.60
   6   5 -13  224.78   30.90
  -6  -5  13  163.88   42.90
  -6  -5  13  169.78   24.80
   5   5 -13   -4.30   19.40
  -5  -5  13   -9.10   14.20
   4   5 -13  199.88   26.50
  -4  -5  13  136.99   35.20
   3   5 -13  154.18   25.20
   3   5 -13  129.69   20.80
  -3  -5  13  158.68   30.70
   2   5 -13  408.76   40.60
   2   5 -13  436.86   36.50
  -2  -5  13  409.36   45.10
   1   5 -13  900.21   60.49
   1   5 -13  758.52   63.89
  -1  -5  13  834.32   62.89
  -1  -5  13  781.12   64.19
   0   5 -13   19.80   18.40
   0  -5  13   23.60   15.30
   0  -5  13   12.30   16.20
  -1   5 -13 1549.05  113.19
   1  -5  13 1637.94  113.19
   1  -5  13 1623.04  109.39
  -2   5 -13  139.59   27.00
   2  -5  13  142.89   20.60
   2  -5  13  171.28   28.70
  -3   5 -13  484.25   51.79
  -3   5 -13  580.84   46.90
   3  -5  13  547.85   46.40
   3  -5  13  532.95   53.99
  -4   5 -13   82.69   21.50
   4  -5  13  120.29   34.10
   4  -5  13   55.09   21.40
  -5   5 -13  180.68   29.40
   5  -5  13  105.49   27.60
   5  -5  13  138.89   37.60
  -6   5 -13   89.19   29.80
   6  -5  13   49.30   29.30
   6  -5  13   37.10   34.40
  -7   5 -13   60.39   35.80
   7  -5  13   20.50   36.70
  -8   5 -13   17.00   38.80
   8  -5  13   18.80   39.80
   8   4 -13  -42.90   26.60
  -8  -4  13   -9.00   34.50
   7   4 -13   21.90   25.90
  -7  -4  13   16.40   33.90
   6   4 -13    7.30   21.30
  -6  -4  13   -6.60   32.30
  -6  -4  13   -5.70   14.00
   5   4 -13  100.49   22.20
  -5  -4  13   30.70   30.60
  -5  -4  13   53.89   16.90
   4   4 -13  151.58   25.40
  -4  -4  13  151.68   20.70
  -4  -4  13  186.58   35.50
   3   4 -13   -9.60   19.00
   3   4 -13    3.60   16.00
  -3  -4  13   36.80   24.60
   2   4 -13  904.41   73.69
   2   4 -13 1009.50   70.39
  -2  -4  13 1001.90   75.19
   1   4 -13   50.89   17.10
   1   4 -13   57.69   23.10
  -1  -4  13   17.70   15.10
  -1  -4  13   81.69   19.60
   0   4 -13 1817.02  128.69
   0  -4  13 1852.21  123.79
   0  -4  13 1862.41  124.69
  -1   4 -13   39.40   21.40
   1  -4  13  116.59   23.60
  -2   4 -13  895.01   81.49
   2  -4  13 1074.59   78.29
   2  -4  13  926.81   77.89
  -3   4 -13  182.68   32.10
  -3   4 -13  152.68   22.20
   3  -4  13  133.09   30.80
   3  -4  13  203.38   23.60
  -4   4 -13   89.89   21.30
   4  -4  13   97.29   35.30
   4  -4  13  103.19   22.90
  -5   4 -13  208.38   31.00
   5  -4  13  173.78   30.80
   5  -4  13  199.28   40.10
  -6   4 -13  172.98   33.90
   6  -4  13  101.19   37.20
   6  -4  13  122.89   35.10
  -7   4 -13  -45.80   30.60
   7  -4  13   60.09   33.20
   7  -4  13    2.30   36.10
  -8   4 -13   -2.20   37.20
   8  -4  13  -12.30   38.50
   8   3 -13  -41.60   27.00
  -8  -3  13   18.60   38.70
   7   3 -13   35.20   26.90
  -7  -3  13   11.20   35.50
   6   3 -13  -24.90   34.30
  -6  -3  13   -2.40   28.10
   5   3 -13   -4.00   19.60
   5   3 -13   -7.80   25.00
  -5  -3  13   10.40   15.50
  -5  -3  13   17.10   28.60
   4   3 -13   33.10   18.50
  -4  -3  13   17.30   15.80
  -4  -3  13  112.09   29.70
   3   3 -13  363.66   34.50
   3   3 -13  260.67   36.00
  -3  -3  13  312.27   39.00
   2   3 -13    8.60   15.30
   2   3 -13  -23.60   19.20
  -2  -3  13   13.20   20.30
   1   3 -13  884.01   65.19
   1   3 -13  875.51   70.09
  -1  -3  13  873.81   65.29
  -1  -3  13  869.21   63.49
   0   3 -13   14.70   22.30
   0  -3  13   20.60   14.00
   0  -3  13   16.80   11.20
  -1   3 -13 1348.07  120.39
   1  -3  13 1457.55  103.49
  -2   3 -13   31.20   21.90
   2  -3  13   40.30   22.80
  -3   3 -13  252.77   38.30
  -3   3 -13  259.47   29.40
   3  -3  13  314.17   41.20
   3  -3  13  231.28   30.60
  -4   3 -13  212.98   26.80
   4  -3  13  178.28   40.00
   4  -3  13  226.28   27.50
  -5   3 -13  189.68   28.30
   5  -3  13  127.99   28.40
   5  -3  13  167.88   38.50
  -6   3 -13   42.40   27.40
   6  -3  13   77.09   30.90
   6  -3  13   55.39   37.00
  -7   3 -13   56.29   35.30
   7  -3  13   69.49   37.20
   7  -3  13   87.79   39.60
  -8   3 -13   41.40   40.80
   8  -3  13   51.19   42.50
   8   2 -13   53.79   32.70
  -8  -2  13   35.20   41.70
   7   2 -13   47.60   27.80
  -7  -2  13  -20.50   36.60
   6   2 -13   -3.40   22.40
  -6  -2  13   25.60   31.10
   5   2 -13   -0.20   26.50
   5   2 -13  -12.70   18.60
  -5  -2  13   -5.20   28.10
  -5  -2  13   -8.60   16.20
   4   2 -13   57.39   26.00
   4   2 -13   72.69   21.70
  -4  -2  13  114.79   28.80
  -4  -2  13   60.29   17.10
   3   2 -13  163.08   28.90
   3   2 -13  164.88   24.10
  -3  -2  13  145.69   28.20
   2   2 -13  286.87   30.90
   2   2 -13  323.87   54.49
  -2  -2  13  224.08   29.70
   1   2 -13  106.09   21.40
   1   2 -13   72.09   33.70
  -1  -2  13   83.19   19.50
   0   2 -13  674.83   76.09
   0   2 -13  869.31   62.19
  -1   2 -13   82.79   25.70
   1  -2  13   66.69   25.00
  -2   2 -13   -2.00   22.00
   2  -2  13   49.80   25.40
  -4   2 -13  177.38   22.90
   4  -2  13  206.28   37.90
   4  -2  13  162.48   26.30
  -5   2 -13   57.69   22.00
   5  -2  13   46.30   23.80
   5  -2  13   38.00   33.20
  -6   2 -13   47.70   28.00
   6  -2  13   -8.10   27.70
   6  -2  13   46.40   37.20
  -7   2 -13  122.09   39.20
   7  -2  13  147.39   46.20
   7  -2  13   72.19   40.40
  -8   2 -13   71.19   45.20
   8  -2  13  -21.00   41.30
   8   1 -13    7.80   31.30
  -8  -1  13   22.80   41.10
   7   1 -13   45.60   30.40
  -7  -1  13   69.49   38.90
   6   1 -13  263.47   39.40
  -6  -1  13  309.07   48.60
   5   1 -13  161.58   31.20
   5   1 -13  157.98   33.10
  -5  -1  13  150.28   36.90
   4   1 -13  118.59   25.20
   4   1 -13  114.49   29.60
  -4  -1  13   85.19   19.90
  -4  -1  13  165.68   31.90
   3   1 -13   -8.00   20.00
   3   1 -13   11.50   22.00
   3   1 -13   41.30   17.10
  -3  -1  13   75.79   22.80
   2   1 -13   33.10   22.30
   2   1 -13   28.60   17.80
  -2  -1  13   25.40   16.50
   1   1 -13  680.03   52.19
   1   1 -13  596.54   57.29
  -1  -1  13  578.74   45.70
   0   1 -13  174.38   33.70
   0   1 -13  252.87   28.90
  -1   1 -13   59.29   25.50
   1  -1  13  109.69   27.60
   2  -1  13  155.88   33.00
   3  -1  13   10.60   28.00
   4  -1  13  219.58   40.50
   4  -1  13  118.89   23.50
  -5   1 -13    5.30   18.60
   5  -1  13   11.10   23.00
   5  -1  13   24.20   32.90
  -6   1 -13   67.59   29.70
   6  -1  13  -10.10   38.00
   6  -1  13   12.70   29.30
  -7   1 -13  176.48   40.20
   7  -1  13  113.99   46.30
   8  -1  13  108.29   50.19
   8   0 -13   -9.60   30.50
  -8   0  13   -6.10   40.30
   7   0 -13   94.59   33.90
  -7   0  13  220.98   47.10
   6   0 -13   85.09   29.80
  -6   0  13  139.99   38.10
   5   0 -13  277.27   43.50
   5   0 -13  199.18   33.10
  -5   0  13  225.18   41.80
   4   0 -13  172.78   32.90
   4   0 -13  155.38   35.40
  -4   0  13  198.98   35.00
   3   0 -13  501.25   49.99
   3   0 -13  546.95   50.09
  -3   0  13  586.54   50.49
   2   0 -13   51.49   21.40
   2   0 -13   25.50   23.60
  -2   0  13   43.80   16.60
   1   0 -13  118.39   29.50
   1   0 -13  120.79   24.40
   0   0 -13   43.60   26.20
   0   0 -13   52.49   19.40
   2   0  13  -12.70   25.20
   3   0  13    5.30   28.30
   4   0  13   18.10   32.40
  -5   0 -13   50.89   20.70
   5   0  13  118.99   36.10
  -6   0 -13   67.99   27.80
   6   0  13  127.29   32.30
   6   0  13   66.39   38.10
  -7   0 -13   63.09   37.30
   7   0  13   39.90   39.70
  -8   0 -13   78.39   54.09
   8  -1 -13  203.58   41.50
  -8   1  13  186.78   51.09
   7  -1 -13  250.07   43.30
  -7   1  13  270.07   52.39
   6  -1 -13  256.57   41.20
  -6   1  13  302.47   49.00
   5  -1 -13  -38.30   21.50
   5  -1 -13    4.90   25.30
  -5   1  13    1.30   28.00
   4  -1 -13   19.40   24.20
   4  -1 -13   -1.80   20.50
  -4   1  13  -15.70   22.20
   3  -1 -13   32.60   21.60
   3  -1 -13   35.80   21.90
  -3   1  13   36.40   20.40
   2  -1 -13  214.88   25.80
  -2   1  13  173.98   23.40
   1  -1 -13  105.99   31.90
   2   1  13   35.10   28.00
   3   1  13    6.90   27.70
   4   1  13  -21.20   31.90
  -5  -1 -13   60.89   20.40
   5   1  13   92.39   38.50
  -6  -1 -13   12.10   25.20
   6   1  13  -52.49   34.40
  -7  -1 -13  204.28   43.60
   7   1  13  190.48   53.39
   8  -2 -13   48.70   33.90
  -8   2  13   36.60   41.10
   7  -2 -13  106.59   34.30
  -7   2  13  145.49   44.30
   6  -2 -13   24.90   28.70
  -6   2  13   33.40   31.10
   5  -2 -13   71.09   30.90
   5  -2 -13   40.50   27.30
  -5   2  13   68.29   30.10
   4  -2 -13   10.60   23.10
   4  -2 -13  -30.30   22.80
  -4   2  13   -4.70   21.40
   3  -2 -13  110.29   26.60
   3  -2 -13  108.39   25.50
  -3   2  13   97.79   24.50
   2  -2 -13  194.48   25.50
   2  -2 -13  160.28   31.70
  -2   2  13  185.68   23.40
   1  -2 -13   44.20   23.20
   0  -2 -13  155.28   28.50
   2   2  13   85.99   30.50
   3   2  13   29.40   32.90
   4   2  13   10.60   32.10
  -5  -2 -13    6.80   17.30
   5   2  13    0.70   33.80
  -6  -2 -13  217.08   35.60
   6   2  13  113.59   45.00
  -7  -2 -13   10.60   32.50
   7   2  13   84.69   44.80
   7  -3 -13  -26.10   26.70
  -7   3  13  -53.69   30.90
   6  -3 -13  -44.80   26.30
  -6   3  13  -15.20   29.70
   5  -3 -13   51.29   28.10
   5  -3 -13   43.80   29.60
  -5   3  13   96.39   30.70
   4  -3 -13   21.50   25.10
   4  -3 -13   12.40   25.90
  -4   3  13   30.30   24.80
   3  -3 -13   21.90   22.20
   3  -3 -13  -15.60   21.50
  -3   3  13   -2.60   17.80
   2  -3 -13   37.30   23.40
   2  -3 -13   59.99   18.50
  -2   3  13   44.90   16.60
   1  -3 -13    3.60   23.10
   0  -3 -13   18.30   22.00
   2   3  13    7.70   29.90
   3   3  13   60.59   33.00
   4   3  13   14.80   35.20
  -5  -3 -13    4.50   20.30
   5   3  13  -13.30   34.10
  -6  -3 -13   30.80   27.10
   6   3  13  138.19   46.60
  -7  -3 -13  182.68   39.80
   7  -4 -13    8.10   34.40
  -7   4  13  -22.10   35.50
   6  -4 -13  -11.80   29.60
  -6   4  13   59.49   33.30
   5  -4 -13   24.70   29.10
   5  -4 -13   62.59   30.00
  -5   4  13    8.70   26.70
   4  -4 -13   42.60   28.80
   4  -4 -13   57.99   26.90
  -4   4  13   36.30   23.80
   3  -4 -13   28.40   22.40
   3  -4 -13   47.20   26.40
  -3   4  13   20.60   19.60
   2  -4 -13   51.59   19.00
   2  -4 -13   -1.30   23.20
  -2   4  13   10.00   16.60
   1  -4 -13   64.89   25.10
   0  -4 -13   44.20   25.20
  -1  -4 -13   10.80   23.20
   3   4  13  140.99   38.50
   4   4  13   27.40   36.60
  -5  -4 -13  125.19   28.30
   5   4  13  115.39   43.40
  -6  -4 -13  148.09   32.70
   6   4  13  106.39   47.90
   7  -5 -13   10.70   30.70
  -7   5  13    0.20   33.30
   6  -5 -13  107.49   35.70
  -6   5  13  110.39   37.80
   5  -5 -13   19.30   31.90
   5  -5 -13   27.00   29.20
  -5   5  13   17.60   28.50
   4  -5 -13    5.90   27.60
   4  -5 -13   19.40   33.40
  -4   5  13   32.20   23.60
   3  -5 -13   23.00   26.00
   3  -5 -13   22.60   21.50
  -3   5  13   49.90   22.30
   2  -5 -13    7.30   18.50
   2  -5 -13   -9.70   24.20
  -2   5  13  -28.40   16.40
   1  -5 -13   85.39   29.60
   0  -5 -13   67.89   28.30
  -1  -5 -13    6.00   22.80
   3   5  13  -39.40   32.70
   4   5  13  227.48   47.40
  -5  -5 -13   48.30   23.80
   5   5  13   17.90   38.40
  -6  -5 -13   -2.60   21.80
  -6  -5 -13  -15.40   21.90
   6   5  13   -9.30   47.80
   6  -6 -13  132.19   35.80
  -6   6  13  109.69   38.10
   5  -6 -13  115.29   36.50
  -5   6  13  193.88   45.50
   4  -6 -13   61.39   32.20
   4  -6 -13    1.10   29.90
  -4   6  13   -8.60   26.30
   3  -6 -13  156.68   30.00
   3  -6 -13  229.68   37.60
  -3   6  13  138.59   27.90
   2  -6 -13   52.49   27.50
   2  -6 -13   30.10   18.70
  -2   6  13   39.50   20.70
   1  -6 -13   16.00   25.50
   0  -6 -13   13.50   25.10
  -1  -6 -13   75.39   31.20
   4   6  13   77.59   41.20
  -5  -6 -13  180.08   29.40
   5   6  13  140.29   44.90
   6  -7 -13  305.97   47.90
   5  -7 -13   71.89   32.30
  -5   7  13   76.69   37.00
   4  -7 -13   77.59   29.60
   4  -7 -13   87.69   34.20
  -4   7  13   46.80   28.90
   3  -7 -13    8.70   29.60
   3  -7 -13   15.20   21.50
  -3   7  13  -22.60   22.80
   2  -7 -13   35.50   20.60
   2  -7 -13  -30.50   28.20
  -2   7  13   -5.00   21.20
   1  -7 -13   40.50   23.40
   1  -7 -13   75.99   31.70
   0  -7 -13   18.60   28.20
  -1  -7 -13   59.89   29.80
  -2  -7 -13   16.00   30.20
   4   7  13  201.68   48.20
   5  -8 -13   29.40   31.80
  -5   8  13   61.69   32.70
   4  -8 -13  176.48   40.80
   4  -8 -13  101.09   31.80
  -4   8  13  213.88   36.30
   3  -8 -13   56.59   26.00
   3  -8 -13   16.10   30.70
  -3   8  13   20.80   26.00
   2  -8 -13   66.69   35.50
   2  -8 -13   77.99   22.70
  -2   8  13   36.90   22.60
   1  -8 -13  -11.30   29.60
   1  -8 -13   42.60   19.70
   0  -8 -13  239.98   39.80
   0  -8 -13  139.99   23.80
  -1  -8 -13  -41.70   29.80
  -2  -8 -13  269.07   45.00
   4  -9 -13   17.60   36.50
  -4   9  13  -27.60   27.10
   3  -9 -13  207.08   42.80
  -3   9  13  121.69   34.00
   2  -9 -13   85.89   25.20
   2  -9 -13   98.09   37.70
  -2   9  13   84.49   27.20
   1  -9 -13  231.18   44.20
   1  -9 -13  181.78   28.30
   0  -9 -13   15.10   33.50
  -1  -9 -13  193.18   41.30
  -2  -9 -13   26.40   33.30
   2 -10 -13  241.18   69.69
   2 -10 -13  129.39   30.40
   1 -10 -13   35.70   21.60
   1 -10 -13  -14.80   37.50
   0 -10 -13  119.29   23.90
   0 -10 -13  233.88   51.19
  -3  19 -14  135.49   21.30
  -3  19 -14  130.69   45.50
   3 -19  14  129.19   28.90
  -3 -18  14  211.38   55.49
  -2  18 -14  139.99   44.80
  -3  18 -14   26.40   38.90
  -3  18 -14   17.80   13.70
   3 -18  14  -13.20   21.20
  -4  18 -14   47.20   18.90
  -4  18 -14  104.49   44.50
   4 -18  14   89.39   28.80
  -4 -17  14  201.28   54.49
  -3 -17  14  112.59   43.40
  -2  17 -14    4.70   35.10
  -3  17 -14   38.30   36.30
  -3  17 -14   54.89   14.70
   3 -17  14   26.90   22.50
  -4  17 -14   24.90   35.40
  -4  17 -14   11.10   16.20
   4 -17  14  -23.10   23.90
  -5  17 -14  147.29   47.00
   5 -17  14  144.99   35.30
  -5 -16  14   67.89   45.30
  -4 -16  14   71.39   43.10
  -3 -16  14  203.78   49.40
  -2  16 -14   36.70   11.20
  -2  16 -14   88.09   35.30
   2 -16  14   27.20   17.80
  -3  16 -14   33.80   32.30
  -3  16 -14   21.00   14.00
   3 -16  14   25.20   22.90
  -4  16 -14   26.20   35.30
  -4  16 -14   45.50   17.60
   4 -16  14   17.40   24.90
  -5  16 -14  184.28   48.00
   5 -16  14   91.79   37.70
  -6  16 -14   14.80   40.70
   6 -16  14   42.40   33.00
  -5 -15  14  224.68   55.69
  -4 -15  14  191.88   53.39
  -3 -15  14  229.28   49.60
  -2  15 -14  -20.10   30.80
  -2  15 -14    1.00   10.50
   2 -15  14   10.90   17.30
  -3  15 -14   28.80   33.30
  -3  15 -14   10.90   12.90
   3 -15  14   16.80   20.70
  -4  15 -14  -37.90   33.60
  -4  15 -14   16.10   16.80
   4 -15  14   11.40   25.60
  -5  15 -14   13.40   36.50
   5 -15  14   25.80   29.30
  -6  15 -14   45.50   40.70
   6 -15  14   17.60   31.90
  -6 -14  14  215.18   55.79
  -5 -14  14  -15.70   37.00
  -4 -14  14  173.08   46.10
  -3 -14  14  115.09   42.70
  -2  14 -14   45.40   31.10
  -2  14 -14   37.30   11.80
   2 -14  14   21.70   18.10
  -3  14 -14  124.79   38.10
  -3  14 -14   51.09   17.00
   3 -14  14   78.29   24.70
  -4  14 -14   32.60   18.20
  -4  14 -14   71.99   35.60
   4 -14  14   15.50   25.70
  -5  14 -14   33.30   37.10
   5 -14  14   50.99   33.70
  -6  14 -14  -11.10   35.50
   6 -14  14   12.40   31.60
  -7  14 -14   25.70   40.90
   7 -14  14   21.80   34.20
  -6 -13  14  -57.49   37.80
  -5 -13  14  488.25   66.09
  -4 -13  14   45.20   38.60
  -3 -13  14  178.18   44.20
  -2 -13  14   14.40   27.80
  -2  13 -14  193.08   23.90
  -2  13 -14  295.27   44.00
   2 -13  14  234.88   29.50
  -3  13 -14   42.70   30.10
  -3  13 -14   68.69   17.90
   3 -13  14   69.99   24.30
  -4  13 -14   29.00   33.90
  -4  13 -14   50.39   17.90
   4 -13  14   60.39   27.20
  -5  13 -14   24.60   34.80
   5 -13  14  -10.60   30.00
  -6  13 -14  -37.30   34.00
   6 -13  14   17.80   30.40
  -7  13 -14   51.49   39.90
   7 -13  14  -19.50   33.80
   7  12 -14   13.80   21.80
  -7 -12  14   -4.00   42.80
  -7 -12  14    1.40   12.50
  -6 -12  14  312.77   58.29
  -5 -12  14   89.29   40.60
  -4 -12  14  137.59   43.10
  -3 -12  14   20.90   31.80
  -2 -12  14  -40.00   27.10
  -1  12 -14   72.59   18.80
   1 -12  14   82.69   19.30
  -2  12 -14  174.48   22.00
  -2  12 -14  170.38   50.89
   2 -12  14  152.78   25.50
  -3  12 -14   35.80   29.00
  -3  12 -14   51.69   18.00
   3 -12  14   49.80   23.30
  -4  12 -14  252.37   42.80
  -4  12 -14  202.58   30.10
   4 -12  14  177.48   35.40
  -5  12 -14   40.50   35.50
   5 -12  14   11.00   28.00
  -6  12 -14  125.49   42.00
   6 -12  14  106.99   36.00
  -7  12 -14    7.70   35.80
   7 -12  14   46.60   35.30
   7  11 -14  133.69   30.00
  -7 -11  14  139.69   21.10
  -7 -11  14  132.09   49.30
   6  11 -14    1.00   19.20
  -6 -11  14   11.60   12.80
  -6 -11  14  -30.80   38.50
  -5 -11  14  410.26   59.19
  -4 -11  14   -2.30   35.10
  -3 -11  14    2.60   33.70
  -2 -11  14  749.13   71.69
   0 -11  14  218.58   35.20
  -1  11 -14   31.70   13.10
   1 -11  14   49.99   25.20
   1 -11  14   53.99   16.80
  -2  11 -14   68.39   17.20
  -2  11 -14   53.19   29.30
   2 -11  14   52.29   22.80
   2 -11  14   61.39   26.10
  -3  11 -14   42.80   19.30
  -3  11 -14   71.49   29.80
   3 -11  14   58.19   23.70
   3 -11  14   62.39   31.10
  -4  11 -14   42.60   19.20
  -4  11 -14  -31.40   29.40
   4 -11  14   45.30   25.60
  -5  11 -14   96.19   34.90
   5 -11  14  129.99   35.30
  -6  11 -14   34.30   34.00
   6 -11  14   15.30   31.90
  -7  11 -14  101.99   40.10
   7 -11  14   72.19   38.70
   7  10 -14    4.30   24.30
  -7 -10  14   12.70   40.30
  -7 -10  14   -1.40   13.30
   6  10 -14  111.89   25.20
  -6 -10  14  108.69   42.90
  -6 -10  14   89.89   19.10
   5  10 -14   15.10   17.00
  -5 -10  14   11.80   37.00
  -4 -10  14  456.05   57.69
  -3 -10  14  445.16   54.89
  -2 -10  14   27.80   27.10
  -2 -10  14   25.20   28.40
  -1 -10  14  587.54   56.59
   0 -10  14   83.99   25.30
  -1  10 -14  157.98   22.60
   1 -10  14  217.68   25.70
   1 -10  14  180.88   34.20
  -2  10 -14  166.98   33.10
  -2  10 -14  154.98   24.50
   2 -10  14  149.49   26.70
   2 -10  14  153.58   28.00
  -3  10 -14  115.99   23.70
  -3  10 -14   80.19   29.50
   3 -10  14   79.29   26.80
   3 -10  14  104.79   27.00
  -4  10 -14   89.59   25.20
  -4  10 -14   59.09   30.80
   4 -10  14   36.00   25.80
   4 -10  14   73.69   29.10
  -5  10 -14    6.10   29.90
   5 -10  14    5.00   28.10
  -6  10 -14  305.37   49.00
   6 -10  14  225.38   45.00
  -7  10 -14  116.19   43.20
   7 -10  14   91.39   42.00
  -8  10 -14   65.39   46.30
   8 -10  14   59.69   40.40
   7   9 -14  106.89   29.90
  -7  -9  14  171.38   48.00
   6   9 -14    2.60   21.60
  -6  -9  14   31.80   38.90
  -6  -9  14   27.80   15.50
   5   9 -14   17.50   18.40
  -5  -9  14   25.40   33.90
   4   9 -14  269.57   29.30
   4   9 -14  271.67   29.20
  -4  -9  14  267.57   44.90
  -3  -9  14   88.59   33.20
   2   9 -14  432.16   40.30
   2   9 -14  586.94   42.60
  -2  -9  14  453.55   49.90
  -2  -9  14  614.54   57.79
   1   9 -14  367.36   31.40
  -1  -9  14  279.37   38.70
  -1  -9  14  240.48   37.10
   0   9 -14   55.99   15.80
   0  -9  14   46.00   22.80
  -1   9 -14  640.04   52.79
   1  -9  14  648.74   58.89
   1  -9  14  700.23   54.29
  -2   9 -14   -0.10   23.30
  -2   9 -14   23.10   18.50
   2  -9  14  -30.90   18.90
   2  -9  14   17.70   22.40
  -3   9 -14  296.87   38.40
  -3   9 -14  379.66   42.40
   3  -9  14  256.87   53.89
   3  -9  14  307.47   38.90
  -4   9 -14   83.69   29.70
  -4   9 -14   89.09   25.50
   4  -9  14   74.79   27.70
   4  -9  14   68.69   25.80
  -5   9 -14  160.58   31.90
   5  -9  14   81.49   29.80
   5  -9  14  114.19   34.60
  -6   9 -14  -28.40   30.70
   6  -9  14  -46.70   31.40
  -7   9 -14   65.79   40.30
   7  -9  14  140.79   44.10
  -8   9 -14  -32.30   38.20
   8  -9  14  -32.80   38.70
  -8  -8  14   22.30   40.60
   7   8 -14   32.00   26.50
  -7  -8  14   13.00   15.90
  -7  -8  14    8.80   37.50
   6   8 -14   94.89   25.90
  -6  -8  14   75.89   19.00
  -6  -8  14  122.99   42.20
   5   8 -14   52.59   19.30
  -5  -8  14   88.39   34.90
   4   8 -14  184.98   23.00
  -4  -8  14  182.68   41.60
   3   8 -14  276.47   31.30
   3   8 -14  327.57   29.40
  -3  -8  14  344.77   45.90
   2   8 -14  319.97   36.70
   2   8 -14  424.46   32.70
  -2  -8  14  391.96   45.70
  -2  -8  14  352.86   41.20
   1   8 -14  254.87   27.60
   1   8 -14  285.57   25.20
  -1  -8  14  259.37   36.10
  -1  -8  14  196.78   32.60
   0   8 -14  559.54   48.20
   0  -8  14  589.94   52.19
  -1   8 -14    8.90   18.00
   1  -8  14   32.30   19.20
   1  -8  14   12.70   19.70
  -2   8 -14 1054.79   83.29
  -2   8 -14 1176.68   85.69
   2  -8  14 1124.99   83.79
   2  -8  14 1142.69   84.69
  -3   8 -14   96.89   27.40
  -3   8 -14  111.09   26.90
   3  -8  14   87.69   24.80
   3  -8  14  131.39   29.40
  -4   8 -14  464.05   49.00
  -4   8 -14  415.66   47.80
   4  -8  14  374.36   46.80
   4  -8  14  450.55   55.29
  -5   8 -14    6.50   26.30
   5  -8  14   -4.60   27.70
   5  -8  14   33.80   25.80
  -6   8 -14  122.99   44.30
   6  -8  14   90.49   38.20
  -7   8 -14   82.79   36.90
   7  -8  14   -8.50   36.80
  -8   8 -14   11.20   39.60
   8  -8  14   13.40   39.20
   8   7 -14    1.50   28.80
  -8  -7  14   36.70   41.20
   7   7 -14   30.50   26.90
  -7  -7  14   30.20   17.40
  -7  -7  14   53.29   38.30
   6   7 -14   93.49   25.50
  -6  -7  14   60.89   38.70
   5   7 -14    4.70   19.00
  -5  -7  14   26.70   13.60
  -5  -7  14  -27.20   31.00
   4   7 -14   64.39   18.40
  -4  -7  14   72.19   34.90
   3   7 -14   64.29   21.50
   3   7 -14  111.99   17.80
  -3  -7  14  109.79   30.30
   2   7 -14   23.00   17.30
   2   7 -14   10.70   13.30
  -2  -7  14   30.40   25.00
  -2  -7  14   17.10   18.90
   1   7 -14 1154.28   88.09
   1   7 -14 1295.57   84.99
  -1  -7  14 1263.17   91.69
  -1  -7  14 1212.38   92.69
   0   7 -14  165.68   24.80
   0  -7  14  188.78   28.10
  -1   7 -14 1140.69   84.09
   1  -7  14 1100.89   83.79
   1  -7  14 1184.38   84.89
  -2   7 -14   25.40   19.30
   2  -7  14   61.39   24.90
   2  -7  14   46.20   19.60
  -3   7 -14  564.14   54.49
  -3   7 -14  662.13   53.69
   3  -7  14  521.95   51.49
   3  -7  14  621.04   57.09
  -4   7 -14   61.39   24.20
   4  -7  14   40.70   29.10
   4  -7  14   84.59   23.60
  -5   7 -14  -10.30   25.70
   5  -7  14   -1.30   29.20
   5  -7  14  108.49   39.80
  -6   7 -14  155.68   36.30
   6  -7  14  115.69   38.40
   6  -7  14  160.58   35.30
  -7   7 -14   59.79   34.80
   7  -7  14   30.80   36.70
  -8   7 -14   90.59   45.50
   8  -7  14   35.10   41.60
   8   6 -14   20.20   31.10
  -8  -6  14  -23.10   39.30
   7   6 -14   39.50   29.90
  -7  -6  14   51.49   39.90
   6   6 -14   60.09   23.40
  -6  -6  14   41.80   16.70
  -6  -6  14   82.29   38.90
   5   6 -14   14.30   18.60
  -5  -6  14   -4.40   31.20
  -5  -6  14   17.10   14.20
   4   6 -14  102.09   20.70
  -4  -6  14   94.89   33.10
   3   6 -14   34.20   20.90
   3   6 -14   57.19   16.80
  -3  -6  14   27.30   28.50
   2   6 -14  448.86   36.40
   2   6 -14  410.36   40.70
  -2  -6  14  326.37   42.60
   1   6 -14   23.90   19.60
   1   6 -14   37.40   15.20
  -1  -6  14   18.80   18.60
  -1  -6  14   11.70   20.80
   0   6 -14  747.73   62.59
   0  -6  14  816.52   61.99
   0  -6  14  789.42   62.99
  -1   6 -14   14.30   20.10
   1  -6  14   -7.50   16.20
   1  -6  14   -8.80   20.40
  -2   6 -14  803.02   74.19
   2  -6  14  948.21   73.69
   2  -6  14  943.51   68.29
  -3   6 -14  207.48   26.00
  -3   6 -14  172.28   30.00
   3  -6  14  166.48   26.20
   3  -6  14  115.79   31.40
  -4   6 -14  201.88   30.40
   4  -6  14  178.18   55.09
   4  -6  14  151.58   28.60
  -5   6 -14  122.59   28.70
   5  -6  14   94.59   30.00
   5  -6  14   58.89   32.40
  -6   6 -14   91.69   32.70
   6  -6  14   31.80   34.40
   6  -6  14   61.89   31.20
   7  -6  14   66.79   38.10
  -8   6 -14    1.70   38.40
   8  -6  14  -37.20   35.70
   8   5 -14  -39.20   29.00
  -8  -5  14   11.20   37.30
   7   5 -14    5.90   25.70
  -7  -5  14  -21.00   35.90
   6   5 -14   75.69   25.20
  -6  -5  14   66.69   18.90
  -6  -5  14  126.69   38.40
   5   5 -14  104.39   23.90
  -5  -5  14   79.59   19.30
  -5  -5  14   44.20   34.50
   4   5 -14  424.06   40.60
  -4  -5  14  437.46   51.19
   3   5 -14  107.59   20.90
   3   5 -14  112.59   25.90
  -3  -5  14  179.98   32.00
   2   5 -14  136.59   20.50
   2   5 -14   92.99   25.20
  -2  -5  14  103.19   27.10
   1   5 -14  691.53   61.69
   1   5 -14  816.22   57.49
  -1  -5  14  700.03   58.79
  -1  -5  14  778.82   61.49
   0   5 -14   76.99   23.30
   0  -5  14   55.29   18.80
   0  -5  14   89.69   19.10
  -1   5 -14  462.55   49.90
   1  -5  14  499.85   42.60
   1  -5  14  590.94   50.49
  -2   5 -14   37.50   21.80
   2  -5  14   61.19   16.60
   2  -5  14   32.40   23.90
  -3   5 -14  273.47   40.20
  -3   5 -14  337.07   34.90
   3  -5  14  336.97   34.90
   3  -5  14  316.87   41.40
  -4   5 -14  454.15   42.90
   4  -5  14  393.76   49.90
   4  -5  14  416.16   43.00
  -5   5 -14   39.50   24.20
   5  -5  14   61.69   26.80
   5  -5  14   41.00   34.20
  -6   5 -14   96.99   30.30
   6  -5  14   72.99   38.40
  -7   5 -14  161.38   38.90
   7  -5  14  138.89   44.20
   7  -5  14  102.79   40.40
  -8   5 -14   82.79   42.20
   8  -5  14   95.19   44.60
   8   4 -14  -48.20   27.40
  -8  -4  14  -11.70   38.00
   7   4 -14  162.78   33.90
  -7  -4  14   86.49   42.60
   6   4 -14  -14.70   25.90
  -6  -4  14   -7.40   33.30
   5   4 -14   48.00   21.40
  -5  -4  14   40.30   49.20
  -5  -4  14   21.20   15.60
   4   4 -14   97.19   22.40
  -4  -4  14   72.49   31.60
   3   4 -14  408.76   44.60
   3   4 -14  450.65   40.60
  -3  -4  14  400.56   46.90
   2   4 -14   60.99   23.60
   2   4 -14   90.19   18.10
  -2  -4  14   67.59   23.80
   1   4 -14  172.58   23.40
   1   4 -14  118.69   28.20
  -1  -4  14  175.28   23.10
  -1  -4  14  147.19   24.00
   0   4 -14  479.15   49.99
   0   4 -14  527.15   44.00
   0  -4  14  546.65   43.20
   0  -4  14  520.15   43.30
  -1   4 -14   33.00   25.70
   1  -4  14   69.89   26.30
   1  -4  14   43.60   23.00
   1  -4  14   48.30   14.70
  -2   4 -14  125.29   27.40
   2  -4  14   68.09   18.40
   2  -4  14   64.99   24.80
  -3   4 -14  194.78   23.20
   3  -4  14  200.58   36.30
   3  -4  14  179.78   23.60
  -4   4 -14   71.29   20.00
   4  -4  14   24.70   29.10
   4  -4  14   44.50   21.50
  -5   4 -14  246.58   32.50
   5  -4  14  290.27   35.70
   5  -4  14  155.48   41.50
  -6   4 -14  102.99   30.00
   6  -4  14  101.79   32.50
   6  -4  14   29.50   36.80
  -7   4 -14   20.00   33.50
   7  -4  14   55.49   38.90
   7  -4  14   -8.20   31.40
  -8   4 -14   47.60   39.10
   8  -4  14    4.30   38.70
   8   3 -14    7.70   30.80
  -8  -3  14   21.00   40.50
   7   3 -14   11.70   25.60
  -7  -3  14   -8.20   36.40
   6   3 -14  179.68   32.90
  -6  -3  14  248.48   46.90
   5   3 -14  150.98   27.80
  -5  -3  14  125.09   36.70
  -5  -3  14  116.39   23.90
   4   3 -14  122.79   24.70
  -4  -3  14  134.69   32.70
   3   3 -14  -19.20   15.90
   3   3 -14   17.30   21.90
  -3  -3  14   16.90   23.90
   2   3 -14  390.86   37.60
  -2  -3  14  370.96   40.40
   1   3 -14  271.07   28.50
  -1  -3  14  162.38   25.00
  -1  -3  14  235.28   24.50
   0   3 -14   43.50   16.40
   0   3 -14   13.60   22.10
   0  -3  14   50.89   14.10
   0  -3  14   30.30   12.00
  -1   3 -14   39.50   23.30
   1  -3  14   99.29   25.60
  -2   3 -14   20.70   24.80
   2  -3  14   48.70   26.30
   3  -3  14   16.30   27.50
  -4   3 -14  356.86   33.40
   4  -3  14  278.07   45.90
   4  -3  14  316.67   35.10
  -5   3 -14   48.40   21.60
   5  -3  14   59.09   24.60
   5  -3  14   65.39   37.60
  -6   3 -14  120.19   31.70
   6  -3  14  100.49   40.90
   6  -3  14  126.99   34.30
  -7   3 -14   11.80   31.20
   7  -3  14   47.10   37.10
   7  -3  14   97.19   43.30
  -8   3 -14   36.10   43.70
   8  -3  14   27.70   45.00
   8   2 -14   58.39   32.20
  -8  -2  14   58.39   43.70
   7   2 -14  179.48   38.60
  -7  -2  14  253.87   50.09
   6   2 -14  282.37   41.00
  -6  -2  14  308.97   49.00
   5   2 -14  386.86   50.29
   5   2 -14  371.76   44.20
  -5  -2  14  347.77   49.50
   4   2 -14  224.08   31.80
   4   2 -14  276.37   44.50
  -4  -2  14  164.98   35.00
   3   2 -14   74.09   21.00
   3   2 -14   81.29   26.70
  -3  -2  14   42.10   23.60
   2   2 -14   55.99   23.20
   2   2 -14   47.70   19.30
  -2  -2  14   16.90   18.10
   1   2 -14  469.55   50.29
   1   2 -14  531.35   45.30
  -1  -2  14  495.45   47.10
   0   2 -14  100.39   28.70
   0   2 -14  128.19   22.70
  -1   2 -14   17.20   25.40
   1  -2  14   45.30   26.70
   2  -2  14   26.60   37.30
   3  -2  14   36.50   29.30
  -4   2 -14   16.70   21.10
   4  -2  14   -5.90   29.40
   4  -2  14   22.70   19.80
  -5   2 -14   40.40   19.90
   5  -2  14   45.20   33.90
   5  -2  14   58.59   23.30
  -6   2 -14   78.89   27.40
   6  -2  14   62.49   29.80
   6  -2  14  100.69   41.60
  -7   2 -14   -1.10   34.50
   7  -2  14   23.40   41.10
   8   1 -14  140.79   38.90
  -8  -1  14   83.09   46.00
   7   1 -14  335.27   46.00
  -7  -1  14  303.07   56.19
   6   1 -14   77.29   29.00
  -6  -1  14   43.80   35.70
   5   1 -14   38.70   22.60
   5   1 -14    6.30   26.60
  -5  -1  14   37.50   29.90
   4   1 -14   46.00   26.90
   4   1 -14  107.19   29.70
  -4  -1  14  128.99   29.70
   3   1 -14   90.99   24.10
  -3  -1  14   95.79   24.10
   2   1 -14  149.88   32.40
   2   1 -14  130.59   24.90
  -2  -1  14  110.99   21.60
   1   1 -14  357.86   35.70
   1   1 -14  260.37   39.70
  -1  -1  14  261.17   25.70
   0   1 -14   47.90   20.50
   0   1 -14   23.60   28.60
   2  -1  14  -42.10   26.20
   3  -1  14   54.59   31.30
   4  -1  14    0.80   31.30
  -5   1 -14    3.30   15.80
   5  -1  14    4.50   32.40
   5  -1  14   -0.70   18.60
  -6   1 -14  -18.60   22.70
   6  -1  14   -4.00   36.40
   6  -1  14    8.20   26.00
  -7   1 -14  213.78   42.50
   7  -1  14  115.29   47.50
   7  -1  14  207.98   47.90
   8   0 -14  182.38   40.40
  -8   0  14  170.78   49.99
   7   0 -14   39.80   27.90
  -7   0  14   49.99   42.90
   6   0 -14   72.09   31.70
  -6   0  14  106.69   38.50
   5   0 -14   19.10   24.70
   5   0 -14    8.80   26.40
  -5   0  14   44.90   30.90
   4   0 -14   46.90   24.80
   4   0 -14   39.40   22.30
  -4   0  14    2.10   24.80
   3   0 -14  150.98   28.30
   3   0 -14  151.38   28.20
  -3   0  14  160.28   27.60
   2   0 -14  207.68   48.20
  -2   0  14  176.78   23.80
   0   0 -14  388.36   47.40
   2   0  14   61.59   29.50
   3   0  14   24.90   30.10
   4   0  14  -23.70   29.80
  -5   0 -14   13.80   16.90
   5   0  14   31.00   38.40
  -6   0 -14  193.48   32.40
   6   0  14   66.09   42.30
  -7   0 -14   24.40   32.90
   7   0  14   34.10   42.30
   7   0  14   23.20   33.40
   7  -1 -14  253.57   43.00
  -7   1  14  291.37   52.39
   6  -1 -14  -20.10   25.90
  -6   1  14  -13.00   33.40
   5  -1 -14  -21.10   24.20
   5  -1 -14   28.80   27.60
  -5   1  14   16.60   27.00
   4  -1 -14  -19.00   22.90
   4  -1 -14   11.80   23.90
  -4   1  14   -8.30   22.90
   3  -1 -14  -18.50   19.20
   3  -1 -14   15.40   21.30
  -3   1  14   16.90   18.90
   2  -1 -14   -3.50   22.00
  -2   1  14  -11.70   14.40
   1  -1 -14  -27.50   20.30
   0  -1 -14   73.29   25.30
   2   1  14   11.40   28.70
   3   1  14    4.80   29.90
   4   1  14   48.60   32.40
   5   1  14   34.00   37.40
  -6  -1 -14   49.99   25.70
   6   1  14   74.19   40.60
  -7  -1 -14  141.09   37.50
   7   1  14  126.29   51.59
   7  -2 -14   59.09   33.10
  -7   2  14  -15.80   37.10
   6  -2 -14    9.90   28.30
  -6   2  14   -8.80   29.80
   5  -2 -14   71.69   31.50
   5  -2 -14   62.29   31.60
  -5   2  14   64.09   30.30
   4  -2 -14   11.20   25.40
   4  -2 -14  -43.30   21.60
  -4   2  14   -2.90   23.10
   3  -2 -14   -5.70   22.50
   3  -2 -14   -6.00   20.60
  -3   2  14    3.30   18.90
   2  -2 -14  187.18   32.10
   2  -2 -14  106.99   24.70
  -2   2  14  150.48   21.60
   1  -2 -14   88.19   27.10
   0  -2 -14   18.80   24.00
   2   2  14   20.40   31.00
   3   2  14   75.99   35.40
   4   2  14   10.60   33.90
   5   2  14  219.38   48.50
  -6  -2 -14   40.70   24.90
   6   2  14   95.29   47.20
   7  -3 -14   22.60   31.90
  -7   3  14   74.39   36.70
   6  -3 -14   61.59   31.20
  -6   3  14    1.20   31.80
   5  -3 -14   83.89   34.50
   5  -3 -14   51.99   31.50
  -5   3  14  132.39   34.80
   4  -3 -14  -12.40   24.70
   4  -3 -14   -6.80   27.30
  -4   3  14   25.20   24.20
   3  -3 -14   43.30   23.40
   3  -3 -14   58.59   26.40
  -3   3  14   71.49   21.10
   2  -3 -14  121.69   29.90
   2  -3 -14   99.09   25.40
  -2   3  14   94.79   19.80
   1  -3 -14  127.49   29.20
   0  -3 -14   20.70   27.80
  -1  -3 -14   75.59   26.10
   3   3  14   -0.90   32.20
   4   3  14   46.20   37.80
   5   3  14   -3.50   38.10
  -6  -3 -14   38.10   23.80
   6   3  14   69.39   42.60
   6  -4 -14    5.80   31.00
  -6   4  14  -38.30   29.50
   5  -4 -14  402.86   52.29
   5  -4 -14  325.97   51.89
  -5   4  14  399.56   49.80
   4  -4 -14  132.89   36.20
   4  -4 -14  269.47   42.00
  -4   4  14  203.38   33.60
   3  -4 -14    5.20   27.70
   3  -4 -14   20.70   23.40
  -3   4  14   35.80   20.80
   2  -4 -14  264.27   41.50
   2  -4 -14  259.07   31.30
  -2   4  14  240.88   28.70
   1  -4 -14   -1.70   23.60
   0  -4 -14   -9.30   25.90
  -1  -4 -14  133.49   30.90
   3   4  14   90.99   41.30
   4   4  14   53.09   40.20
   5   4  14   15.40   39.50
   6  -5 -14  146.09   38.60
  -6   5  14  232.88   42.60
   5  -5 -14  113.49   34.70
  -5   5  14   73.49   30.90
   4  -5 -14  256.17   53.19
   4  -5 -14  361.96   50.99
  -4   5  14  348.97   42.70
   3  -5 -14   39.10   23.10
   3  -5 -14   -1.80   28.20
  -3   5  14   22.60   22.10
   2  -5 -14   28.90   21.50
   2  -5 -14   40.70   28.80
  -2   5  14   19.00   18.60
   1  -5 -14  290.07   41.40
   0  -5 -14   15.40   28.60
  -1  -5 -14  138.19   34.00
   3   5  14  118.19   41.50
   4   5  14   47.10   39.60
   5   5  14   25.40   40.70
   5  -6 -14   98.59   32.10
  -5   6  14   31.30   39.10
   4  -6 -14  216.28   56.39
   4  -6 -14  351.46   50.29
  -4   6  14  375.26   43.60
   3  -6 -14   13.70   22.60
   3  -6 -14   12.50   29.40
  -3   6  14   44.30   23.60
   2  -6 -14  311.07   46.20
   2  -6 -14  260.27   32.70
  -2   6  14  268.67   31.50
   1  -6 -14  -36.90   27.10
   0  -6 -14  241.88   42.90
  -1  -6 -14   89.19   32.90
  -2  -6 -14  306.87   46.30
   4   6  14    7.10   36.70
   5  -7 -14  169.68   39.30
  -5   7  14   89.39   38.00
   4  -7 -14   41.40   26.80
   4  -7 -14   64.69   29.80
  -4   7  14  -16.10   24.80
   3  -7 -14  155.08   30.30
   3  -7 -14  232.38   40.90
  -3   7  14  170.58   31.80
   2  -7 -14    9.70   30.10
   2  -7 -14   45.40   20.30
  -2   7  14    8.60   20.50
   1  -7 -14  320.77   48.80
   0  -7 -14   86.39   34.80
  -1  -7 -14  226.98   42.30
  -2  -7 -14  -19.20   30.40
   4  -8 -14  456.75   65.99
  -4   8  14  439.46   51.29
   3  -8 -14   -5.60   28.70
   3  -8 -14   29.50   24.80
  -3   8  14  -60.49   24.00
   2  -8 -14  212.08   42.40
   2  -8 -14  120.79   27.00
   1  -8 -14  -16.20   30.80
   0  -8 -14  114.29   38.60
  -1  -8 -14  115.59   38.60
  -2  -8 -14  115.59   40.10
   1  -9 -14  110.69   24.00
   1  -9 -14   54.09   44.90
   0  -9 -14  161.18   59.59
  -3  18 -15   -5.30   34.80
  -3  18 -15   17.40   13.10
   3 -18  15   24.60   23.90
  -3 -17  15  154.48   50.19
  -3  17 -15   81.39   15.90
  -3  17 -15   83.49   42.20
   3 -17  15   69.39   23.30
  -4  17 -15   15.60   18.00
  -4  17 -15  -12.70   36.70
   4 -17  15   41.50   28.20
  -4 -16  15  157.98   49.90
  -3 -16  15  140.39   46.80
   2 -16  15   44.60   18.10
  -3  16 -15   14.00   14.30
  -3  16 -15    9.20   37.00
   3 -16  15   -8.40   20.60
  -4  16 -15   43.10   36.50
  -4  16 -15   45.60   17.50
   4 -16  15    8.90   24.90
  -5  16 -15   22.90   38.90
   5 -16  15  -13.30   28.90
  -5 -15  15  277.47   56.09
  -4 -15  15  -14.10   38.30
  -3 -15  15  265.77   52.99
  -2 -15  15   28.50   32.30
  -2  15 -15  113.19   15.80
  -2  15 -15  172.98   40.00
   2 -15  15  101.09   22.40
  -3  15 -15   17.90   13.90
  -3  15 -15   53.89   34.60
   3 -15  15   -3.00   21.80
  -4  15 -15   92.69   39.90
  -4  15 -15   99.59   21.60
   4 -15  15    4.70   26.00
  -5  15 -15   17.90   38.20
   5 -15  15    8.60   31.30
  -6  15 -15   -3.90   37.10
   6 -15  15   18.30   32.50
  -5 -14  15  -28.70   36.70
  -4 -14  15  207.68   48.00
  -3 -14  15  -13.80   35.80
  -2 -14  15   21.50   31.80
  -2  14 -15  241.98   26.80
  -2  14 -15  314.97   47.90
   2 -14  15  325.37   32.60
  -3  14 -15   16.30   32.00
  -3  14 -15   63.79   17.20
   3 -14  15    3.20   22.10
  -4  14 -15  -24.10   34.30
  -4  14 -15   31.60   19.70
   4 -14  15   73.89   28.30
  -5  14 -15  -13.20   34.30
   5 -14  15  -18.60   27.50
  -6  14 -15   32.80   39.00
   6 -14  15   23.30   32.60
  -6 -13  15   58.29   44.80
  -5 -13  15  169.48   45.30
  -4 -13  15   26.50   37.40
  -3 -13  15  119.49   39.80
  -2 -13  15   32.80   30.60
  -2  13 -15  136.49   20.60
  -2  13 -15  200.58   39.20
   2 -13  15  188.28   26.30
  -3  13 -15  240.18   29.70
  -3  13 -15  243.68   44.70
   3 -13  15  261.37   35.10
  -4  13 -15   56.99   35.90
  -4  13 -15  116.69   23.90
   4 -13  15   81.19   28.40
  -5  13 -15   35.50   36.70
   5 -13  15  127.19   35.10
  -6  13 -15   33.70   38.10
   6 -13  15    7.00   32.10
  -6 -12  15  153.08   47.20
  -5 -12  15   34.50   39.00
  -4 -12  15  138.49   42.50
  -3 -12  15   12.30   33.50
  -2 -12  15  -29.60   25.40
  -1  12 -15   60.39   14.20
  -2  12 -15  245.78   44.70
  -2  12 -15  164.78   23.70
   2 -12  15  223.58   29.10
  -3  12 -15   22.50   31.10
  -3  12 -15   44.00   18.20
   3 -12  15   15.20   23.70
  -4  12 -15  201.88   32.40
  -4  12 -15  270.17   45.10
   4 -12  15  279.17   38.70
  -5  12 -15   -4.00   29.20
   5 -12  15    1.80   28.70
  -6  12 -15  180.98   43.90
   6 -12  15  163.68   41.20
  -7  12 -15   48.40   41.10
   7 -12  15    9.20   36.80
   7  11 -15   55.49   26.10
  -7 -11  15   44.60   17.60
  -7 -11  15   85.09   47.10
   6  11 -15    2.60   18.40
  -6 -11  15    1.00   36.80
  -5 -11  15   68.29   40.50
  -4 -11  15   10.80   35.80
  -3 -11  15   63.69   35.20
  -2 -11  15  221.48   42.10
   0 -11  15   98.29   30.30
  -1  11 -15  261.87   28.80
   1 -11  15  250.57   38.80
   1 -11  15  315.47   32.10
  -2  11 -15  -20.20   26.50
  -2  11 -15    0.80   16.80
   2 -11  15   21.30   20.30
   2 -11  15  -14.40   22.30
  -3  11 -15  687.73   65.79
  -3  11 -15  629.94   56.09
   3 -11  15  631.84   73.49
   3 -11  15  648.24   59.19
  -4  11 -15   71.79   33.40
  -4  11 -15   61.89   22.50
   4 -11  15   84.89   28.60
  -5  11 -15  280.37   45.80
   5 -11  15  244.28   41.90
  -6  11 -15  -28.20   30.90
   6 -11  15   34.40   32.70
  -7  11 -15  135.59   46.20
   7 -11  15  170.88   44.70
   7  10 -15   23.70   25.20
  -7 -10  15   16.40   15.80
  -7 -10  15   20.40   38.70
   6  10 -15    4.30   19.60
  -6 -10  15   -9.90   36.20
   5  10 -15  160.88   24.60
  -5 -10  15  162.18   46.00
  -4 -10  15   67.89   35.70
  -3 -10  15  312.57   49.20
  -2 -10  15  191.18   40.60
  -1 -10  15   -0.70   22.70
  -1 -10  15  -43.60   20.90
   0  10 -15  647.44   45.90
   0  10 -15  557.64   48.30
   0 -10  15  649.34   59.39
  -1  10 -15   18.50   16.60
   1 -10  15   15.50   19.90
   1 -10  15   16.50   22.20
  -2  10 -15  658.43   55.49
   2 -10  15  662.73   56.79
   2 -10  15  619.44   59.79
  -3  10 -15   -3.90   25.60
  -3  10 -15   35.60   35.80
   3 -10  15   31.30   25.80
   3 -10  15   19.50   23.70
  -4  10 -15  487.25   52.29
  -4  10 -15  354.26   44.50
   4 -10  15  428.36   47.60
   4 -10  15  379.26   47.70
  -5  10 -15   26.70   31.20
   5 -10  15  -23.60   29.30
  -6  10 -15  388.86   51.19
   6 -10  15  178.98   43.70
  -7  10 -15   21.30   39.20
   7 -10  15  -21.50   34.60
   7   9 -15    9.00   27.60
  -7  -9  15    3.80   37.80
   6   9 -15    3.90   22.00
  -6  -9  15   -8.10   13.60
  -6  -9  15  -66.79   34.50
   5   9 -15  100.19   23.20
  -5  -9  15  149.59   42.90
   4   9 -15   75.89   19.80
   4   9 -15   76.09   18.20
  -4  -9  15   84.89   38.20
   3   9 -15   -9.20   16.50
   3   9 -15   44.60   13.80
   2   9 -15   56.09   18.20
   2   9 -15   81.59   13.80
  -2  -9  15   44.40   24.30
  -2  -9  15   85.29   31.10
   1   9 -15   99.49   21.00
  -1  -9  15   77.59   27.20
  -1  -9  15  169.08   29.90
   0   9 -15   24.70   16.50
   0   9 -15   47.10   13.80
   0  -9  15    6.80   24.90
  -1   9 -15  521.65   47.70
   1  -9  15  568.14   49.50
   1  -9  15  537.15   52.29
  -2   9 -15  102.59   24.20
   2  -9  15  131.49   28.30
   2  -9  15  140.99   28.10
  -3   9 -15  412.46   46.10
  -3   9 -15  456.45   49.20
   3  -9  15  414.86   47.80
  -4   9 -15   78.59   28.00
   4  -9  15  103.49   27.00
   4  -9  15   17.80   28.50
  -5   9 -15   86.09   31.80
   5  -9  15  110.49   33.60
   5  -9  15  114.49   32.50
  -6   9 -15  172.98   40.30
   6  -9  15   89.79   38.30
  -7   9 -15  -12.90   35.60
   7  -9  15  -38.60   35.40
   7   8 -15   10.40   26.20
  -7  -8  15   30.60   40.60
  -7  -8  15   25.00   16.70
   6   8 -15   -9.10   22.10
  -6  -8  15   -0.40   15.30
  -6  -8  15   20.60   37.70
   5   8 -15   81.59   20.50
  -5  -8  15   48.70   35.50
   4   8 -15   78.59   18.20
   4   8 -15   31.70   20.80
  -4  -8  15   48.60   33.60
   3   8 -15   40.90   14.10
   3   8 -15   16.80   17.70
  -3  -8  15   40.70   30.60
   2   8 -15  417.76   33.00
   2   8 -15  391.66   37.80
  -2  -8  15  257.57   38.70
  -2  -8  15  412.06   47.80
   1   8 -15  301.27   28.10
   1   8 -15  268.47   31.60
  -1  -8  15  299.67   39.50
  -1  -8  15  228.68   34.40
   0   8 -15  825.12   56.69
   0   8 -15  768.02   61.89
   0  -8  15  711.93   64.89
  -1   8 -15  107.39   22.70
   1  -8  15   22.90   20.90
   1  -8  15   70.19   23.70
  -2   8 -15  369.76   42.40
   2  -8  15  377.56   44.10
   2  -8  15  436.96   43.80
  -3   8 -15    4.80   19.40
  -3   8 -15   22.10   21.40
   3  -8  15   10.90   20.10
   3  -8  15   -2.40   23.60
  -4   8 -15  223.58   34.30
   4  -8  15  207.18   36.30
  -5   8 -15  182.78   36.40
   5  -8  15  153.88   38.50
   5  -8  15  196.08   35.60
  -6   8 -15   77.49   40.70
   6  -8  15    7.80   33.20
  -7   8 -15  186.58   42.60
   7  -8  15  107.09   42.20
   7   7 -15  -43.50   23.00
  -7  -7  15   -9.20   39.90
   6   7 -15   72.09   25.60
  -6  -7  15   39.00   18.30
  -6  -7  15   68.69   40.40
   5   7 -15  137.69   24.90
  -5  -7  15  169.78   41.90
   4   7 -15  516.85   43.10
   4   7 -15  397.56   45.50
  -4  -7  15  715.73   95.89
   3   7 -15   16.70   15.80
   3   7 -15   34.90   20.30
  -3  -7  15   12.40   27.10
   2   7 -15   53.59   20.40
   2   7 -15   57.99   15.30
  -2  -7  15  -23.40   18.40
  -2  -7  15   18.90   25.50
   1   7 -15  121.29   19.00
   1   7 -15  109.59   25.50
  -1  -7  15   69.19   25.20
  -1  -7  15   89.19   26.70
   0   7 -15   66.49   15.90
   0   7 -15   47.00   20.30
   0  -7  15   27.40   19.90
   0  -7  15   15.00   20.00
  -1   7 -15  303.47   37.70
   1  -7  15  323.47   35.10
   1  -7  15  366.36   39.30
   2  -7  15   15.10   18.70
   2  -7  15   11.60   23.70
  -3   7 -15   60.39   25.70
  -3   7 -15   83.99   24.20
   3  -7  15   34.90   21.50
   3  -7  15   75.69   27.30
  -4   7 -15  322.97   38.10
   4  -7  15  267.47   36.80
   4  -7  15  322.97   45.40
  -5   7 -15  109.39   31.70
   5  -7  15   85.09   34.30
  -6   7 -15  100.69   33.60
   6  -7  15   77.49   36.60
   6  -7  15  104.69   34.00
  -7   7 -15   53.69   36.90
   7  -7  15   17.80   39.60
   7   6 -15   47.80   29.60
  -7  -6  15  115.69   43.00
   6   6 -15    8.60   22.50
  -6  -6  15   32.00   17.50
  -6  -6  15   59.49   38.60
   5   6 -15  285.77   33.20
  -5  -6  15  240.78   46.60
   4   6 -15  176.58   24.80
   4   6 -15  107.79   27.70
  -4  -6  15  101.59   36.70
   3   6 -15  126.69   27.70
   3   6 -15  182.08   23.70
  -3  -6  15  183.78   34.80
   2   6 -15  132.99   25.80
   2   6 -15  113.09   19.00
  -2  -6  15   88.29   23.10
  -2  -6  15   94.59   28.20
   1   6 -15  470.95   38.60
   1   6 -15  399.26   43.80
  -1  -6  15  397.26   44.50
  -1  -6  15  398.26   42.30
   0   6 -15  500.15   40.00
   0   6 -15  427.56   46.00
   0  -6  15  466.65   44.50
   0  -6  15  433.76   42.70
  -1   6 -15   96.39   25.30
   1  -6  15   99.99   20.20
   1  -6  15   92.79   25.90
  -2   6 -15   46.40   23.50
   2  -6  15   36.70   17.90
   2  -6  15   93.49   28.30
  -3   6 -15  135.49   24.30
  -3   6 -15   44.20   25.50
   3  -6  15   83.79   20.30
   3  -6  15  112.49   30.90
  -4   6 -15   18.50   22.40
   4  -6  15   84.69   23.10
   4  -6  15   49.50   31.40
  -5   6 -15   76.79   26.80
   5  -6  15  106.99   38.00
   5  -6  15  133.99   30.20
  -6   6 -15   83.99   32.10
   6  -6  15   -2.70   38.10
   6  -6  15  100.89   32.20
   7  -6  15  116.69   45.30
  -8  -5  15    1.50   38.00
   7   5 -15   74.09   30.30
  -7  -5  15  107.69   43.40
   6   5 -15  236.48   37.40
  -6  -5  15  304.17   50.89
   5   5 -15   12.70   21.00
  -5  -5  15  -22.00   31.20
   4   5 -15   50.89   19.80
  -4  -5  15   75.69   33.90
   3   5 -15   13.50   16.30
   3   5 -15  -15.90   20.60
  -3  -5  15   24.40   25.30
   2   5 -15  475.15   40.70
   2   5 -15  410.16   45.10
  -2  -5  15  446.36   47.20
   1   5 -15   54.09   18.20
   1   5 -15   22.30   23.40
  -1  -5  15   22.20   20.50
  -1  -5  15   54.69   19.10
   0   5 -15   -2.40   20.00
   0   5 -15   42.30   16.40
   0  -5  15   24.80   16.60
   0  -5  15   45.80   17.30
  -1   5 -15    9.10   21.20
   1  -5  15   44.60   16.10
   1  -5  15   18.50   23.80
   1  -5  15    4.00   13.90
  -2   5 -15   83.69   26.60
   2  -5  15   40.40   16.00
   2  -5  15   81.09   27.10
   3  -5  15    2.80   16.70
  -4   5 -15  135.19   24.60
   4  -5  15   89.39   24.80
   4  -5  15  101.99   33.70
  -5   5 -15   19.40   22.20
   5  -5  15   13.50   24.30
   5  -5  15   12.90   33.20
  -6   5 -15   80.39   29.40
   6  -5  15   82.09   38.30
   6  -5  15   85.59   38.00
  -7   5 -15    0.50   33.50
   7  -5  15   63.69   37.20
   7  -5  15   51.39   40.60
   7   4 -15  325.77   42.70
  -7  -4  15  222.08   52.19
   6   4 -15  248.38   37.50
  -6  -4  15  177.48   45.50
   5   4 -15  286.27   36.10
  -5  -4  15  280.77   60.09
   4   4 -15  347.97   37.00
  -4  -4  15  299.37   44.40
   3   4 -15  289.87   32.80
   3   4 -15  261.17   37.30
  -3  -4  15  245.98   37.50
   2   4 -15    2.30   15.90
   2   4 -15   -3.20   35.60
  -2  -4  15   28.80   21.30
   1   4 -15  114.69   22.30
   1   4 -15  123.69   41.50
  -1  -4  15  112.79   22.50
  -1  -4  15  105.49   20.60
   0   4 -15  -11.80   15.80
   0   4 -15   27.80   22.10
   0  -4  15   -6.90   16.00
   0  -4  15  -12.30   14.90
  -1   4 -15   78.49   26.50
   1  -4  15   55.19   27.10
   1  -4  15  104.59   14.90
   1  -4  15   62.69   15.40
  -2   4 -15   14.50   27.70
   2  -4  15   23.70   25.90
   3  -4  15   21.20   28.70
  -4   4 -15   13.80   17.60
   4  -4  15   61.89   31.70
   4  -4  15   53.99   20.90
  -5   4 -15   99.29   24.80
   5  -4  15  101.09   27.60
   5  -4  15  137.39   38.40
  -6   4 -15   26.70   25.80
   6  -4  15   15.30   34.90
   6  -4  15   38.00   28.90
  -7   4 -15   17.40   33.00
   7  -4  15    7.80   33.40
   7  -4  15    0.00   37.40
   7   3 -15  349.57   46.80
  -7  -3  15  391.16   60.29
   6   3 -15   21.60   25.70
  -6  -3  15   30.30   36.20
   5   3 -15  105.49   33.80
  -5  -3  15   95.49   37.10
   4   3 -15   50.49   22.40
  -4  -3  15   40.80   27.90
   3   3 -15  -12.90   17.60
   3   3 -15  -21.50   23.40
  -3  -3  15    8.40   23.80
   2   3 -15  440.86   40.40
   2   3 -15  365.66   45.10
  -2  -3  15  349.07   40.00
   1   3 -15  -16.40   22.50
   1   3 -15   -6.50   17.10
  -1  -3  15    3.10   15.60
  -1  -3  15   15.00   14.20
   0   3 -15   72.19   27.60
   0   3 -15   75.69   20.90
  -1   3 -15   -0.60   23.20
   2  -3  15   28.50   32.10
   3  -3  15  -39.40   25.60
  -4   3 -15   -7.50   16.20
   4  -3  15   -4.60   31.30
  -5   3 -15    5.20   19.20
   5  -3  15   14.00   22.50
   5  -3  15   31.60   33.70
  -6   3 -15  -24.50   22.10
   6  -3  15   34.30   36.40
   6  -3  15   33.00   30.30
  -7   3 -15    0.70   31.50
   7  -3  15   20.40   37.60
   7   2 -15   51.99   29.10
  -7  -2  15  -29.10   37.50
   6   2 -15  178.28   37.00
  -6  -2  15  284.77   49.20
   5   2 -15  -11.70   22.50
   5   2 -15    9.00   30.50
  -5  -2  15   34.00   29.20
   4   2 -15  -29.50   20.80
  -4  -2  15   25.70   26.60
   3   2 -15   18.40   20.70
  -3  -2  15   72.29   25.10
   2   2 -15  182.88   35.80
   2   2 -15  256.67   32.60
  -2  -2  15  254.27   29.70
   1   2 -15   56.99   26.80
   1   2 -15    3.30   20.10
  -1  -2  15   24.40   13.90
   0   2 -15  282.87   62.09
   0   2 -15  329.87   36.90
   2  -2  15   -2.50   26.60
   3  -2  15    1.90   28.20
   4  -2  15   24.50   34.30
  -5   2 -15   69.59   19.70
   5  -2  15   46.20   37.00
   5  -2  15   52.59   22.30
  -6   2 -15  128.49   28.50
   6  -2  15   63.99   31.50
   6  -2  15   40.30   38.10
  -7   2 -15   29.20   30.60
   7  -2  15   23.50   41.90
   7  -2  15   32.00   41.20
   7   1 -15  283.97   45.00
  -7  -1  15  404.86   61.69
   6   1 -15   75.29   29.40
  -6  -1  15   94.79   38.50
   5   1 -15   17.80   26.40
   5   1 -15  -15.90   24.30
  -5  -1  15   40.40   31.30
   4   1 -15    2.30   20.60
   4   1 -15   35.60   26.00
  -4  -1  15   11.80   27.10
   3   1 -15   71.59   24.30
  -3  -1  15   68.69   23.70
   2   1 -15  206.38   35.70
  -2  -1  15  153.38   24.00
   1   1 -15  379.96   50.89
   0   1 -15    3.40   21.90
   2  -1  15   -9.90   27.30
   3  -1  15   52.89   31.70
   4  -1  15   11.20   31.90
   5  -1  15   12.10   35.40
  -6   1 -15   57.29   25.00
   6  -1  15  149.49   46.10
  -7   1 -15   80.39   32.90
   7  -1  15   92.49   48.70
   7  -1  15   62.49   35.50
   7   0 -15   45.90   30.80
  -7   0  15   28.70   41.80
   6   0 -15  183.58   37.50
  -6   0  15  307.07   48.80
   5   0 -15   -7.20   26.90
   5   0 -15    7.60   26.50
  -5   0  15   59.99   31.70
   4   0 -15    0.00   22.90
   4   0 -15   27.60   25.40
  -4   0  15   68.49   28.10
   3   0 -15  -14.80   19.60
  -3   0  15   -9.10   19.60
   2   0 -15   52.39   23.70
  -2   0  15   63.09   17.80
   1   0 -15   37.60   22.10
   0   0 -15  122.49   28.50
   2   0  15   10.50   29.70
   3   0  15   56.19   32.50
   4   0  15   32.80   36.80
   5   0  15  198.38   50.79
   6   0  15  134.29   44.00
   7  -1 -15  103.69   35.70
  -7   1  15  134.59   42.40
   6  -1 -15  199.98   38.10
  -6   1  15  176.28   42.10
   5  -1 -15   70.99   31.10
   5  -1 -15   42.10   29.50
  -5   1  15   17.10   29.40
   4  -1 -15   85.09   29.60
   4  -1 -15  109.39   31.90
  -4   1  15  120.29   29.80
   3  -1 -15   -8.30   19.70
   3  -1 -15  -14.30   22.70
  -3   1  15   41.90   20.90
   2  -1 -15   10.20   23.90
  -2   1  15   34.80   20.60
   1  -1 -15  901.71   74.39
   0  -1 -15  -12.90   26.20
   2   1  15   32.80   33.00
   3   1  15   44.20   34.20
   4   1  15  115.19   39.10
   5   1  15   23.10   38.50
  -6  -1 -15   14.60   19.00
   6   1  15   14.50   41.70
   6  -2 -15  233.88   41.40
  -6   2  15  217.78   44.70
   5  -2 -15  147.19   35.70
   5  -2 -15  148.89   39.60
  -5   2  15  181.38   37.50
   4  -2 -15   95.39   30.80
   4  -2 -15  106.39   33.40
  -4   2  15  125.79   29.50
   3  -2 -15   39.80   23.00
   3  -2 -15   62.39   29.50
  -3   2  15   64.99   21.60
   2  -2 -15  512.55   54.79
  -2   2  15  454.05   50.49
   1  -2 -15    8.20   25.20
   0  -2 -15   -0.30   25.70
  -1  -2 -15  111.89   30.20
   3   2  15    5.70   34.70
   4   2  15   44.60   39.30
   5   2  15  -23.10   36.50
   6   2  15  -47.60   41.90
   6  -3 -15  184.88   39.70
  -6   3  15  265.37   44.50
   5  -3 -15  129.09   34.00
   5  -3 -15  112.39   36.70
  -5   3  15   43.80   29.20
   4  -3 -15  373.76   49.00
   4  -3 -15  342.97   44.90
  -4   3  15  278.27   39.10
   3  -3 -15  328.27   46.30
   3  -3 -15  272.27   37.10
  -3   3  15  335.97   35.60
   2  -3 -15    5.10   28.10
   1  -3 -15  531.15   56.29
   0  -3 -15    1.80   28.80
  -1  -3 -15  186.98   35.20
   3   3  15   64.49   39.40
   4   3  15   38.20   38.80
   5   3  15   34.90   38.30
   6  -4 -15    8.40   30.20
  -6   4  15    7.60   28.70
   5  -4 -15  384.56   49.30
   5  -4 -15  233.28   51.19
  -5   4  15  363.96   45.90
   4  -4 -15  318.97   47.10
   4  -4 -15  393.26   50.79
  -4   4  15  384.06   43.80
   3  -4 -15   18.50   22.40
   3  -4 -15   32.10   29.40
  -3   4  15   17.60   21.10
   2  -4 -15  419.36   52.79
   1  -4 -15   61.39   30.80
   0  -4 -15  344.57   46.60
  -1  -4 -15  175.28   36.40
   3   4  15  112.89   41.80
   4   4  15   39.20   41.80
   5   4  15  -72.29   38.70
   5  -5 -15  226.18   42.10
  -5   5  15  208.98   39.20
   4  -5 -15   23.40   32.20
   4  -5 -15   50.99   31.70
  -4   5  15   49.20   26.00
   3  -5 -15  318.57   42.90
   3  -5 -15  449.76   52.99
  -3   5  15  378.56   39.70
   2  -5 -15   66.89   32.80
   1  -5 -15  313.57   47.20
   0  -5 -15   23.20   30.10
  -1  -5 -15  342.27   49.60
  -2  -5 -15   17.60   31.20
   4   5  15   36.70   39.90
   4  -6 -15  366.16   47.70
  -4   6  15  214.28   36.80
   3  -6 -15   -1.00   23.00
   3  -6 -15    5.60   31.30
  -3   6  15  -20.50   20.70
   2  -6 -15  378.06   50.59
   1  -6 -15   18.80   30.50
   0  -6 -15  138.59   36.10
  -1  -6 -15  101.69   38.10
  -2  -6 -15   54.59   33.90
   3  -7 -15  244.48   38.10
   3  -7 -15  450.45   51.49
  -3   7  15  297.57   37.70
  -3   7  15  298.67   37.90
   2  -7 -15   12.70   29.80
   2  -7 -15   30.00   20.60
   1  -7 -15   44.00   31.80
   0  -7 -15   43.20   35.80
  -1  -7 -15   50.69   36.10
  -2  -7 -15  238.88   51.69
   1  -8 -15   13.20   57.49
  -2 -18  16  118.89   48.20
  -3  18 -16   48.30   42.80
  -3  18 -16   32.90   13.80
  -3 -17  16  105.19   49.00
  -2 -17  16   60.59   39.80
  -3  17 -16   60.89   37.80
  -3  17 -16   44.10   13.60
   3 -17  16   25.70   22.70
  -4  17 -16   57.49   19.70
  -4  17 -16  -15.00   37.40
   4 -17  16    1.80   24.80
  -4 -16  16  161.88   52.49
  -3 -16  16   36.00   39.00
  -2 -16  16   92.99   40.80
  -3  16 -16   18.00   35.90
  -3  16 -16   58.79   15.30
   3 -16  16   50.49   24.30
  -4  16 -16   44.50   19.60
  -4  16 -16  -19.30   36.50
   4 -16  16   -4.30   24.80
  -5  16 -16   31.80   39.40
  -4 -15  16   62.39   40.20
  -3 -15  16   52.99   39.30
  -2 -15  16   93.89   37.00
  -2  15 -16   97.49   14.80
   2 -15  16   78.49   21.20
  -3  15 -16  233.18   28.60
  -3  15 -16  321.37   51.69
   3 -15  16  271.67   35.50
  -4  15 -16   42.70   36.90
  -4  15 -16   70.29   21.60
   4 -15  16   58.29   27.20
  -5  15 -16   69.79   40.00
   5 -15  16   40.30   32.30
  -5 -14  16  -15.60   40.60
  -4 -14  16  -24.00   36.00
  -3 -14  16   63.39   39.80
  -2 -14  16    2.30   31.60
  -2  14 -16  212.88   23.90
   2 -14  16  197.98   28.20
  -3  14 -16   40.90   31.80
  -3  14 -16   55.89   17.90
   3 -14  16   26.30   23.70
  -4  14 -16  184.28   29.00
  -4  14 -16  166.68   43.80
   4 -14  16  209.48   36.10
  -5  14 -16  -19.90   35.60
   5 -14  16   29.00   30.30
  -6  14 -16  155.68   49.90
   6 -14  16  171.78   42.10
  -5 -13  16   40.70   40.30
  -4 -13  16  -22.40   39.30
  -3 -13  16  -33.40   34.10
  -2 -13  16  244.58   48.30
  -1  13 -16  455.55   41.90
  -2  13 -16   10.30   14.60
   2 -13  16   36.00   21.60
  -3  13 -16  730.03   62.79
  -3  13 -16  828.62   75.59
   3 -13  16  813.12   67.19
  -4  13 -16   22.40   19.70
  -4  13 -16   18.00   33.20
   4 -13  16  -35.90   23.10
  -5  13 -16  177.58   45.10
   5 -13  16  153.08   37.50
  -6  13 -16   57.49   39.50
   6 -13  16   52.89   34.60
  -6 -12  16   39.20   41.30
  -5 -12  16   77.49   41.90
  -4 -12  16   61.59   38.60
  -3 -12  16   -3.90   36.50
  -2 -12  16  183.28   42.30
  -1  12 -16    6.90   12.70
  -2  12 -16  426.36   40.10
   2 -12  16  408.56   44.10
  -3  12 -16   -0.70   29.20
  -3  12 -16   45.10   23.10
   3 -12  16   34.10   24.90
  -4  12 -16  500.65   53.79
  -4  12 -16  645.34   66.19
   4 -12  16  601.44   58.99
  -5  12 -16   42.10   35.00
   5 -12  16  110.69   34.60
  -6  12 -16  294.87   49.90
   6 -12  16  232.68   44.70
   6  11 -16    2.50   18.00
  -6 -11  16   25.90   40.70
  -5 -11  16   25.90   39.80
  -4 -11  16   -7.60   36.50
  -3 -11  16   74.79   37.70
  -2 -11  16  -14.90   29.30
  -1 -11  16  269.67   68.89
   0  11 -16   16.70   14.50
   0  11 -16    1.50   11.20
   0 -11  16  -30.10   26.70
  -1  11 -16  447.06   40.10
   1 -11  16  386.46   47.50
  -2  11 -16   48.50   20.20
   2 -11  16  111.59   25.70
   2 -11  16   41.90   27.40
  -3  11 -16  366.66   45.70
  -3  11 -16  232.18   44.00
   3 -11  16  300.57   40.70
  -4  11 -16  120.29   37.00
  -4  11 -16   84.09   32.30
   4 -11  16  115.39   33.40
  -5  11 -16  208.08   42.50
   5 -11  16   69.49   33.40
  -6  11 -16   43.40   37.40
   6 -11  16   50.89   34.00
   6  10 -16    0.10   21.80
  -6 -10  16   -6.90   38.50
   5  10 -16    9.60   18.50
   5  10 -16   29.20   18.00
  -5 -10  16   12.20   38.00
   4  10 -16  137.89   21.20
   4  10 -16   95.59   22.80
  -4 -10  16  176.78   43.90
  -3 -10  16  134.09   36.20
  -2 -10  16  238.28   51.79
   1  10 -16  241.98   22.50
   1  10 -16  203.98   24.90
  -1 -10  16  171.68   33.60
  -1 -10  16  202.38   35.90
   0  10 -16  239.98   28.60
   0  10 -16  255.27   26.70
   0 -10  16  281.57   38.40
  -1  10 -16   35.60   19.40
   1 -10  16   43.60   25.10
  -2  10 -16  188.18   30.10
   2 -10  16  243.48   34.00
   2 -10  16  186.28   33.10
  -3  10 -16    1.20   20.60
  -3  10 -16   37.00   25.40
   3 -10  16   10.10   24.20
   3 -10  16  -14.70   24.20
  -4  10 -16  132.19   34.90
   4 -10  16   90.29   29.50
   4 -10  16  274.67   56.69
  -5  10 -16  143.79   37.10
   5 -10  16  141.29   38.30
  -6  10 -16   32.30   34.80
   6 -10  16   41.30   33.00
  -7  10 -16  198.58   48.30
   7 -10  16  139.39   43.90
   7   9 -16   26.40   27.20
  -7  -9  16   41.20   41.40
  -7  -9  16   13.70   18.80
   6   9 -16   72.19   25.00
  -6  -9  16   89.99   42.70
   5   9 -16   89.89   21.50
   5   9 -16   33.60   22.50
  -5  -9  16   19.70   38.20
   4   9 -16   91.39   23.60
   4   9 -16  139.89   20.60
  -4  -9  16  126.89   40.50
   3   9 -16   52.79   15.60
   3   9 -16   15.00   17.90
  -3  -9  16   49.30   37.70
   2   9 -16  273.27   26.60
   2   9 -16  221.28   28.30
  -2  -9  16  241.18   37.70
  -2  -9  16  306.17   44.00
   1   9 -16  300.57   32.20
   1   9 -16  315.27   28.60
  -1  -9  16  290.07   41.50
  -1  -9  16  212.78   36.20
   0   9 -16   96.29   17.90
   0   9 -16   84.59   22.00
   0  -9  16   39.50   33.70
  -1   9 -16   34.50   22.00
   1  -9  16   83.99   25.30
   1  -9  16  125.09   26.80
  -2   9 -16   -1.00   21.10
   2  -9  16   29.70   22.50
   2  -9  16   24.80   24.20
  -3   9 -16   80.59   25.40
  -3   9 -16   72.19   26.90
   3  -9  16   63.09   28.50
   3  -9  16   74.39   46.90
  -4   9 -16   46.20   29.20
   4  -9  16   64.79   31.90
   4  -9  16   57.39   25.90
  -5   9 -16   81.39   32.10
   5  -9  16   45.80   33.40
   5  -9  16   80.89   32.30
  -6   9 -16  120.79   37.10
   6  -9  16   64.39   36.40
  -7   9 -16   57.69   38.50
   7  -9  16   29.60   37.20
   7   8 -16   59.39   29.10
  -7  -8  16   44.40   39.70
  -7  -8  16   50.29   20.30
   6   8 -16   31.30   23.70
  -6  -8  16   52.99   40.80
   5   8 -16  214.68   29.00
  -5  -8  16  182.78   45.70
   4   8 -16  171.68   28.50
   4   8 -16  142.09   23.00
  -4  -8  16  184.78   41.00
   3   8 -16   74.39   22.80
   3   8 -16   58.99   17.00
  -3  -8  16   55.49   29.80
  -3  -8  16   75.49   33.10
   2   8 -16   13.20   13.30
   2   8 -16   13.70   17.70
  -2  -8  16  -41.20   19.10
  -2  -8  16   26.70   26.90
   1   8 -16   42.80   20.50
   1   8 -16    7.10   14.00
  -1  -8  16  -11.30   20.80
  -1  -8  16   35.80   25.80
   0   8 -16  150.48   19.90
   0   8 -16   59.89   24.00
   0  -8  16   80.59   24.50
   0  -8  16  121.89   24.70
  -1   8 -16   12.30   20.50
   1  -8  16   10.60   22.00
   1  -8  16   -5.20   18.60
  -2   8 -16    6.10   23.90
   2  -8  16   22.50   25.50
   2  -8  16   36.00   20.80
  -3   8 -16  -16.80   21.80
  -3   8 -16  -22.50   21.00
   3  -8  16   -8.20   25.00
   3  -8  16   -2.60   20.20
  -4   8 -16   19.80   26.20
   4  -8  16   13.70   23.70
   4  -8  16   39.80   28.80
  -5   8 -16   55.99   29.70
   5  -8  16   16.50   32.10
   5  -8  16   44.30   26.70
  -6   8 -16   68.29   36.30
   6  -8  16  148.19   41.60
  -7   8 -16   67.29   39.30
   7  -8  16   95.09   41.50
  -7  -7  16    2.00   39.20
   6   7 -16  165.98   30.40
  -6  -7  16  207.08   46.10
   5   7 -16   43.90   21.70
  -5  -7  16  110.89   40.50
   4   7 -16  331.47   43.00
   4   7 -16  450.55   39.80
  -4  -7  16  399.46   61.59
   3   7 -16   72.29   18.00
   3   7 -16   43.80   22.40
  -3  -7  16   24.70   30.50
   2   7 -16  389.06   33.10
   2   7 -16  238.58   35.00
  -2  -7  16  260.57   42.80
  -2  -7  16  369.46   43.30
   1   7 -16   62.89   17.10
   1   7 -16   32.00   22.60
  -1  -7  16   48.00   25.20
  -1  -7  16   51.69   21.60
   0   7 -16   10.10   20.00
   0   7 -16    7.90   14.90
   0  -7  16  -18.70   21.70
   0  -7  16    0.00   17.90
  -1   7 -16   52.59   24.30
   1  -7  16   24.80   18.40
   1  -7  16   41.40   23.60
  -2   7 -16   70.09   25.80
   2  -7  16   66.09   28.20
   2  -7  16  163.88   24.70
   3  -7  16   35.00   29.60
   3  -7  16   25.30   20.10
  -4   7 -16   78.89   24.80
   4  -7  16  100.39   34.40
   4  -7  16   16.70   23.40
  -5   7 -16   47.20   25.30
   5  -7  16  -21.60   32.00
   5  -7  16   -1.80   28.30
  -6   7 -16   46.40   31.60
   6  -7  16   64.69   31.90
   6  -7  16  121.99   41.90
  -7   7 -16   34.20   37.40
   7  -7  16   47.10   40.70
   7   6 -16   52.89   28.40
  -7  -6  16   55.29   44.60
   6   6 -16  107.19   27.80
  -6  -6  16  170.88   44.80
   5   6 -16  546.45   52.69
  -5  -6  16  686.93   68.49
   4   6 -16  181.78   25.70
  -4  -6  16  102.19   37.70
   3   6 -16   -7.00   21.60
   3   6 -16   14.50   16.30
  -3  -6  16   10.70   27.20
   2   6 -16   25.00   15.20
   2   6 -16   -4.90   21.50
  -2  -6  16  -13.00   24.00
  -2  -6  16    9.00   18.60
   1   6 -16   65.49   23.90
   1   6 -16   91.19   19.50
  -1  -6  16   44.40   24.70
  -1  -6  16   78.79   22.20
   0   6 -16   17.30   22.50
   0   6 -16   33.00   16.20
   0  -6  16    6.50   18.90
   0  -6  16   20.90   17.50
  -1   6 -16    5.70   21.50
   1  -6  16   22.50   17.40
   1  -6  16    2.10   15.40
  -2   6 -16    5.90   23.40
   2  -6  16   25.30   17.10
   2  -6  16   17.10   26.50
   3  -6  16  -15.10   28.20
   3  -6  16   -8.60   17.70
  -4   6 -16   74.19   24.00
   4  -6  16  114.39   26.00
   4  -6  16  123.09   34.60
  -5   6 -16   68.99   26.70
   5  -6  16  142.89   30.10
   5  -6  16  158.48   40.00
  -6   6 -16  -25.00   25.80
   6  -6  16  -34.10   36.10
   6  -6  16   47.60   36.30
  -7   6 -16    9.70   34.30
   7  -6  16   69.69   42.50
   7   5 -16  304.47   42.10
  -7  -5  16  310.77   55.99
   6   5 -16   78.69   27.40
  -6  -5  16   13.60   36.20
   5   5 -16   72.59   25.40
  -5  -5  16  103.59   37.20
   4   5 -16   90.89   28.80
   4   5 -16  125.79   25.90
  -4  -5  16  128.79   35.10
   3   5 -16   74.39   27.50
   3   5 -16  146.59   25.00
  -3  -5  16  126.89   31.10
   2   5 -16  229.98   27.20
   2   5 -16  174.68   47.30
  -2  -5  16  169.88   27.30
  -2  -5  16  205.28   32.50
   1   5 -16  -59.79   23.80
   1   5 -16    4.60   17.30
  -1  -5  16   10.10   17.90
  -1  -5  16   -1.60   19.30
   0   5 -16  -13.80   16.30
   0   5 -16   19.90   22.70
   0  -5  16   36.10   15.30
   0  -5  16   15.60   17.50
  -1   5 -16   20.70   24.30
   1  -5  16    6.60   14.00
   1  -5  16    9.20   17.60
   2  -5  16   29.60   28.80
   3  -5  16   27.00   16.70
   3  -5  16   23.10   27.60
  -4   5 -16    1.60   18.30
   4  -5  16   41.30   31.80
   4  -5  16   54.59   20.70
  -5   5 -16   45.40   24.10
   5  -5  16  -24.20   30.90
   5  -5  16  115.39   28.20
  -6   5 -16    2.90   26.50
   6  -5  16   68.89   31.80
   6  -5  16  -40.40   36.00
  -7   5 -16   51.49   33.60
   7  -5  16  109.59   38.30
   7  -5  16  144.59   46.90
   7   4 -16   28.30   27.50
  -7  -4  16   80.69   44.50
   6   4 -16  273.87   38.40
  -6  -4  16  240.78   47.70
   5   4 -16  -43.50   26.70
  -5  -4  16   73.29   34.80
   4   4 -16   15.70   27.90
   4   4 -16   53.59   23.00
  -4  -4  16   76.89   30.10
   3   4 -16   48.80   20.80
   3   4 -16   36.50   27.00
  -3  -4  16   45.20   25.30
   2   4 -16   34.50   18.80
   2   4 -16   15.30   24.30
  -2  -4  16   50.59   23.10
   1   4 -16    6.60   17.90
   1   4 -16  -13.80   23.30
  -1  -4  16   17.20   16.00
  -1  -4  16   37.40   19.10
   0   4 -16    5.10   24.30
   0   4 -16   55.79   20.30
   0  -4  16   35.70   22.60
  -1   4 -16   11.00   34.70
   2  -4  16   32.60   30.50
   3  -4  16   54.79   30.70
   4  -4  16  -13.30   28.90
   4  -4  16   31.20   21.90
   5  -4  16  152.48   42.10
   5  -4  16  109.79   27.10
  -6   4 -16   -8.00   24.20
   6  -4  16   -2.40   35.70
   6  -4  16    2.10   28.20
  -7   4 -16   35.40   31.20
   7  -4  16  111.09   42.90
   7  -4  16    2.30   38.00
   7   3 -16  312.77   45.30
  -7  -3  16  419.16   62.29
   6   3 -16  126.09   31.20
  -6  -3  16   63.59   38.50
   5   3 -16   46.60   27.30
   4   3 -16   39.70   30.20
  -4  -3  16   91.09   29.90
   3   3 -16  466.95   42.70
  -3  -3  16  324.67   41.40
   2   3 -16  146.69   37.70
   2   3 -16  143.49   25.50
  -2  -3  16   46.30   21.10
   1   3 -16    6.60   19.80
   1   3 -16  -21.80   28.20
  -1  -3  16  -30.20   15.60
  -1  -3  16   -4.10   18.10
   0   3 -16   17.20   20.70
   2  -3  16   78.99   32.00
   3  -3  16   64.39   32.40
   4  -3  16   84.89   37.30
  -5   3 -16   11.40   18.60
   5  -3  16   40.80   34.30
   5  -3  16   23.30   22.30
  -6   3 -16  209.58   32.00
   6  -3  16  118.29   35.70
   6  -3  16  155.58   47.30
  -7   3 -16   42.70   29.80
   7  -3  16   33.10   43.00
   7   2 -16   91.69   33.00
  -7  -2  16   85.49   47.00
   6   2 -16  199.58   36.50
  -6  -2  16  131.29   43.00
   5   2 -16  133.99   33.90
  -5  -2  16  273.17   45.20
   4   2 -16    0.00   21.70
  -4  -2  16  -18.40   26.30
   3   2 -16  -29.40   20.30
  -3  -2  16   -6.60   22.80
   2   2 -16   32.60   22.20
  -2  -2  16   21.70   19.60
   1   2 -16   41.80   23.20
   0   2 -16    3.80   20.20
   2  -2  16  272.87   44.00
   3  -2  16  -18.70   28.90
   4  -2  16  103.79   37.60
   5  -2  16  153.58   43.80
  -6   2 -16   23.20   23.00
   6  -2  16   54.29   27.00
   6  -2  16   70.59   43.80
   7   1 -16  100.99   33.80
  -7  -1  16   94.69   45.30
   6   1 -16   78.29   30.70
  -6  -1  16  109.99   42.00
   5   1 -16  161.28   43.90
   5   1 -16  233.88   36.70
  -5  -1  16  160.18   41.50
   4   1 -16   28.30   26.60
  -4  -1  16   65.99   29.00
   3   1 -16  -14.90   22.30
  -3  -1  16   -3.70   21.70
   2   1 -16  -16.50   22.70
  -2  -1  16   -2.40   16.00
   1   1 -16  144.39   28.10
   0   1 -16  -22.60   21.40
   2  -1  16  107.79   34.20
   3  -1  16   29.50   32.10
   4  -1  16  103.89   40.50
   5  -1  16  149.39   45.20
  -6   1 -16   26.60   19.70
   6  -1  16   -7.90   38.50
   6   0 -16  127.69   34.70
  -6   0  16  150.78   41.90
   5   0 -16  174.38   42.80
   5   0 -16  307.27   40.50
  -5   0  16  236.28   42.40
   4   0 -16   -1.00   26.00
   4   0 -16   10.20   27.00
  -4   0  16   76.79   28.50
   3   0 -16   15.40   24.70
  -3   0  16   43.20   22.00
   2   0 -16  161.78   31.60
  -2   0  16  115.19   27.10
   1   0 -16    0.00   24.30
   0   0 -16   80.59   30.80
   2   0  16  199.88   39.70
   3   0  16    8.60   34.00
   4   0  16   81.89   41.70
   5   0  16  -53.99   33.70
   6   0  16  -50.49   37.70
   6  -1 -16   58.19   29.50
  -6   1  16   30.40   32.40
   5  -1 -16  277.97   40.50
   5  -1 -16  154.08   38.50
  -5   1  16  173.28   37.50
   4  -1 -16   50.99   27.40
   4  -1 -16   54.89   30.00
  -4   1  16   42.90   26.60
   3  -1 -16  254.27   40.20
  -3   1  16  220.18   30.40
   2  -1 -16   12.80   28.50
   1  -1 -16  312.97   43.60
   0  -1 -16  -30.70   26.20
  -1  -1 -16  380.56   46.30
   3   1  16   58.99   35.90
   4   1  16    6.70   35.10
   5   1  16   -5.00   36.70
   6  -2 -16   -9.60   27.30
  -6   2  16   -2.60   29.60
   5  -2 -16   87.89   30.70
   5  -2 -16   28.40   30.30
  -5   2  16   76.59   31.70
   4  -2 -16  351.96   45.40
   4  -2 -16  187.18   37.50
  -4   2  16  269.37   37.30
   3  -2 -16   14.70   28.60
  -3   2  16   -6.60   17.70
   2  -2 -16  629.64   65.09
   1  -2 -16  186.88   38.10
   0  -2 -16  231.68   41.30
  -1  -2 -16  223.48   37.90
   3   2  16   55.69   40.80
   4   2  16   95.49   42.40
   5   2  16  -13.60   39.90
   5  -3 -16   81.79   34.30
   5  -3 -16  111.39   34.00
  -5   3  16   76.49   30.40
   4  -3 -16   83.59   31.60
   4  -3 -16   72.79   29.70
  -4   3  16   91.39   26.80
   3  -3 -16  307.47   39.00
   3  -3 -16  448.86   50.09
  -3   3  16  321.47   35.80
   2  -3 -16   65.99   30.90
   1  -3 -16  308.17   44.50
   0  -3 -16   -4.40   29.30
  -1  -3 -16  387.66   50.89
   3   3  16   85.39   39.20
   4   3  16   89.29   43.50
   5  -4 -16   20.50   29.80
   5  -4 -16   42.30   34.80
  -5   4  16    9.70   26.40
   4  -4 -16  266.67   44.90
   4  -4 -16  384.46   49.90
  -4   4  16  303.17   40.10
   3  -4 -16   59.29   30.40
   3  -4 -16   49.50   23.00
  -3   4  16   80.59   22.10
   2  -4 -16  337.07   47.40
   1  -4 -16   35.30   31.00
   0  -4 -16  125.59   35.10
  -1  -4 -16   17.40   28.50
  -2  -4 -16   71.09   32.00
   4   4  16   50.79   48.30
   4  -5 -16   42.40   29.80
   4  -5 -16   10.70   27.60
  -4   5  16   14.50   23.10
   3  -5 -16  131.99   34.20
   3  -5 -16   70.69   24.90
  -3   5  16   80.99   22.90
   2  -5 -16   51.79   31.40
   1  -5 -16   16.40   31.50
   0  -5 -16  -32.60   28.80
  -1  -5 -16   10.90   29.00
  -2  -5 -16  154.18   37.60
   3  -6 -16  114.59   36.40
   3  -6 -16   35.90   24.90
  -3   6  16   59.09   22.80
   2  -6 -16   90.19   34.10
   1  -6 -16  109.49   35.40
   0  -6 -16   28.50   31.60
  -1  -6 -16   36.60   34.30
  -2 -17  17  126.69   41.70
  -3  17 -17   98.89   18.10
  -3  17 -17  115.99   44.80
   3 -17  17  104.29   27.20
  -3 -16  17  106.59   44.40
  -2 -16  17   -8.20   35.00
  -3  16 -17   14.90   36.20
  -3  16 -17   36.30   14.90
   3 -16  17   26.50   23.00
  -4  16 -17  205.68   48.70
  -4  16 -17  124.39   23.90
   4 -16  17   92.89   31.80
  -4 -15  17   96.79   43.00
  -3 -15  17  -40.50   36.00
  -2 -15  17   73.39   36.40
  -2  15 -17   16.70   12.00
   2 -15  17    8.70   18.30
  -3  15 -17  542.85   49.10
  -3  15 -17  634.24   69.39
   3 -15  17  573.04   55.09
  -4  15 -17   20.60   18.90
  -4  15 -17    6.40   36.60
   4 -15  17  -47.80   24.70
  -4 -14  17  -18.40   38.20
  -3 -14  17    2.20   38.50
  -2 -14  17    6.70   37.80
  -2  14 -17  236.58   27.40
   2 -14  17  309.07   33.10
  -3  14 -17    4.70   32.60
  -3  14 -17   -5.20   15.50
   3 -14  17   14.70   23.60
  -4  14 -17  449.95   58.89
   4 -14  17  425.16   50.49
  -5  14 -17   61.59   38.50
   5 -14  17    2.20   29.20
  -5 -13  17   -5.00   39.60
  -4 -13  17  -35.70   40.70
  -3 -13  17  -25.10   35.70
  -2 -13  17   31.00   35.00
  -1  13 -17  297.97   28.80
  -2  13 -17   36.70   16.70
   2 -13  17   24.40   21.70
  -3  13 -17  197.28   39.80
  -3  13 -17  238.18   42.00
   3 -13  17  201.08   33.80
  -4  13 -17   34.40   29.70
  -4  13 -17   -6.20   29.70
   4 -13  17  -34.70   25.60
  -5  13 -17  156.08   46.00
   5 -13  17  159.18   38.30
  -5 -12  17   14.80   37.90
  -4 -12  17  -19.90   35.20
  -3 -12  17   26.10   37.70
  -2 -12  17   27.90   35.00
  -1 -12  17  142.89   36.50
  -1  12 -17   98.69   20.60
  -2  12 -17   99.69   23.10
   2 -12  17   76.59   26.10
  -3  12 -17    5.20   18.90
  -3  12 -17  -30.40   28.30
   3 -12  17  -12.30   25.20
  -4  12 -17   23.60   30.60
   4 -12  17  -22.00   38.50
  -5  12 -17  134.99   41.60
   5 -12  17  125.19   36.80
  -6  12 -17   79.69   41.30
   6 -12  17   64.79   34.30
   6  11 -17  -18.70   20.10
   6  11 -17   19.70   19.10
  -6 -11  17   43.60   41.00
  -5 -11  17   76.29   44.00
  -4 -11  17  149.19   42.10
  -3 -11  17   60.99   38.60
  -2 -11  17  259.77   46.70
   0  11 -17    2.10   12.50
   0  11 -17   26.40   16.60
  -1  11 -17   71.39   20.70
   1 -11  17    2.30   24.50
  -2  11 -17   -0.60   19.50
   2 -11  17    9.00   23.40
   2 -11  17   18.20   25.20
  -3  11 -17  -14.10   28.60
  -3  11 -17    1.40   21.10
   3 -11  17   25.80   25.90
  -4  11 -17  -27.90   27.10
   4 -11  17   -2.90   29.60
  -5  11 -17   66.89   34.80
   5 -11  17   53.19   33.40
  -6  11 -17  -47.40   32.60
   6 -11  17   41.60   36.20
   6  10 -17   32.00   22.80
  -6 -10  17  -24.60   35.70
   5  10 -17   86.59   22.00
   5  10 -17   49.10   21.90
  -5 -10  17  132.29   43.70
   4  10 -17   31.90   15.60
   4  10 -17   35.70   17.90
  -4 -10  17   50.99   37.10
   3  10 -17   32.00   17.10
   3  10 -17   39.70   13.60
  -3 -10  17   59.89   36.70
   2  10 -17   45.60   16.70
   2  10 -17   42.60   13.50
   1  10 -17  159.48   25.10
   1  10 -17  250.97   23.50
  -1 -10  17  187.88   35.50
  -1 -10  17  203.48   39.40
   0  10 -17   21.30   17.10
   0  10 -17   11.40   13.40
   0 -10  17   -6.00   22.00
  -1  10 -17    2.90   19.50
   1 -10  17   57.19   24.80
  -2  10 -17   15.10   24.40
   2 -10  17  -18.00   21.40
   2 -10  17  -45.90   23.30
  -3  10 -17   45.20   23.90
   3 -10  17   36.40   28.20
   3 -10  17    8.70   23.80
  -4  10 -17  -27.10   26.20
   4 -10  17  -15.60   27.50
   4 -10  17  -12.80   25.60
  -5  10 -17    7.20   35.60
   5 -10  17  -40.60   30.30
  -6  10 -17  158.48   42.70
   6 -10  17   64.49   38.90
   6   9 -17  166.88   32.10
  -6  -9  17  203.38   51.89
   5   9 -17   52.79   24.70
   5   9 -17   75.49   21.90
  -5  -9  17   62.89   40.70
   4   9 -17    0.00   21.30
   4   9 -17   45.10   16.80
  -4  -9  17   42.00   35.20
   3   9 -17    4.80   19.00
   3   9 -17   13.90   14.80
  -3  -9  17  -14.10   31.90
   2   9 -17  133.39   25.50
   2   9 -17  209.98   22.30
  -2  -9  17  147.59   36.80
  -2  -9  17  188.68   35.90
   1   9 -17  -12.40   17.70
   1   9 -17    2.50   13.30
  -1  -9  17  -32.50   21.20
  -1  -9  17   14.40   26.70
   0   9 -17   33.80   20.10
   0   9 -17   51.49   16.00
   0  -9  17  -12.20   20.70
   0  -9  17   10.00   41.10
  -1   9 -17   25.00   19.80
   1  -9  17   25.30   22.30
  -2   9 -17    8.40   22.10
   2  -9  17   41.20   25.60
   2  -9  17   28.90   22.80
  -3   9 -17   27.10   25.70
   3  -9  17  -28.10   25.60
   3  -9  17   36.80   37.70
  -4   9 -17  -20.10   25.50
   4  -9  17    0.90   24.00
   4  -9  17   18.60   28.60
  -5   9 -17    2.20   29.10
   5  -9  17   13.70   27.90
   5  -9  17   17.80   33.30
  -6   9 -17  -41.50   30.90
   6  -9  17   17.50   33.90
   6   8 -17   89.39   26.80
  -6  -8  17   33.60   39.10
   5   8 -17  120.89   25.20
   5   8 -17   80.29   30.40
  -5  -8  17  153.18   42.50
   4   8 -17  198.98   25.20
   4   8 -17  110.39   29.10
  -4  -8  17  192.48   42.30
   3   8 -17  237.58   34.30
   3   8 -17  298.57   30.70
  -3  -8  17  310.67   46.70
   2   8 -17  197.48   24.20
   2   8 -17  180.28   28.90
  -2  -8  17  208.28   37.50
  -2  -8  17  133.69   30.80
   1   8 -17   42.40   21.70
   1   8 -17    5.10   14.40
  -1  -8  17    2.60   26.90
  -1  -8  17    9.00   23.70
   0   8 -17   42.70   22.80
   0   8 -17   82.59   18.90
   0  -8  17   65.59   26.20
   0  -8  17   78.49   23.60
  -1   8 -17   34.00   30.20
   1  -8  17   33.90   20.40
  -2   8 -17   36.70   22.60
   2  -8  17   28.30   21.60
   2  -8  17   10.40   25.20
   3  -8  17   48.30   23.40
  -4   8 -17    6.30   24.50
   4  -8  17   35.50   25.40
   4  -8  17   20.50   31.40
  -5   8 -17   21.90   28.40
   5  -8  17   30.90   27.90
   5  -8  17   54.39   34.50
  -6   8 -17   12.50   31.40
   6  -8  17   70.29   35.90
   6  -8  17   15.90   37.50
   6   7 -17   14.70   24.20
  -6  -7  17   -5.80   36.40
   5   7 -17  113.89   35.00
   5   7 -17  171.48   29.20
  -5  -7  17  270.07   48.40
   4   7 -17   40.60   20.40
   4   7 -17   53.59   30.60
  -4  -7  17   81.09   34.50
   3   7 -17   20.70   17.10
   3   7 -17   24.20   23.90
  -3  -7  17   11.90   21.80
  -3  -7  17    6.10   28.00
   2   7 -17  -16.80   22.90
   2   7 -17   44.60   17.10
  -2  -7  17   55.39   28.00
  -2  -7  17    4.10   36.50
   1   7 -17  -10.00   20.50
   1   7 -17  -17.00   15.30
  -1  -7  17  -22.50   22.70
  -1  -7  17   -4.20   20.10
   0   7 -17  -21.40   27.70
   0   7 -17   -0.30   15.80
   0  -7  17   -8.60   18.50
   0  -7  17  -52.69   20.30
  -1   7 -17    1.30   21.90
   1  -7  17  -12.00   17.80
   1  -7  17   20.10   19.20
  -2   7 -17   38.90   24.40
   2  -7  17    2.10   17.60
   2  -7  17   -3.10   24.60
   3  -7  17   38.10   20.10
   3  -7  17   11.60   29.10
  -4   7 -17   -6.10   21.20
   4  -7  17   52.39   23.10
   4  -7  17  -19.10   30.20
  -5   7 -17   17.90   25.70
   5  -7  17   47.80   34.80
   5  -7  17   69.89   28.10
  -6   7 -17   79.99   33.30
   6  -7  17   78.39   43.50
   6  -7  17  111.09   35.60
   6   6 -17   46.80   36.50
  -6  -6  17   94.19   40.70
   5   6 -17  -12.70   26.60
   5   6 -17    9.80   21.10
  -5  -6  17   61.59   35.70
   4   6 -17  238.48   30.10
   4   6 -17  202.88   36.10
  -4  -6  17  147.19   42.00
   3   6 -17   14.80   16.50
   3   6 -17   18.50   27.20
  -3  -6  17   32.50   27.00
   2   6 -17   20.00   35.90
   2   6 -17   56.19   18.90
  -2  -6  17   32.60   21.90
  -2  -6  17   68.49   26.40
   1   6 -17   39.60   27.00
   1   6 -17   37.30   18.50
  -1  -6  17    5.70   23.30
  -1  -6  17   70.89   22.10
   0   6 -17   85.39   21.90
   0   6 -17   99.99   27.50
   0  -6  17   55.79   19.90
   0  -6  17   68.29   23.10
  -1   6 -17   47.40   27.00
   1  -6  17   81.49   18.90
   1  -6  17   51.79   21.40
   2  -6  17   14.10   15.20
   3  -6  17   24.80   18.40
   3  -6  17   10.50   28.80
  -4   6 -17   24.70   20.30
   4  -6  17   57.79   22.70
   4  -6  17   68.69   34.70
  -5   6 -17   85.19   27.50
   5  -6  17  151.38   31.30
   5  -6  17  107.69   39.60
  -6   6 -17   -1.50   27.90
   6  -6  17  -46.60   31.60
   6   5 -17   88.69   28.70
  -6  -5  17   55.99   39.60
   5   5 -17   40.60   42.60
  -5  -5  17   19.60   36.50
   4   5 -17  124.29   37.80
   4   5 -17  273.27   34.00
  -4  -5  17  261.87   41.60
   3   5 -17   35.70   20.80
   3   5 -17   21.80   26.90
  -3  -5  17   61.79   29.50
   2   5 -17  120.09   22.40
   2   5 -17   53.29   28.40
  -2  -5  17   63.49   21.80
  -2  -5  17  118.69   28.60
   1   5 -17   90.59   29.40
   1   5 -17   66.89   21.60
  -1  -5  17   54.49   19.60
  -1  -5  17   35.70   22.10
   0   5 -17   52.99   28.00
   0   5 -17  -20.70   17.90
   0  -5  17   -8.10   18.10
   0  -5  17   10.20   15.10
   2  -5  17   74.69   29.80
   3  -5  17   -8.40   28.50
   4  -5  17  162.98   39.60
   4  -5  17  135.49   25.60
  -5   5 -17   43.50   24.40
   5  -5  17    0.00   34.50
   5  -5  17   96.09   27.80
  -6   5 -17  147.29   31.60
   6  -5  17  171.58   36.40
   6  -5  17  194.08   46.10
   6   4 -17  256.97   38.50
  -6  -4  17  241.58   52.89
   5   4 -17  111.79   28.90
  -5  -4  17  131.29   36.30
   4   4 -17   59.99   31.70
  -4  -4  17   93.39   33.00
   3   4 -17  274.87   34.50
  -3  -4  17  202.68   35.90
   2   4 -17   45.60   35.80
   2   4 -17    3.40   19.50
  -2  -4  17   26.00   19.40
  -2  -4  17   31.10   22.10
   1   4 -17   53.19   21.10
  -1  -4  17   19.50   18.80
  -1  -4  17   11.20   16.40
   0   4 -17   15.70   27.40
   2  -4  17  197.38   37.40
   3  -4  17   14.50   29.10
   4  -4  17  312.97   51.39
  -5   4 -17  192.78   28.30
   5  -4  17  200.18   31.40
   5  -4  17  228.08   46.60
  -6   4 -17  -22.40   21.50
   6  -4  17  -25.90   37.60
   6  -4  17   11.80   30.00
   6   3 -17  149.09   34.30
  -6  -3  17  215.58   48.70
   5   3 -17    5.10   24.00
  -5  -3  17   11.60   43.50
   4   3 -17  150.08   32.10
  -4  -3  17  167.68   36.60
   3   3 -17   55.29   23.90
  -3  -3  17   40.10   26.20
   2   3 -17    6.60   22.50
  -2  -3  17   24.40   16.70
  -2  -3  17    8.70   20.00
   1   3 -17  278.17   37.40
   0   3 -17   -2.80   22.00
   2  -3  17  137.99   35.30
   3  -3  17  480.15   57.89
   4  -3  17  176.68   42.60
   5  -3  17  133.49   42.50
  -6   3 -17   31.80   21.40
   6  -3  17   15.20   25.50
   6  -3  17    4.20   36.30
   6   2 -17  113.99   32.30
  -6  -2  17   49.10   38.10
   5   2 -17  148.39   33.50
  -5  -2  17  155.08   45.30
   4   2 -17   41.00   27.70
  -4  -2  17   88.89   32.00
   3   2 -17    2.30   24.90
  -3  -2  17    6.30   25.10
   2   2 -17   96.59   26.20
  -2  -2  17   83.19   22.10
   1   2 -17   77.09   25.80
   0   2 -17  202.18   34.20
   2  -2  17  660.23   68.09
   3  -2  17   27.70   33.90
   4  -2  17  144.79   43.40
   5  -2  17  -36.80   34.80
   6  -2  17   18.20   40.00
   6   1 -17   39.80   28.10
  -6  -1  17   57.29   36.30
   5   1 -17  107.09   30.40
  -5  -1  17   40.70   33.90
   4   1 -17   83.19   29.80
  -4  -1  17   76.99   29.60
   3   1 -17  221.98   38.00
  -3  -1  17  216.48   32.30
   2   1 -17  -17.20   24.20
  -2  -1  17  -12.30   19.00
   1   1 -17  132.99   31.50
   0   1 -17  184.48   34.70
  -1   1 -17  453.85   49.40
   3  -1  17  183.08   42.10
   4  -1  17   -7.20   35.60
   5  -1  17   -0.50   37.00
   6   0 -17   51.39   29.50
  -6   0  17   50.39   34.70
   5   0 -17    3.60   30.80
   5   0 -17    9.50   26.60
  -5   0  17   15.80   29.30
   4   0 -17  198.88   36.40
  -4   0  17  194.28   34.30
   3   0 -17  -78.69   24.70
  -3   0  17   -2.60   20.70
   2   0 -17  518.95   56.09
   1   0 -17    0.30   27.30
   0   0 -17  356.16   45.60
  -1   0 -17   -1.40   28.30
   3   0  17    0.00   32.10
   4   0  17   60.59   38.10
   5   0  17   54.49   40.70
   5  -1 -17   60.49   29.60
   5  -1 -17   21.50   31.20
  -5   1  17   20.10   28.10
   4  -1 -17    1.10   25.40
  -4   1  17   -6.20   23.80
   3  -1 -17  418.36   48.20
  -3   1  17  303.57   35.00
   2  -1 -17    7.30   28.50
   1  -1 -17  565.84   60.49
   0  -1 -17  346.07   48.20
  -1  -1 -17  466.05   53.19
   3   1  17   34.90   37.30
   4   1  17   31.80   38.90
   5  -2 -17   20.10   29.30
   5  -2 -17   -6.00   30.70
  -5   2  17    5.70   26.90
   4  -2 -17   52.49   29.50
   4  -2 -17  181.48   35.60
  -4   2  17  150.18   28.80
   3  -2 -17   27.10   26.70
  -3   2  17    2.70   17.90
   2  -2 -17  192.58   38.50
   1  -2 -17  -22.20   25.90
   0  -2 -17   94.89   34.20
  -1  -2 -17   83.59   34.00
   3   2  17  180.18   44.80
   4   2  17   48.00   39.80
   4  -3 -17   91.39   32.70
   4  -3 -17   48.50   27.80
  -4   3  17   52.89   24.20
   3  -3 -17  194.78   36.40
   2  -3 -17  104.79   32.70
   1  -3 -17   51.69   29.30
   0  -3 -17   22.10   29.40
  -1  -3 -17  -10.80   28.10
  -2  -3 -17   85.79   34.10
   3  -4 -17  143.09   36.80
   2  -4 -17   11.20   30.00
   1  -4 -17  -26.90   27.20
   0  -4 -17   -9.80   29.60
  -1  -4 -17  -24.10   29.20
  -2  -4 -17   19.80   29.40
   2  -5 -17    2.50   30.00
   1  -5 -17   13.00   31.60
   0  -5 -17   74.39   35.50
  -1  -5 -17    4.40   31.30
  -2 -16  18  -10.20   37.30
  -3  16 -18   26.20   15.60
   3 -16  18   -5.70   23.90
  -3 -15  18   24.70   40.40
  -2 -15  18   25.30   39.10
  -2  15 -18   55.29   15.30
  -3  15 -18  116.99   22.30
   3 -15  18   78.29   26.80
  -4  15 -18   -2.50   35.90
  -4  15 -18   15.80   20.20
   4 -15  18    6.40   28.80
  -4 -14  18   19.30   38.00
  -3 -14  18   91.29   41.20
  -2 -14  18   54.99   37.00
  -1 -14  18   61.59   33.60
  -2  14 -18   55.59   17.50
   2 -14  18   84.89   24.10
   3 -14  18  -37.70   22.70
  -4  14 -18    7.70   35.30
   4 -14  18  -15.10   30.20
  -4 -13  18  118.09   47.10
  -3 -13  18   48.30   39.20
  -2 -13  18  382.56   55.09
  -1 -13  18  109.19   36.00
  -1  13 -18   41.00   15.00
  -2  13 -18    6.10   17.00
   2 -13  18  -37.00   20.50
  -3  13 -18   33.20   21.10
   3 -13  18   -4.80   23.50
  -4  13 -18  -16.90   32.40
  -5  13 -18   -3.20   33.50
   5 -13  18  -12.40   30.00
  -5 -12  18   46.90   41.70
  -4 -12  18   32.70   38.30
  -3 -12  18  186.98   45.80
  -2 -12  18   62.09   37.20
  -1 -12  18  307.77   47.50
   0  12 -18   11.90   14.10
   0  12 -18    7.60   11.20
  -1  12 -18  -21.40   17.30
  -2  12 -18   16.50   19.30
   2 -12  18    8.40   23.20
  -3  12 -18   11.80   21.20
   3 -12  18  -21.60   25.20
  -4  12 -18    2.40   30.10
   4 -12  18  -14.10   28.10
  -5  12 -18  -70.19   29.90
   5 -12  18  -25.50   29.30
   5  11 -18   55.69   20.20
  -5 -11  18   98.89   41.50
  -4 -11  18  -27.10   37.20
  -3 -11  18    2.70   35.10
  -2 -11  18  167.78   39.10
   1  11 -18  -15.60   14.10
   1  11 -18   28.20   11.40
  -1 -11  18   21.70   29.30
   0  11 -18   57.79   15.70
   0  11 -18   46.40   19.00
  -1  11 -18   46.10   20.60
   1 -11  18   16.30   25.00
  -2  11 -18   10.20   30.00
   2 -11  18   18.20   24.40
   2 -11  18   19.20   26.10
  -3  11 -18   68.99   24.60
   3 -11  18   46.80   28.60
  -4  11 -18    0.80   30.70
   4 -11  18    1.60   29.10
  -5  11 -18  -20.30   32.10
   5 -11  18    4.40   32.70
   5  10 -18    9.10   22.80
   5  10 -18   42.60   21.80
  -5 -10  18   35.00   40.20
   4  10 -18   40.50   22.00
   4  10 -18   54.69   17.40
  -4 -10  18  100.19   39.80
   3  10 -18   -2.00   16.30
   3  10 -18    9.30   13.70
  -3 -10  18  -10.40   34.50
   2  10 -18    2.90   12.40
   2  10 -18    4.50   17.00
  -2 -10  18   42.60   37.70
   1  10 -18   20.00   17.60
   1  10 -18  -14.70   12.40
  -1 -10  18    0.60   28.30
  -1 -10  18   47.80   26.80
   0  10 -18  120.89   26.20
   0  10 -18  231.48   24.30
   0 -10  18  142.69   31.50
   0 -10  18  136.19   31.50
  -1  10 -18   -5.70   19.90
   1 -10  18    3.40   22.50
  -2  10 -18   -5.00   20.40
   2 -10  18  -25.00   23.70
   2 -10  18    8.20   22.50
   3 -10  18   17.50   29.60
   3 -10  18   -6.00   24.30
  -4  10 -18   -1.40   26.10
   4 -10  18   19.20   25.90
   4 -10  18   -3.80   28.90
  -5  10 -18   14.30   49.20
   5 -10  18   40.90   33.00
   5   9 -18  128.39   31.60
   5   9 -18  200.58   29.00
  -5  -9  18  210.68   45.90
   4   9 -18    0.00   16.80
   4   9 -18    3.00   21.90
  -4  -9  18    5.40   34.80
   3   9 -18   95.39   26.10
   3   9 -18  128.09   20.00
  -3  -9  18   52.79   37.20
   2   9 -18   66.49   16.80
   2   9 -18   81.09   23.00
  -2  -9  18   72.69   32.10
  -2  -9  18   11.40   27.20
   1   9 -18  -11.70   20.80
   1   9 -18   34.10   15.80
  -1  -9  18   21.00   27.40
  -1  -9  18   70.09   26.50
   0   9 -18   22.50   16.60
   0   9 -18  -23.70   19.30
   0  -9  18   37.70   26.70
   1  -9  18   26.10   23.40
  -2   9 -18   23.80   23.90
   2  -9  18    3.20   21.10
   2  -9  18   19.70   27.50
   3  -9  18   65.19   31.40
   3  -9  18   33.30   28.90
  -4   9 -18   23.30   25.60
   4  -9  18   13.20   25.70
   4  -9  18  -22.00   27.60
  -5   9 -18   14.30   29.70
   5  -9  18   54.59   35.30
   5  -9  18   65.89   28.90
  -6   9 -18  119.39   42.10
   6  -9  18  107.89   41.50
   6   8 -18  100.19   36.90
   6   8 -18  259.47   35.50
  -6  -8  18  262.57   51.69
   5   8 -18   27.40   38.50
   5   8 -18   78.59   23.50
  -5  -8  18   36.10   39.40
   4   8 -18   80.79   28.10
   4   8 -18   75.59   22.30
  -4  -8  18   75.89   36.30
   3   8 -18  115.09   29.00
   3   8 -18  143.09   22.10
  -3  -8  18  116.99   37.30
   2   8 -18   99.49   19.80
   2   8 -18   85.49   26.00
  -2  -8  18   75.09   32.80
  -2  -8  18   31.20   25.80
   1   8 -18   77.79   27.60
   1   8 -18  126.09   21.30
  -1  -8  18   41.60   27.50
  -1  -8  18   35.80   26.10
   0   8 -18   16.80   17.00
   0  -8  18   29.50   23.80
   0  -8  18   31.00   21.10
  -1   8 -18   17.60   23.60
   1  -8  18   -6.70   19.40
   1  -8  18    9.30   19.80
  -2   8 -18   59.59   34.20
   2  -8  18   54.69   22.30
   2  -8  18   68.29   29.00
   3  -8  18   21.30   20.90
   3  -8  18    4.60   29.30
   4  -8  18   64.49   26.20
   4  -8  18   37.80   31.90
  -5   8 -18  166.38   32.40
   5  -8  18  114.29   41.00
  -6   8 -18   49.70   32.80
   6  -8  18  115.49   35.50
   6  -8  18   40.40   38.90
  -6  -7  18   64.59   42.20
   5   7 -18  125.79   28.30
   5   7 -18   64.29   33.50
  -5  -7  18  161.68   43.60
   4   7 -18  136.49   26.40
   4   7 -18  117.29   34.50
  -4  -7  18  224.08   41.80
   3   7 -18  169.38   25.90
   3   7 -18   60.89   42.40
  -3  -7  18  184.78   37.40
  -3  -7  18  115.89   30.30
   2   7 -18   12.80   16.80
  -2  -7  18   65.89   28.70
   1   7 -18    6.30   26.20
   1   7 -18    4.60   16.60
  -1  -7  18   13.20   24.10
  -1  -7  18    9.90   21.00
   0   7 -18  100.99   28.20
   0   7 -18  115.69   22.70
   0  -7  18   53.09   21.80
   0  -7  18   57.09   24.70
  -1   7 -18   18.20   24.80
   1  -7  18    3.00   20.50
   1  -7  18   25.00   18.60
   2  -7  18   51.59   28.60
   2  -7  18   26.10   18.10
   3  -7  18   51.79   29.40
   3  -7  18   33.40   20.20
   4  -7  18   83.89   25.90
   4  -7  18   72.39   35.90
  -5   7 -18    5.20   26.40
   5  -7  18   14.50   33.60
   5  -7  18   89.79   30.20
  -6   7 -18  138.09   34.50
   6  -7  18   90.19   40.70
   6  -7  18  184.68   43.90
   6   6 -18   31.30   24.90
  -6  -6  18   -3.90   37.30
   5   6 -18  433.36   56.79
  -5  -6  18  409.66   59.99
   4   6 -18  159.98   28.10
   4   6 -18  101.09   35.80
   3   6 -18  284.67   45.20
   3   6 -18  420.66   40.50
  -3  -6  18  309.57   40.80
  -3  -6  18  352.86   47.80
   2   6 -18   77.29   29.20
   2   6 -18   79.99   21.80
  -2  -6  18   46.20   23.70
  -2  -6  18   30.30   27.30
   1   6 -18   54.79   28.20
   1   6 -18   -1.50   19.40
  -1  -6  18   23.00   20.10
  -1  -6  18   56.89   24.40
   0   6 -18  189.98   28.10
   0   6 -18  160.08   33.30
   0  -6  18  150.68   27.50
   0  -6  18  176.08   24.80
   1  -6  18   20.20   16.00
   1  -6  18    8.80   18.40
   2  -6  18   87.99   30.70
   2  -6  18   52.89   18.20
   2  -6  18   62.69   19.70
   3  -6  18  108.79   22.50
   3  -6  18  127.79   36.00
   4  -6  18  188.68   41.80
   4  -6  18  175.18   29.80
  -5   6 -18   53.59   25.90
   5  -6  18  123.39   31.30
   5  -6  18  106.39   41.50
  -6   6 -18    6.90   26.20
   6  -6  18   41.30   31.60
   6   5 -18   87.59   28.10
  -6  -5  18  111.79   41.90
   5   5 -18   78.39   26.50
  -5  -5  18   79.69   37.40
   4   5 -18  283.77   44.20
  -4  -5  18  288.87   46.10
   3   5 -18  181.58   32.20
  -3  -5  18  183.48   34.20
   2   5 -18  101.09   25.20
  -2  -5  18  126.59   29.00
  -2  -5  18   66.49   24.10
   1   5 -18  165.38   26.90
  -1  -5  18  124.49   25.60
  -1  -5  18  100.29   22.50
   0   5 -18    0.20   33.10
   0  -5  18   18.70   18.40
   0  -5  18   23.80   19.30
   2  -5  18   48.80   30.60
   3  -5  18  305.27   46.40
   4  -5  18  272.77   47.20
   5  -5  18   98.19   27.40
   5  -5  18   77.79   40.20
   6   4 -18   14.50   25.80
  -6  -4  18   37.70   38.60
   5   4 -18   83.59   25.40
  -5  -4  18   85.49   39.70
   4   4 -18   28.70   23.50
  -4  -4  18   56.59   31.20
   3   4 -18  182.68   31.90
  -3  -4  18  106.99   30.20
   2   4 -18  490.55   48.30
  -2  -4  18  370.26   44.50
  -2  -4  18  512.45   46.70
   1   4 -18   87.99   25.80
  -1  -4  18   22.30   18.80
  -1  -4  18   81.09   20.30
   0   4 -18  352.76   42.20
   2  -4  18  606.34   64.19
   3  -4  18   36.20   34.10
   4  -4  18  249.58   48.90
   5  -4  18   57.89   38.40
   5   3 -18   51.09   26.50
  -5  -3  18  -45.90   33.10
   4   3 -18    8.50   23.60
  -4  -3  18   51.79   31.70
   3   3 -18   88.89   29.80
  -3  -3  18  134.39   31.80
   2   3 -18  201.98   33.60
  -2  -3  18  150.88   27.90
  -2  -3  18  118.49   25.40
   1   3 -18  143.09   30.30
   0   3 -18  -50.29   23.10
   2  -3  18   47.40   31.40
   3  -3  18  174.98   41.70
   4  -3  18   59.59   40.20
   5  -3  18   33.80   40.00
   5   2 -18    9.60   25.60
  -5  -2  18  -78.49   44.70
   4   2 -18   67.09   29.30
  -4  -2  18  118.09   33.50
   3   2 -18   84.99   28.30
  -3  -2  18    8.30   24.60
   2   2 -18  504.95   49.40
  -2  -2  18  326.07   36.90
  -2  -2  18  351.36   37.80
   1   2 -18  251.97   37.90
   0   2 -18  249.48   39.40
  -1   2 -18    2.30   26.70
   3  -2  18   21.10   34.90
   4  -2  18   89.19   40.70
   5  -2  18   83.89   41.70
   5   1 -18   -5.60   26.00
  -5  -1  18   24.00   32.00
   4   1 -18   42.10   27.20
  -4  -1  18   32.70   27.40
   3   1 -18  180.88   34.20
  -3  -1  18  104.29   25.90
   2   1 -18   84.19   30.90
   1   1 -18  601.54   60.59
   0   1 -18  -63.59   28.10
  -1   1 -18  251.17   38.60
   3  -1  18   78.99   37.60
   4  -1  18   34.20   38.80
   5   0 -18   69.09   30.80
  -5   0  18   87.89   32.80
   4   0 -18  160.38   34.00
  -4   0  18  133.29   30.80
   3   0 -18  125.89   33.00
  -3   0  18  138.59   24.60
   2   0 -18  205.78   36.90
   1   0 -18  -17.40   26.00
   0   0 -18  104.79   32.50
  -1   0 -18   33.60   26.80
   3   0  18   44.00   36.70
   4   0  18   10.60   37.60
   4  -1 -18  105.79   32.90
  -4   1  18   58.09   24.90
   3  -1 -18   73.69   28.70
  -3   1  18   26.00   17.00
   2  -1 -18   50.39   28.30
   1  -1 -18   -3.00   26.20
   0  -1 -18    6.60   25.90
  -1  -1 -18  -18.80   25.50
   3  -2 -18   74.09   31.30
  -3   2  18   80.59   20.60
   2  -2 -18   11.50   26.80
   1  -2 -18   -3.50   26.50
   0  -2 -18   15.90   28.30
  -1  -2 -18  -18.80   30.40
  -2  -2 -18   19.30   28.50
   2  -3 -18   24.80   29.40
   1  -3 -18  135.59   36.70
   0  -3 -18  -16.10   27.10
  -1  -3 -18  103.49   35.90
  -1 -16  19  134.09   40.10
  -2 -15  19   70.09   39.40
  -1 -15  19   16.70   34.20
  -2  15 -19   29.80   14.20
  -3 -14  19  121.89   44.30
  -2 -14  19   73.39   40.50
  -1 -14  19  225.88   43.20
  -2  14 -19   14.00   15.80
  -3  14 -19    2.90   20.80
   3 -14  19  -12.20   25.10
  -3 -13  19   34.10   40.70
  -2 -13  19   34.30   38.50
  -1 -13  19    5.10   34.70
  -1  13 -19   19.30   15.90
  -2  13 -19   13.10   18.00
   2 -13  19  -24.30   22.30
  -3  13 -19   14.40   20.40
   3 -13  19  -26.20   25.30
  -4  13 -19  -16.50   32.20
   4 -13  19   38.80   29.40
  -4 -12  19   54.79   42.80
  -3 -12  19    5.90   37.10
  -2 -12  19   72.69   36.20
  -1 -12  19  -22.50   31.00
   0  12 -19   85.29   15.80
   0  12 -19   74.19   19.00
   0 -12  19  114.29   31.20
  -1  12 -19    3.60   17.80
   2 -12  19   70.79   28.10
  -3  12 -19   28.40   25.40
   3 -12  19   27.60   27.60
  -4  12 -19  -10.30   30.90
   4 -12  19  -40.40   27.70
  -4 -11  19   23.20   38.20
  -3 -11  19   54.99   39.10
   2  11 -19   33.70   12.40
   2  11 -19    4.10   16.00
  -2 -11  19   -6.20   32.40
   1  11 -19   30.80   12.80
   1  11 -19   17.40   17.10
  -1 -11  19  -10.90   29.90
   0  11 -19   20.60   14.00
   0  11 -19   25.80   19.40
   0 -11  19  -13.80   22.90
  -1  11 -19    2.70   18.90
   1 -11  19    1.80   27.70
  -2  11 -19   10.20   22.60
   2 -11  19   31.40   27.90
   2 -11  19   32.90   26.60
   3 -11  19   29.50   47.20
   4 -11  19    6.70   30.00
   4  10 -19  171.68   31.30
   4  10 -19  220.18   27.60
  -4 -10  19  261.87   50.69
   3  10 -19   66.39   17.60
   3  10 -19   67.29   20.90
  -3 -10  19   50.59   36.50
   2  10 -19   48.70   15.20
   2  10 -19   37.20   21.00
  -2 -10  19   35.60   34.10
   1  10 -19   12.40   14.00
   1  10 -19   15.50   20.00
  -1 -10  19   11.40   28.90
  -1 -10  19    9.20   27.70
   0  10 -19  -13.90   15.10
   0  10 -19   16.50   19.60
   0 -10  19   18.30   24.90
   0 -10  19   -4.80   26.40
   1 -10  19   23.70   24.10
  -2  10 -19   46.00   24.30
   2 -10  19   49.70   24.70
   2 -10  19   73.19   28.30
   3 -10  19   41.60   30.20
   3 -10  19   38.30   26.90
   4 -10  19   39.40   27.90
   4 -10  19   41.30   32.70
   5 -10  19   32.40   35.40
   5   9 -19  170.38   28.10
  -5  -9  19  160.38   47.80
   4   9 -19  197.68   38.10
   4   9 -19  337.47   35.10
  -4  -9  19  387.66   53.79
   3   9 -19   47.20   24.90
   3   9 -19   67.39   18.20
  -3  -9  19   71.69   36.00
   2   9 -19  237.38   27.50
   2   9 -19  166.08   32.80
  -2  -9  19  215.78   48.10
  -2  -9  19  332.27   46.70
   1   9 -19    8.60   22.00
   1   9 -19   26.10   16.20
  -1  -9  19  -11.30   28.40
  -1  -9  19   -3.60   23.20
   0   9 -19  113.79   21.40
   0   9 -19   64.09   36.20
   0  -9  19   85.99   30.30
  -1   9 -19   -6.20   22.80
   1  -9  19    5.30   21.10
   1  -9  19  -19.40   21.70
   2  -9  19   34.70   24.70
   2  -9  19   56.69   33.00
   3  -9  19  -17.30   28.90
   3  -9  19   37.30   24.40
   4  -9  19   45.00   35.40
  -5   9 -19   53.49   30.30
   5  -9  19   92.79   31.60
   5  -9  19   48.70   36.60
   5   8 -19  122.99   27.40
   5   8 -19   39.70   32.00
  -5  -8  19  153.48   44.40
   4   8 -19  135.99   45.60
   4   8 -19  182.08   28.00
  -4  -8  19  174.28   42.30
   3   8 -19  236.08   30.10
   2   8 -19  382.06   37.70
  -2  -8  19  338.97   44.40
  -2  -8  19  343.57   47.90
   1   8 -19   42.60   33.00
   1   8 -19    7.30   18.00
  -1  -8  19   72.69   28.90
  -1  -8  19  -10.40   25.60
   0   8 -19   66.39   26.90
   0   8 -19   76.99   22.30
   0  -8  19   76.29   24.70
   0  -8  19   60.99   28.60
  -1   8 -19   -6.70   25.10
   1  -8  19   38.10   21.60
   1  -8  19   -9.50   24.20
   2  -8  19   65.19   24.00
   2  -8  19   67.39   29.90
   3  -8  19  110.59   34.20
   3  -8  19   16.70   22.00
   4  -8  19  167.48   32.40
   4  -8  19  220.28   44.10
  -5   8 -19   66.89   29.30
   5  -8  19   89.49   41.20
   5   7 -19   39.50   24.00
  -5  -7  19   83.49   39.30
   4   7 -19  302.47   49.70
   4   7 -19  383.66   41.60
  -4  -7  19  508.65   59.59
   3   7 -19  238.68   46.50
   3   7 -19  460.05   41.50
  -3  -7  19  378.76   46.60
  -3  -7  19  381.76   51.39
   2   7 -19   35.40   20.20
   2   7 -19   44.40   28.70
  -2  -7  19   96.19   29.20
   1   7 -19  235.08   30.20
   1   7 -19  201.68   36.30
  -1  -7  19  165.98   31.40
  -1  -7  19  232.08   35.90
   0   7 -19    8.10   27.20
   0   7 -19  -31.80   19.50
   0  -7  19   49.50   20.90
   0  -7  19   27.00   23.60
   1  -7  19  149.59   25.00
   1  -7  19  158.48   28.30
   2  -7  19   25.90   18.10
   2  -7  19   54.69   29.40
   2  -7  19   15.20   19.90
   3  -7  19  276.97   42.70
   3  -7  19  191.18   29.10
   4  -7  19   98.89   27.80
   4  -7  19   46.90   36.40
   5  -7  19   73.59   38.90
   5  -7  19  156.48   33.60
   5   6 -19   71.39   27.10
  -5  -6  19  112.89   40.50
   4   6 -19  251.87   53.39
   3   6 -19   31.30   22.00
  -3  -6  19   23.40   29.70
  -3  -6  19   14.70   25.00
   2   6 -19  454.45   43.30
  -2  -6  19  312.17   41.60
  -2  -6  19  356.16   45.70
   1   6 -19  113.39   28.60
  -1  -6  19  115.99   27.50
  -1  -6  19   97.59   24.40
   0   6 -19  214.38   37.20
   0  -6  19  167.48   27.70
   0  -6  19  169.08   25.50
   1  -6  19   24.70   25.10
   1  -6  19   14.40   24.10
   2  -6  19  473.25   54.79
   3  -6  19   88.19   35.60
   4  -6  19  129.39   40.20
   5  -6  19   -8.60   38.10
   5  -6  19   39.60   25.40
   5   5 -19    1.70   22.30
  -5  -5  19   -0.30   33.50
   4   5 -19  -19.30   21.10
  -4  -5  19    3.70   29.40
   3   5 -19  160.88   30.50
  -3  -5  19  169.28   35.60
   2   5 -19   13.10   22.20
  -2  -5  19   32.60   23.80
  -2  -5  19   34.70   24.70
   1   5 -19  327.47   37.20
  -1  -5  19  207.48   31.40
  -1  -5  19  274.97   31.30
   0   5 -19  -34.10   23.10
  -1   5 -19  414.16   46.10
   3  -5  19  115.49   38.60
   4  -5  19   38.20   36.90
   5   4 -19   25.60   24.90
  -5  -4  19   63.39   36.90
   4   4 -19   43.60   25.80
  -4  -4  19   15.50   31.90
   3   4 -19    5.90   22.60
  -3  -4  19  -10.60   25.60
   2   4 -19  248.38   34.20
  -2  -4  19  202.18   31.40
  -2  -4  19  173.78   28.10
   1   4 -19  245.18   36.90
   0   4 -19   96.69   31.60
  -1   4 -19    8.80   24.10
   3  -4  19    9.30   33.40
   4  -4  19  107.59   40.90
   5   3 -19   34.70   26.30
   4   3 -19  181.18   34.80
  -4  -3  19  198.18   38.50
   3   3 -19  203.48   34.70
  -3  -3  19  189.28   34.30
   2   3 -19    8.30   24.00
  -2  -3  19   14.30   19.70
  -2  -3  19   -0.40   18.80
   1   3 -19  316.07   40.90
   0   3 -19  -64.19   25.60
  -1   3 -19  288.27   39.80
   3  -3  19   47.20   36.60
   4  -3  19  -34.10   33.70
   4   2 -19   57.59   27.20
  -4  -2  19   44.70   30.50
   3   2 -19  195.38   35.50
  -3  -2  19  164.08   30.20
   2   2 -19   75.29   28.30
   1   2 -19   -0.50   25.10
   0   2 -19   57.39   29.00
  -1   2 -19    7.40   25.80
   3  -2  19   57.19   35.10
   4  -2  19   12.80   37.20
   4   1 -19  250.37   39.10
  -4  -1  19  277.27   38.30
   3   1 -19   82.29   31.30
  -3  -1  19   59.79   22.40
   2   1 -19  136.19   33.50
   1   1 -19   -7.80   25.90
   0   1 -19  -22.50   24.90
  -1   1 -19  -13.60   25.40
   3  -1  19  -14.30   35.70
   3   0 -19  103.69   30.50
  -3   0  19   36.60   18.00
   2   0 -19   26.70   26.70
   1   0 -19  -21.00   24.50
   0   0 -19   39.80   27.70
  -1   0 -19  -15.00   25.90
   2  -1 -19   11.20   29.20
   1  -1 -19   90.09   30.70
   0  -1 -19  -42.10   25.90
  -1  -1 -19    2.60   29.10
  -2  -1 -19   26.60   31.20
   1  -2 -19   23.60   30.70
   0  -2 -19   88.49   34.70
  -1 -14  20  -51.99   35.70
  -1  14 -20   33.10   14.10
  -1  14 -20    5.30   11.90
  -2  14 -20   16.10   18.30
  -2 -13  20   43.10   38.00
  -1 -13  20   56.19   36.40
   0  13 -20   23.20   15.40
   0 -13  20   21.30   29.70
  -1  13 -20   10.00   14.20
  -1  13 -20   26.20   16.90
  -2  13 -20   -3.50   25.90
  -3  13 -20   21.50   25.20
  -3 -12  20  137.39   46.00
  -2 -12  20    6.50   37.20
   1  12 -20   52.09   17.80
   1  12 -20   46.30   12.90
  -1 -12  20   34.40   34.90
   0  12 -20   29.00   14.00
   0  12 -20   30.50   18.20
   0 -12  20  -20.70   30.20
  -1  12 -20   23.00   21.40
  -1  12 -20  -29.20   15.70
  -2  12 -20   25.50   22.40
   3 -12  20   58.89   49.10
   3  11 -20   94.59   17.90
   3  11 -20   41.00   19.40
  -3 -11  20  128.89   42.70
   2  11 -20   59.89   20.90
   2  11 -20  120.39   18.20
  -2 -11  20  144.79   40.70
   1  11 -20    8.70   14.10
   1  11 -20    9.50   17.80
  -1 -11  20  -28.00   30.80
   0  11 -20  138.99   27.00
   0  11 -20  146.09   22.30
   0 -11  20  102.89   39.20
  -1  11 -20   49.80   18.60
   1 -11  20   50.19   31.60
  -2  11 -20   94.19   29.20
   2 -11  20   95.09   31.80
   3 -11  20   61.09   32.60
   3  10 -20   90.39   20.40
   3  10 -20   52.89   24.30
  -3 -10  20  111.19   40.80
   2  10 -20   98.49   27.00
   2  10 -20   96.59   19.80
  -2 -10  20  155.48   40.60
   1  10 -20   18.70   23.00
   1  10 -20   10.20   17.10
  -1 -10  20  -18.30   31.00
  -1 -10  20   51.69   37.00
   0  10 -20  148.09   22.60
   0  10 -20   89.99   34.30
   0 -10  20   69.99   32.50
   0 -10  20   97.69   30.60
  -1  10 -20   66.49   20.10
  -1  10 -20   47.90   26.50
   1 -10  20   63.59   27.30
   1 -10  20   44.70   25.90
   2 -10  20   74.59   28.10
   3 -10  20   27.10   31.90
   3 -10  20    3.20   24.60
   4 -10  20  152.88   40.60
   4 -10  20  113.99   33.60
   4   9 -20   57.89   20.90
  -4  -9  20   87.09   41.30
   3   9 -20  211.98   27.20
   3   9 -20  145.89   34.30
  -3  -9  20  184.18   42.60
   2   9 -20   30.40   17.80
   2   9 -20   44.60   29.50
  -2  -9  20   13.80   30.80
   1   9 -20  234.28   28.70
  -1  -9  20  198.08   40.70
  -1  -9  20  193.88   36.50
   0   9 -20    5.00   26.40
   0   9 -20   16.20   19.20
   0  -9  20   31.20   43.40
   0  -9  20  -34.80   27.60
  -1   9 -20  124.69   40.80
  -1   9 -20  221.08   29.30
   1  -9  20  174.58   31.00
   1  -9  20  151.78   33.00
   2  -9  20   63.49   25.90
   3  -9  20  180.28   38.90
   3  -9  20  126.89   29.80
   4  -9  20    2.00   33.20
   4  -9  20   57.49   35.00
   4   8 -20   66.69   23.70
   4   8 -20   28.60   32.40
  -4  -8  20   76.19   38.60
   3   8 -20   -4.40   20.00
   3   8 -20   -6.30   28.00
   2   8 -20  516.25   43.90
   2   8 -20  364.16   49.50
  -2  -8  20  376.96   49.40
  -2  -8  20  408.26   51.29
   1   8 -20   18.10   20.20
   1   8 -20   28.80   29.20
  -1  -8  20  -20.50   28.00
  -1  -8  20   52.59   27.20
   0   8 -20  335.27   35.20
   0   8 -20  257.37   50.59
   0  -8  20  189.48   37.00
   0  -8  20  245.78   34.20
  -1   8 -20   28.60   23.60
   1  -8  20    0.70   24.60
   1  -8  20  -21.50   20.10
   2  -8  20  364.26   40.30
   3  -8  20   -9.70   30.70
   3  -8  20   13.40   23.00
   4  -8  20  192.78   34.20
   4  -8  20  202.38   44.30
   4   7 -20   41.10   35.60
  -4  -7  20   26.20   35.80
   3   7 -20  173.18   28.90
  -3  -7  20  108.49   33.70
  -3  -7  20  192.28   38.60
   2   7 -20    8.10   18.90
  -2  -7  20   39.30   30.50
   1   7 -20  103.09   30.00
  -1  -7  20   78.59   29.60
  -1  -7  20  120.79   26.10
   0   7 -20    1.30   23.20
   0  -7  20   19.60   19.80
   0  -7  20  -15.20   22.70
  -1   7 -20  299.37   35.10
   1  -7  20  207.78   32.50
   1  -7  20  234.08   28.60
   2  -7  20   35.70   20.50
   2  -7  20   20.50   22.20
   3  -7  20  151.78   27.60
   3  -7  20  195.58   41.40
   4  -7  20   62.99   39.50
   4  -7  20   81.09   25.10
   4   6 -20   20.50   22.80
  -4  -6  20   34.40   40.90
   3   6 -20   65.39   25.00
  -3  -6  20  107.39   34.00
  -3  -6  20   73.99   28.90
   2   6 -20  228.78   31.90
  -2  -6  20  181.88   33.30
  -2  -6  20  202.08   35.80
   1   6 -20    6.70   22.60
  -1  -6  20   13.10   23.10
  -1  -6  20    6.90   20.20
   0   6 -20  248.28   33.40
   0  -6  20  111.09   24.80
   0  -6  20  103.09   25.10
  -1   6 -20    1.30   22.20
   3  -6  20  102.49   37.40
   4  -6  20   91.79   39.40
   4   5 -20  103.29   28.20
  -4  -5  20  133.69   38.10
   3   5 -20   77.29   27.40
  -3  -5  20   47.20   30.60
   2   5 -20   32.00   22.30
  -2  -5  20    3.50   22.60
  -2  -5  20   64.59   25.80
   1   5 -20  134.99   28.60
  -1  -5  20   57.79   22.00
  -1  -5  20   78.29   21.10
   0   5 -20   16.70   24.20
  -1   5 -20   88.39   27.00
   3  -5  20   61.79   35.70
   4   4 -20  130.39   30.80
   3   4 -20  189.18   31.50
  -3  -4  20   96.69   27.80
  -3  -4  20  185.98   34.30
   2   4 -20   70.99   26.20
  -2  -4  20   54.09   23.30
  -2  -4  20   21.80   19.90
   1   4 -20   19.00   23.90
   0   4 -20   50.99   26.00
  -1   4 -20   12.70   23.90
   3  -4  20   61.39   37.60
   3   3 -20   95.79   29.10
  -3  -3  20   37.00   22.60
  -3  -3  20   66.69   26.30
   2   3 -20   66.59   28.60
   1   3 -20   49.10   26.40
   0   3 -20  -25.50   23.90
  -1   3 -20  143.79   33.80
   3  -3  20  -19.50   34.20
   3   2 -20  125.49   32.90
  -3  -2  20   96.09   24.10
  -3  -2  20   90.29   23.50
   2   2 -20    6.10   25.10
   1   2 -20  -14.30   26.60
   0   2 -20  131.39   33.70
  -1   2 -20  -19.80   25.40
   2   1 -20   -7.10   27.10
   1   1 -20   -2.00   25.50
   0   1 -20  -10.60   26.70
  -1   1 -20   63.49   29.80
   1  12 -21  -10.20   16.90
   1  12 -21   24.60   13.50
  -1 -12  21   46.90   36.60
   0  12 -21   88.89   18.80
   0  12 -21   86.19   23.10
   0 -12  21   62.29   34.40
  -1  12 -21   27.40   17.90
   1 -12  21   81.39   32.50
   2  11 -21   17.60   15.40
   2  11 -21   13.30   20.50
  -2 -11  21   40.00   38.60
   1  11 -21   56.79   25.00
   1  11 -21  120.69   20.50
  -1 -11  21   72.29   38.50
   0  11 -21   14.90   24.10
   0  11 -21  -15.40   15.50
   0 -11  21  -33.60   35.10
  -1  11 -21  149.49   33.70
  -1  11 -21  338.87   33.40
   1 -11  21  214.28   43.50
   1 -11  21  279.47   41.90
   2 -11  21   38.20   29.50
   2  10 -21   94.99   31.30
   2  10 -21  165.48   24.10
  -2 -10  21  188.48   43.20
   1  10 -21  -18.10   17.00
  -1 -10  21   -9.10   39.80
  -1 -10  21  -12.50   30.80
   0  10 -21  136.19   31.90
   0  10 -21  155.08   25.90
   0 -10  21  104.49   35.70
   0 -10  21  123.89   32.50
  -1  10 -21   13.80   20.70
   1 -10  21  -20.90   29.00
   1 -10  21   53.59   29.50
   2 -10  21  191.18   51.79
   2   9 -21   73.09   22.10
   2   9 -21   57.29   30.00
  -2  -9  21   67.39   35.80
   1   9 -21   39.00   30.60
   1   9 -21   91.99   22.90
  -1  -9  21   67.79   33.80
  -1  -9  21   66.49   29.40
   0   9 -21   94.09   41.80
   0   9 -21  143.39   26.00
   0  -9  21   93.19   35.60
   0  -9  21   66.69   31.70
  -1   9 -21  175.18   29.90
   1  -9  21  127.29   33.00
   1  -9  21  137.89   29.00
   2  -9  21  -18.10   24.60
   2  -9  21    1.70   21.90
   2   8 -21  104.39   23.30
  -2  -8  21   17.50   28.80
  -2  -8  21   68.39   33.40
   1   8 -21  118.39   32.70
  -1  -8  21  109.39   30.00
  -1  -8  21  171.18   34.80
   0   8 -21   88.89   26.10
   0  -8  21   39.20   28.80
   0  -8  21   92.49   25.70
  -1   8 -21   19.30   22.10
   1  -8  21   29.50   21.50
   1  -8  21   50.89   26.50
   2  -8  21   83.99   25.10
   2  -8  21   71.39   22.20
   2   7 -21  233.38   31.80
  -2  -7  21  221.38   38.40
  -2  -7  21  174.98   47.20
   1   7 -21   77.39   26.70
  -1  -7  21   94.39   25.30
  -1  -7  21   86.99   29.90
   0   7 -21  219.28   32.20
   0  -7  21  133.59   24.50
   0  -7  21  127.99   28.70
  -1   7 -21   87.89   27.30
   2   6 -21    2.30   20.80
  -2  -6  21   16.30   23.60
  -2  -6  21   56.49   26.60
   1   6 -21   42.60   25.60
  -1  -6  21   31.30   22.00
  -1  -6  21    4.80   19.00
   0   6 -21   33.20   24.30
  -1   6 -21   22.70   24.50
   2   5 -21  113.19   29.00
  -2  -5  21   42.30   21.80
  -2  -5  21   83.09   26.60
   1   5 -21   -0.40   23.50
   0   5 -21   31.60   23.80
  -1   5 -21   37.70   26.30
   1   4 -21    2.70   25.70
   0   4 -21   77.49   28.30
  -1   4 -21   30.00   28.10
   0   3 -21   -3.40   23.90
   0   0   0    0.00    0.00

_computing_structure_solution     'SHELXT 2018/2 (Sheldrick, 2018)'
;
_shelx_hkl_checksum   28194

