 
data_pvl1195
 
_audit_creation_method            'SHELXL-2018/3'
_shelx_SHELXL_version_number      '2018/3'
_chemical_name_systematic         ?
_chemical_name_common             ?
_chemical_melting_point           ?
_chemical_formula_moiety          ?
_chemical_formula_sum
 'C18 H10 N8 O4 S Zn' 
_chemical_formula_weight          499.77

loop_
 _atom_type_symbol
 _atom_type_description
 _atom_type_scat_dispersion_real
 _atom_type_scat_dispersion_imag
 _atom_type_scat_source
 'C'  'C'   0.0033   0.0016
 'International Tables Vol C Tables 4.2.6.8 and 6.1.1.4'
 'H'  'H'   0.0000   0.0000
 'International Tables Vol C Tables 4.2.6.8 and 6.1.1.4'
 'N'  'N'   0.0061   0.0033
 'International Tables Vol C Tables 4.2.6.8 and 6.1.1.4'
 'O'  'O'   0.0106   0.0060
 'International Tables Vol C Tables 4.2.6.8 and 6.1.1.4'
 'S'  'S'   0.1246   0.1234
 'International Tables Vol C Tables 4.2.6.8 and 6.1.1.4'
 'Zn'  'Zn'   0.2839   1.4301
 'International Tables Vol C Tables 4.2.6.8 and 6.1.1.4'
 
_space_group_crystal_system       monoclinic
_space_group_IT_number            12
_space_group_name_H-M_alt         'I 2/m'
_space_group_name_Hall            '-I 2y'
 
_shelx_space_group_comment
;
The symmetry employed for this shelxl refinement is uniquely defined
by the following loop, which should always be used as a source of
symmetry information in preference to the above space-group names.
They are only intended as comments.
;
 
loop_
 _space_group_symop_operation_xyz
 'x, y, z'
 '-x, y, -z'
 'x+1/2, y+1/2, z+1/2'
 '-x+1/2, y+1/2, -z+1/2'
 '-x, -y, -z'
 'x, -y, z'
 '-x+1/2, -y+1/2, -z+1/2'
 'x+1/2, -y+1/2, z+1/2'
 
_cell_length_a                    10.0992(12)
_cell_length_b                    16.368(2)
_cell_length_c                    12.7796(16)
_cell_angle_alpha                 90
_cell_angle_beta                  102.603(14)
_cell_angle_gamma                 90
_cell_volume                      2061.6(5)
_cell_formula_units_Z             4
_cell_measurement_temperature     150(2)
_cell_measurement_reflns_used     ?
_cell_measurement_theta_min       ?
_cell_measurement_theta_max       ?
 
_exptl_crystal_description        ?
_exptl_crystal_colour             ?
_exptl_crystal_density_meas       ?
_exptl_crystal_density_method     ?
_exptl_crystal_density_diffrn     1.610          
_exptl_crystal_F_000              1008
_exptl_transmission_factor_min    ?
_exptl_transmission_factor_max    ?
_exptl_crystal_size_max           ?
_exptl_crystal_size_mid           ?
_exptl_crystal_size_min           ?
_exptl_absorpt_coefficient_mu     1.337
_shelx_estimated_absorpt_T_min    ?
_shelx_estimated_absorpt_T_max    ?
_exptl_absorpt_correction_type    ?
_exptl_absorpt_correction_T_min   ?
_exptl_absorpt_correction_T_max   ?
_exptl_absorpt_process_details    ?
_exptl_absorpt_special_details    ?
_diffrn_ambient_temperature       150(2)
_diffrn_radiation_wavelength      0.71073
_diffrn_radiation_type            MoK\a
_diffrn_source                    ?
_diffrn_measurement_device_type   ?
_diffrn_measurement_method        ?
_diffrn_detector_area_resol_mean  ?
_diffrn_reflns_number             5086
_diffrn_reflns_av_unetI/netI      0.0729
_diffrn_reflns_av_R_equivalents   0.0464
_diffrn_reflns_limit_h_min        -13
_diffrn_reflns_limit_h_max        13
_diffrn_reflns_limit_k_min        -15
_diffrn_reflns_limit_k_max        21
_diffrn_reflns_limit_l_min        -12
_diffrn_reflns_limit_l_max        17
_diffrn_reflns_theta_min          2.053
_diffrn_reflns_theta_max          29.005
_diffrn_reflns_theta_full         25.242
_diffrn_measured_fraction_theta_max   0.830
_diffrn_measured_fraction_theta_full  0.998
_diffrn_reflns_Laue_measured_fraction_max    0.830
_diffrn_reflns_Laue_measured_fraction_full   0.998
_diffrn_reflns_point_group_measured_fraction_max   0.830
_diffrn_reflns_point_group_measured_fraction_full  0.998
_reflns_number_total              2362
_reflns_number_gt                 1922
_reflns_threshold_expression      'I > 2\s(I)'
_reflns_Friedel_coverage          0.000
_reflns_Friedel_fraction_max      .
_reflns_Friedel_fraction_full     .
 
_reflns_special_details
;
 Reflections were merged by SHELXL according to the crystal
 class for the calculation of statistics and refinement.
 
 _reflns_Friedel_fraction is defined as the number of unique
 Friedel pairs measured divided by the number that would be
 possible theoretically, ignoring centric projections and
 systematic absences.
;
 
_computing_data_collection        ?
_computing_cell_refinement        ?
_computing_data_reduction         ?
_computing_structure_solution     'SHELXT 2018/2 (Sheldrick, 2018)'
_computing_structure_refinement 'SHELXL-2018/3 (Sheldrick, 2018)'
_computing_molecular_graphics     ?
_computing_publication_material   ?
_refine_special_details           ?
_refine_ls_structure_factor_coef  Fsqd
_refine_ls_matrix_type            full
_refine_ls_weighting_scheme       calc
_refine_ls_weighting_details
'w=1/[\s^2^(Fo^2^)+(0.1200P)^2^+0.0695P] where P=(Fo^2^+2Fc^2^)/3'
_atom_sites_solution_primary      ?
_atom_sites_solution_secondary    ?
_atom_sites_solution_hydrogens    geom
_refine_ls_hydrogen_treatment     constr
_refine_ls_extinction_method      none
_refine_ls_extinction_coef        .
_refine_ls_number_reflns          2362
_refine_ls_number_parameters      223
_refine_ls_number_restraints      0
_refine_ls_R_factor_all           0.0781
_refine_ls_R_factor_gt            0.0656
_refine_ls_wR_factor_ref          0.1954
_refine_ls_wR_factor_gt           0.1848
_refine_ls_goodness_of_fit_ref    1.078
_refine_ls_restrained_S_all       1.078
_refine_ls_shift/su_max           0.008
_refine_ls_shift/su_mean          0.001
 
loop_
 _atom_site_label
 _atom_site_type_symbol
 _atom_site_fract_x
 _atom_site_fract_y
 _atom_site_fract_z
 _atom_site_U_iso_or_equiv
 _atom_site_adp_type
 _atom_site_occupancy
 _atom_site_site_symmetry_order  
 _atom_site_calc_flag
 _atom_site_refinement_flags_posn
 _atom_site_refinement_flags_adp
 _atom_site_refinement_flags_occupancy
 _atom_site_disorder_assembly
 _atom_site_disorder_group
Zn1 Zn 0.39165(6) 0.500000 0.06049(5) 0.0196(3) Uani 1 2 d S T P B .
O1 O 0.5054(4) 0.5874(2) 0.1511(3) 0.0364(8) Uani 1 1 d . . . . .
O2 O 0.6650(4) 0.5878(2) 0.0534(3) 0.0378(9) Uani 1 1 d . . . . .
C1 C 0.6236(5) 0.7261(3) 0.2628(4) 0.0307(10) Uani 1 1 d . . . . .
H1 H 0.536933 0.709547 0.272605 0.037 Uiso 1 1 calc R U . . .
C2 C 0.6842(4) 0.6833(3) 0.1931(3) 0.0237(9) Uani 1 1 d . . . . .
C3 C 0.8130(5) 0.7071(3) 0.1812(3) 0.0302(10) Uani 1 1 d . . . . .
H3 H 0.857098 0.677405 0.134707 0.036 Uiso 1 1 calc R U . . .
C4 C 0.6135(4) 0.6133(3) 0.1285(3) 0.0278(10) Uani 1 1 d . . . . .
N15 N 0.2291(5) 0.500000 0.1278(4) 0.0317(13) Uani 1 2 d S T P . .
N17 N 0.0857(6) 0.500000 0.2320(5) 0.0400(15) Uani 1 2 d S T P . .
C8 C -0.1005(7) 0.500000 0.3216(6) 0.0379(17) Uani 1 2 d S T P . .
H8 H -0.133569 0.453866 0.278735 0.045 Uiso 0.5 1 calc R U P B .
S1 S 0.1592(3) 0.73400(19) 0.4408(2) 0.0455(7) Uani 0.5 1 d . . P A -1
N22 N -0.2115(9) 0.6232(6) 0.5328(7) 0.040(2) Uani 0.5 1 d . . P A -1
C5 C 0.1439(12) 0.4268(8) 0.1246(12) 0.060(4) Uani 0.5 1 d . . P B -1
H5 H 0.153621 0.378537 0.085690 0.072 Uiso 0.5 1 calc R U P B -1
C6 C 0.1897(10) 0.5412(5) 0.1956(7) 0.0280(19) Uani 0.5 1 d . . P B -1
H6 H 0.224528 0.593369 0.219989 0.034 Uiso 0.5 1 calc R U P B -1
C7 C 0.0135(9) 0.5386(5) 0.3064(7) 0.0277(19) Uani 0.5 1 d . . P A -1
C9 C -0.1716(10) 0.5272(6) 0.4006(8) 0.040(3) Uani 0.5 1 d . . P A -1
H9 H -0.244531 0.494898 0.413583 0.048 Uiso 0.5 1 calc R U P A -1
C10 C -0.1397(10) 0.5965(7) 0.4573(8) 0.036(2) Uani 0.5 1 d . . P A -1
C11 C -0.0203(10) 0.6407(6) 0.4417(7) 0.032(2) Uani 0.5 1 d . . P A -1
C12 C 0.0541(9) 0.6122(6) 0.3652(7) 0.0277(19) Uani 0.5 1 d . . P A -1
N3 N 0.0288(9) 0.7106(6) 0.4891(10) 0.042(3) Uani 0.5 1 d . . P A -1
C13 C -0.2232(12) 0.6955(8) 0.5779(9) 0.044(3) Uani 0.5 1 d . . P A -1
H13 H -0.171443 0.741715 0.566082 0.053 Uiso 0.5 1 calc R U P A -1
C14 C -0.3511(15) 0.6195(10) 0.6313(12) 0.070(4) Uani 0.5 1 d . . P A -1
H14 H -0.413243 0.599628 0.671418 0.084 Uiso 0.5 1 calc R U P A -1
N16 N 0.0513(11) 0.4371(7) 0.1832(11) 0.073(4) Uani 0.5 1 d . . P B -1
N18 N 0.1598(8) 0.6582(5) 0.3576(7) 0.0336(19) Uani 0.5 1 d . . P A -1
N20 N -0.3097(12) 0.6984(7) 0.6384(9) 0.062(3) Uani 0.5 1 d . . P A -1
N21 N -0.2999(11) 0.5700(6) 0.5645(9) 0.056(3) Uani 0.5 1 d . . P A -1
 
loop_
 _atom_site_aniso_label
 _atom_site_aniso_U_11
 _atom_site_aniso_U_22
 _atom_site_aniso_U_33
 _atom_site_aniso_U_23
 _atom_site_aniso_U_13
 _atom_site_aniso_U_12
Zn1 0.0210(4) 0.0179(4) 0.0201(4) 0.000 0.0048(3) 0.000
O1 0.045(2) 0.0312(18) 0.0322(17) -0.0084(15) 0.0070(16) -0.0142(15)
O2 0.0396(19) 0.040(2) 0.0322(17) -0.0187(16) 0.0041(15) -0.0030(16)
C1 0.025(2) 0.034(2) 0.031(2) -0.006(2) 0.0028(19) -0.0029(19)
C2 0.028(2) 0.020(2) 0.0213(19) -0.0020(17) 0.0001(17) 0.0013(17)
C3 0.032(2) 0.031(2) 0.026(2) -0.0058(19) 0.0038(19) 0.005(2)
C4 0.032(2) 0.023(2) 0.024(2) -0.0011(19) -0.0021(18) 0.0021(19)
N15 0.023(3) 0.043(3) 0.032(3) 0.000 0.013(2) 0.000
N17 0.030(3) 0.050(4) 0.044(4) 0.000 0.017(3) 0.000
C8 0.037(4) 0.031(4) 0.050(4) 0.000 0.020(3) 0.000
S1 0.0345(14) 0.0462(16) 0.0564(17) -0.0303(15) 0.0112(12) -0.0060(13)
N22 0.043(5) 0.045(5) 0.036(5) 0.009(4) 0.020(4) 0.009(4)
C5 0.041(6) 0.055(7) 0.098(10) -0.039(8) 0.046(7) -0.020(6)
C6 0.032(5) 0.019(4) 0.029(4) -0.003(4) -0.002(4) -0.001(4)
C7 0.026(4) 0.026(4) 0.035(5) -0.004(4) 0.015(4) 0.001(4)
C9 0.034(5) 0.040(6) 0.051(6) -0.001(4) 0.022(5) -0.005(4)
C10 0.037(5) 0.041(6) 0.035(5) 0.003(5) 0.018(4) 0.014(4)
C11 0.033(5) 0.036(6) 0.026(5) 0.001(4) 0.005(4) 0.013(4)
C12 0.026(4) 0.028(4) 0.028(4) -0.004(4) 0.005(4) 0.007(4)
N3 0.031(7) 0.051(5) 0.040(6) -0.021(5) 0.000(5) 0.007(4)
C13 0.046(6) 0.049(7) 0.046(6) -0.012(6) 0.029(6) -0.005(6)
C14 0.069(9) 0.084(10) 0.070(9) 0.025(8) 0.044(8) 0.033(8)
N16 0.068(7) 0.063(7) 0.114(9) -0.057(7) 0.074(7) -0.036(6)
N18 0.029(4) 0.033(4) 0.039(5) -0.016(4) 0.009(4) 0.000(3)
N20 0.071(7) 0.057(7) 0.067(7) -0.011(6) 0.038(6) 0.009(6)
N21 0.063(6) 0.049(6) 0.070(7) 0.014(5) 0.048(6) 0.004(5)
 
_geom_special_details
;
 All esds (except the esd in the dihedral angle between two l.s. planes)
 are estimated using the full covariance matrix.  The cell esds are taken
 into account individually in the estimation of esds in distances, angles
 and torsion angles; correlations between esds in cell parameters are only
 used when they are defined by crystal symmetry.  An approximate (isotropic)
 treatment of cell esds is used for estimating esds involving l.s. planes.
;
 
loop_
 _geom_bond_atom_site_label_1
 _geom_bond_atom_site_label_2
 _geom_bond_distance
 _geom_bond_site_symmetry_2
 _geom_bond_publ_flag
Zn1 N15 2.012(5) . ?
Zn1 O1 2.031(3) 6_565 ?
Zn1 O1 2.031(3) . ?
Zn1 O2 2.036(3) 5_665 ?
Zn1 O2 2.036(3) 2_655 ?
Zn1 Zn1 2.9421(13) 5_665 ?
O1 C4 1.262(6) . ?
O2 C4 1.259(5) . ?
C1 C2 1.378(6) . ?
C1 C3 1.385(7) 7_665 ?
C1 H1 0.9500 . ?
C2 C3 1.397(6) . ?
C2 C4 1.498(6) . ?
C3 H3 0.9500 . ?
N15 C6 1.230(10) . ?
N15 C5 1.470(11) . ?
N17 N16 1.215(10) . ?
N17 C6 1.410(11) . ?
N17 C7 1.462(9) . ?
C8 C7 1.364(10) . ?
C8 C9 1.431(11) . ?
C8 H8 0.9500 . ?
C8 H8 0.9501 6_565 ?
S1 N3 1.618(8) . ?
S1 N18 1.634(8) . ?
N22 C13 1.332(15) . ?
N22 N21 1.371(12) . ?
N22 C10 1.398(12) . ?
C5 N16 1.330(13) . ?
C5 H5 0.9500 . ?
C6 H6 0.9500 . ?
C7 C12 1.432(12) . ?
C9 C10 1.347(14) . ?
C9 H9 0.9500 . ?
C10 C11 1.457(15) . ?
C11 N3 1.338(14) . ?
C11 C12 1.435(12) . ?
C12 N18 1.327(13) . ?
C13 N20 1.288(15) . ?
C13 C14 2.02(2) . ?
C13 H13 0.9500 . ?
C14 N21 1.359(16) . ?
C14 N20 1.354(19) . ?
C14 H14 0.9500 . ?
 
loop_
 _geom_angle_atom_site_label_1
 _geom_angle_atom_site_label_2
 _geom_angle_atom_site_label_3
 _geom_angle
 _geom_angle_site_symmetry_1
 _geom_angle_site_symmetry_3
 _geom_angle_publ_flag
N15 Zn1 O1 99.75(15) . 6_565 ?
N15 Zn1 O1 99.74(15) . . ?
O1 Zn1 O1 89.5(2) 6_565 . ?
N15 Zn1 O2 100.20(15) . 5_665 ?
O1 Zn1 O2 86.94(15) 6_565 5_665 ?
O1 Zn1 O2 160.06(15) . 5_665 ?
N15 Zn1 O2 100.20(15) . 2_655 ?
O1 Zn1 O2 160.05(15) 6_565 2_655 ?
O1 Zn1 O2 86.94(15) . 2_655 ?
O2 Zn1 O2 89.7(2) 5_665 2_655 ?
N15 Zn1 Zn1 173.79(16) . 5_665 ?
O1 Zn1 Zn1 84.63(10) 6_565 5_665 ?
O1 Zn1 Zn1 84.63(10) . 5_665 ?
O2 Zn1 Zn1 75.50(10) 5_665 5_665 ?
O2 Zn1 Zn1 75.50(10) 2_655 5_665 ?
C4 O1 Zn1 121.1(3) . . ?
C4 O2 Zn1 132.9(3) . 5_665 ?
C2 C1 C3 121.0(4) . 7_665 ?
C2 C1 H1 119.5 . . ?
C3 C1 H1 119.5 7_665 . ?
C1 C2 C3 119.0(4) . . ?
C1 C2 C4 121.3(4) . . ?
C3 C2 C4 119.7(4) . . ?
C1 C3 C2 120.0(4) 7_665 . ?
C1 C3 H3 120.0 7_665 . ?
C2 C3 H3 120.0 . . ?
O2 C4 O1 125.7(4) . . ?
O2 C4 C2 116.6(4) . . ?
O1 C4 C2 117.6(4) . . ?
C6 N15 C5 100.9(7) . . ?
C6 N15 Zn1 136.1(5) . . ?
C5 N15 Zn1 121.0(5) . . ?
N16 N17 C6 112.7(7) . . ?
N16 N17 C7 124.9(7) . . ?
C6 N17 C7 121.4(5) . . ?
C7 C8 C9 121.7(7) . . ?
C7 C8 H8 119.1 . . ?
C9 C8 H8 119.1 . . ?
C7 C8 H8 75.6(5) . 6_565 ?
C9 C8 H8 89.6(5) . 6_565 ?
H8 C8 H8 105.3 . 6_565 ?
N3 S1 N18 100.8(5) . . ?
C13 N22 N21 108.2(9) . . ?
C13 N22 C10 133.2(10) . . ?
N21 N22 C10 118.3(9) . . ?
N16 C5 N15 111.1(10) . . ?
N16 C5 H5 124.4 . . ?
N15 C5 H5 124.4 . . ?
N15 C6 N17 110.4(7) . . ?
N15 C6 H6 124.8 . . ?
N17 C6 H6 124.8 . . ?
C8 C7 C12 117.9(7) . . ?
C8 C7 N17 116.7(7) . . ?
C12 C7 N17 125.4(7) . . ?
C8 C7 H8 39.2(3) . 6_565 ?
C12 C7 H8 102.5(6) . 6_565 ?
N17 C7 H8 120.4(7) . 6_565 ?
C10 C9 C8 122.9(8) . . ?
C10 C9 H9 118.5 . . ?
C8 C9 H9 118.5 . . ?
C9 C10 N22 122.4(10) . . ?
C9 C10 C11 116.9(8) . . ?
N22 C10 C11 120.5(10) . . ?
N3 C11 C12 112.9(9) . . ?
N3 C11 C10 126.8(9) . . ?
C12 C11 C10 120.3(9) . . ?
N18 C12 C7 125.6(8) . . ?
N18 C12 C11 114.5(8) . . ?
C7 C12 C11 119.9(9) . . ?
C11 N3 S1 106.4(7) . . ?
N20 C13 N22 115.4(12) . . ?
N20 C13 C14 41.5(7) . . ?
N22 C13 C14 73.9(8) . . ?
N20 C13 H13 122.3 . . ?
N22 C13 H13 122.3 . . ?
C14 C13 H13 163.8 . . ?
N21 C14 N20 117.2(11) . . ?
N21 C14 C13 78.2(8) . . ?
N20 C14 C13 39.1(6) . . ?
N21 C14 H14 121.4 . . ?
N20 C14 H14 121.4 . . ?
C13 C14 H14 160.3 . . ?
N17 N16 C5 103.8(9) . . ?
C12 N18 S1 105.4(6) . . ?
C13 N20 C14 99.5(10) . . ?
C14 N21 N22 99.7(10) . . ?
 
_refine_diff_density_max    3.387
_refine_diff_density_min   -0.551
_refine_diff_density_rms    0.155

_shelx_res_file
;
TITL pvl1195_autored_a.res in I2/m
    pvl1195.res
    created by SHELXL-2018/3 at 16:06:00 on 04-Sep-2023
REM Old TITL pvl1195_autored in I2
REM SHELXT solution in I2/m: R1 0.171, Rweak 0.026, Alpha 0.055
REM <I/s>   0.000 for    0 systematic absences,  Orientation as input
REM Formula found by SHELXT:  C26 N8 O9 S2 Zn
CELL  0.71073  10.0992  16.3677  12.7796   90.000  102.603   90.000
ZERR   4  0.0012   0.0021   0.0016    0.000    0.014    0.000
LATT  2
SYMM -X, Y, -Z
SFAC C H N O S ZN
UNIT 72 40 32 16 4 4
ACTA
TEMP -123
L.S. 6
BOND $H
OMIT -2   0   2
OMIT 2   0   0
OMIT  0   0   2
OMIT 0
LIST 4
FMAP 2
PLAN 20
WGHT    0.120000    0.069500
FVAR       0.26542
ZN1   6    0.391655    0.500000    0.060493    10.50000    0.02103    0.01790 =
         0.02014    0.00000    0.00478    0.00000
O1    4    0.505418    0.587363    0.151076    11.00000    0.04499    0.03120 =
         0.03224   -0.00845    0.00697   -0.01422
O2    4    0.665033    0.587764    0.053406    11.00000    0.03956    0.03990 =
         0.03220   -0.01868    0.00406   -0.00300
C1    1    0.623560    0.726112    0.262793    11.00000    0.02529    0.03387 =
         0.03130   -0.00578    0.00277   -0.00295
AFIX  43
H1    2    0.536933    0.709547    0.272605    11.00000   -1.20000
AFIX   0
C2    1    0.684202    0.683322    0.193070    11.00000    0.02770    0.01964 =
         0.02134   -0.00202    0.00011    0.00133
C3    1    0.813024    0.707081    0.181200    11.00000    0.03244    0.03146 =
         0.02565   -0.00575    0.00379    0.00532
AFIX  43
H3    2    0.857098    0.677405    0.134707    11.00000   -1.20000
AFIX   0
C4    1    0.613540    0.613326    0.128542    11.00000    0.03176    0.02349 =
         0.02430   -0.00110   -0.00212    0.00212
N15   3    0.229112    0.500000    0.127766    10.50000    0.02288    0.04300 =
         0.03220    0.00000    0.01265    0.00000
N17   3    0.085677    0.500000    0.231957    10.50000    0.03031    0.05008 =
         0.04386    0.00000    0.01722    0.00000
C8    1   -0.100502    0.500000    0.321644    10.50000    0.03667    0.03136 =
         0.05050    0.00000    0.02032    0.00000
AFIX  43
H8    2   -0.133569    0.453866    0.278735    10.50000   -1.20000
AFIX   0
PART 0
PART -1 10.5
S1    5    0.159221    0.733998    0.440770    10.50000    0.03449    0.04617 =
         0.05640   -0.03031    0.01121   -0.00597
N22   3   -0.211460    0.623207    0.532833    10.50000    0.04306    0.04538 =
         0.03585    0.00866    0.02028    0.00926
C5    1    0.143854    0.426829    0.124551    10.50000    0.04120    0.05477 =
         0.09785   -0.03930    0.04569   -0.02035
AFIX  43
H5    2    0.153621    0.378537    0.085690    10.50000   -1.20000
AFIX   0
C6    1    0.189731    0.541185    0.195583    10.50000    0.03214    0.01869 =
         0.02905   -0.00291   -0.00237   -0.00099
AFIX  43
H6    2    0.224528    0.593369    0.219989    10.50000   -1.20000
AFIX   0
C7    1    0.013509    0.538584    0.306370    10.50000    0.02564    0.02560 =
         0.03540   -0.00432    0.01471    0.00097
C9    1   -0.171607    0.527176    0.400585    10.50000    0.03436    0.04042 =
         0.05104   -0.00068    0.02231   -0.00474
AFIX  43
H9    2   -0.244531    0.494898    0.413583    10.50000   -1.20000
AFIX   0
C10   1   -0.139732    0.596478    0.457266    10.50000    0.03732    0.04114 =
         0.03476    0.00258    0.01799    0.01388
C11   1   -0.020290    0.640665    0.441716    10.50000    0.03347    0.03637 =
         0.02606    0.00081    0.00455    0.01280
C12   1    0.054073    0.612208    0.365165    10.50000    0.02628    0.02835 =
         0.02785   -0.00442    0.00478    0.00746
N3    3    0.028776    0.710602    0.489085    10.50000    0.03109    0.05103 =
         0.04048   -0.02109   -0.00002    0.00712
C13   1   -0.223234    0.695509    0.577850    10.50000    0.04573    0.04943 =
         0.04608   -0.01183    0.02915   -0.00452
AFIX  43
H13   2   -0.171443    0.741715    0.566082    10.50000   -1.20000
AFIX   0
C14   1   -0.351090    0.619511    0.631343    10.50000    0.06899    0.08405 =
         0.07009    0.02538    0.04416    0.03335
AFIX  43
H14   2   -0.413243    0.599628    0.671418    10.50000   -1.20000
AFIX   0
N16   3    0.051264    0.437087    0.183165    10.50000    0.06775    0.06285 =
         0.11352   -0.05699    0.07442   -0.03644
N18   3    0.159776    0.658242    0.357593    10.50000    0.02932    0.03300 =
         0.03927   -0.01611    0.00943   -0.00006
N20   3   -0.309713    0.698418    0.638439    10.50000    0.07135    0.05730 =
         0.06750   -0.01062    0.03782    0.00868
N21   3   -0.299929    0.569960    0.564455    10.50000    0.06330    0.04891 =
         0.06979    0.01436    0.04771    0.00381
PART 0
HKLF 4




REM  pvl1195_autored_a.res in I2/m
REM wR2 = 0.1954, GooF = S = 1.078, Restrained GooF = 1.078 for all data
REM R1 = 0.0656 for 1922 Fo > 4sig(Fo) and 0.0781 for all 2362 data
REM 223 parameters refined using 0 restraints

END

WGHT      0.1206      0.0173

REM Highest difference peak  3.387,  deepest hole -0.551,  1-sigma level  0.155
Q1    1  -0.5000  0.7503  0.5000  10.50000  0.05    3.39
Q2    1  -0.5000  0.6847  0.5000  10.50000  0.05    2.15
Q3    1  -0.4993  0.5970  0.5485  11.00000  0.05    1.12
Q4    1   0.3159  0.5000  0.0990  10.50000  0.05    0.64
Q5    1   0.4546  0.5000  0.0183  10.50000  0.05    0.57
Q6    1   0.7982  0.7263  0.1521  11.00000  0.05    0.50
Q7    1   0.1842  0.5000  0.1481  10.50000  0.05    0.42
Q8    1   0.7279  0.6787  0.2003  11.00000  0.05    0.40
Q9    1   0.0927  0.4836  0.2133  11.00000  0.05    0.39
Q10   1   0.0607  0.4343  0.1510  11.00000  0.05    0.38
Q11   1  -0.4013  0.6404  0.5796  11.00000  0.05    0.35
Q12   1   0.6381  0.5546  0.0181  11.00000  0.05    0.32
Q13   1   0.2114  0.5409  0.2192  11.00000  0.05    0.32
Q14   1   0.1504  0.6833  0.3698  11.00000  0.05    0.31
Q15   1   0.1238  0.4436  0.1028  11.00000  0.05    0.31
Q16   1   0.6547  0.6489  0.1665  11.00000  0.05    0.29
Q17   1  -0.3191  0.6727  0.6375  11.00000  0.05    0.28
Q18   1  -0.2514  0.5000  0.6292  10.50000  0.05    0.27
Q19   1   0.2387  0.6885  0.1903  11.00000  0.05    0.26
Q20   1   0.6682  0.5821  0.0816  11.00000  0.05    0.26
;
_shelx_res_checksum   65477

_shelx_hkl_file
;
   0 -12   0  502.20   30.34
   0 -12   2  184.35   18.04
   0 -12   6  129.14    8.31
   0 -12   8  165.02    8.70
   0 -11  -1 1174.06   44.57
   0 -11   1 1032.87   40.63
   0 -11  -3   44.25    9.19
   0 -11   5    6.02    1.88
   0 -11   7  294.36   12.89
   0 -10   0 1889.96   53.10
   0 -10  -2  179.53   16.54
   0 -10   4   17.95    3.33
   0 -10  -4    8.21    3.87
   0 -10  -6    7.48    4.24
   0 -10   6    8.61    2.29
   0 -10   8   66.83    6.84
   0  -9  -1  150.43   14.19
   0  -9  -3    5.29    3.23
   0  -9   3    3.90    1.44
   0  -9  -5  155.38   16.16
   0  -9   5  144.91    8.80
   0  -9   7   50.69    5.60
   0  -9  -7   56.94   10.55
   0  -9   9  116.50   10.27
   0  -9  13    8.64    5.23
   0  -8   0  555.62   25.14
   0  -8  -2  638.69   28.00
   0  -8   2  552.55   17.21
   0  -8   4    0.32    0.95
   0  -8  -4    1.13    1.66
   0  -8   6  417.46   15.54
   0  -8  -6  436.94   26.29
   0  -8   8   21.98    4.29
   0  -8  -8   23.44    6.87
   0  -8  10  272.01   18.64
   0  -8  12   13.31    6.24
   0  -7  -1  275.53   16.98
   0  -7   1  264.64   11.55
   0  -7  -3  917.08   32.34
   0  -7   3  791.28   17.98
   0  -7  -5   93.84   11.33
   0  -7   5  117.27    7.39
   0  -7  -7  408.15   25.29
   0  -7   7  398.62   17.31
   0  -7   9    5.97    3.41
   0  -7  -9   22.02    6.54
   0  -7  11   69.66   11.51
   0  -7  13   20.81    7.42
   0  -6   0   13.01    3.45
   0  -6  -2   10.30    3.40
   0  -6   2   10.70    2.13
   0  -6  -4    1.87    1.36
   0  -6   4    1.98    1.10
   0  -6  -6   44.86    7.77
   0  -6   6   51.62    6.30
   0  -6  -8  141.27   15.32
   0  -6 -10    6.41    4.08
   0  -6  12    3.94    4.17
   0  -5  -1   10.20    2.71
   0  -5   1   11.12    2.09
   0  -5  -3   75.44    8.27
   0  -5   3   97.29    5.46
   0  -5   5    0.95    1.06
   0  -5  -5    1.42    1.43
   0  -5  -7  474.21   25.75
   0  -5  -9  125.43   14.54
   0  -5 -11   -2.07    2.13
   0  -5  11    0.83    1.21
   0  -5  13   11.26    4.88
   0  -4   0  830.91   17.28
   0  -4  -2    1.37    1.28
   0  -4   2    2.06    0.73
   0  -4  -4  463.98   20.19
   0  -4  -6  568.62   25.44
   0  -4  -8  500.92   26.49
   0  -4  10   13.07    4.49
   0  -4 -10   11.27    4.81
   0  -4  12   32.78    7.78
   0  -4  14    5.46    3.98
   0  -3  -1 2522.14   33.72
   0  -3   1 2471.79   21.03
   0  -3  -3  805.01   22.62
   0  -3  -5  205.70   13.61
   0  -3  -7  189.42   14.90
   0  -3   9  154.55   14.05
   0  -3  -9  153.92   15.05
   0  -3  11  289.40   21.34
   0  -3  13   50.05    9.84
   0  -2   0  913.82   12.62
   0  -2  -2  177.26    8.69
   0  -2  -4  389.73   16.10
   0  -2   6  197.13   12.76
   0  -2  -6  180.54   13.08
   0  -2  -8  244.53   17.47
   0  -2   8  275.03   17.45
   0  -2  10  106.79   12.18
   0  -2  12   30.77    7.06
   0  -2  14   26.49    7.63
   0  -1  -1  702.43   12.14
   0  -1  -3  291.03   11.38
   0  -1  -5   21.68    3.96
   0  -1   5   15.94    3.25
   0  -1   7  200.45   13.73
   0  -1   9  292.04   19.29
   0  -1  11  104.40   12.64
   0  -1  13    6.90    3.74
   0  -1  17   29.64   11.18
   0   0  -2  613.68   12.84
   0   0   2  613.94   12.76
   0   0   4  332.59   13.23
   0   0   6   36.10    5.42
   0   0   8  765.44   29.24
   0   0  10  575.66   28.09
   0   0  12   65.43   10.59
   0   0  14   40.97    9.27
   0   1   3  283.68   11.10
   0   1   5   21.25    3.86
   0   1   7  220.00   14.50
   0   1   9  249.64   18.01
   0   1  11   78.87   11.42
   0   1  13    8.49    4.74
   0   2   0  918.69   12.55
   0   2   2  175.78    8.54
   0   2   4  377.71   15.63
   0   2   6  186.78   13.14
   0   2   8  250.67   17.35
   0   2  10  108.73   12.82
   0   2  12   37.07    8.20
   0   2  14   26.51    7.86
   0   2  16   15.40    8.30
   0   3   1 2558.58   34.26
   0   3  -1 2487.01   20.60
   0   3   3  793.10   22.09
   0   3   5  208.49   13.36
   0   3   7  192.31   14.59
   0   3   9  153.52   14.72
   0   3  11  283.44   22.30
   0   3  13   47.36    9.78
   0   3  15   35.32    8.77
   0   4   0  846.93   17.05
   0   4  -2    1.96    0.82
   0   4   2    2.18    0.97
   0   4   4  473.63   20.10
   0   4   6  563.53   24.48
   0   4   8  495.11   25.72
   0   4  10    8.17    3.74
   0   4  12   30.25    7.84
   0   4  14    9.10    5.03
   0   5  -1   12.16    2.01
   0   5   1    9.78    2.57
   0   5   3   78.36    8.45
   0   5   5   -0.13    1.36
   0   5   7  466.58   24.51
   0   5   9  109.37   13.08
   0   5  11    2.53    2.90
   0   5  13    8.75    4.46
   0   5  15   26.28    8.72
   0   5  15   35.66   11.94
   0   6   0   11.26    2.33
   0   6  -2   12.52    2.09
   0   6   2    9.18    2.75
   0   6   4    2.74    1.82
   0   6   6   43.19    7.40
   0   6   8  124.86   13.98
   0   6  10    2.75    2.74
   0   6  12   -1.15    1.86
   0   6  14    9.77    6.24
   0   6  14   11.94    5.75
   0   7   1  262.54   13.87
   0   7  -1  271.63   11.22
   0   7   3  897.64   29.86
   0   7   3  897.21   31.21
   0   7  -3  785.74   18.02
   0   7   5   86.88   10.95
   0   7   7  401.18   24.72
   0   7   9   16.61    5.59
   0   7  11  122.43   16.06
   0   7  13   11.54    6.24
   0   7  13    6.34    4.74
   0   7  15   30.07    9.65
   0   8   0  547.68   19.44
   0   8   2  636.58   24.69
   0   8  -2  587.62   17.14
   0   8   4    2.71    1.98
   0   8   4    2.82    1.90
   0   8   6  428.34   26.18
   0   8   6  432.09   26.08
   0   8   8   20.61    6.14
   0   8  10  278.39   26.28
   0   8  10  278.28   24.35
   0   8  12   15.91    7.44
   0   8  12   15.73    6.57
   0   8  14   22.34    9.33
   0   8  14   25.64    8.94
   0   9   1  140.58   11.03
   0   9  -1  147.91    9.36
   0   9  -3    5.66    1.70
   0   9   3    6.35    3.11
   0   9   5  146.17   15.13
   0   9   5  143.07   14.47
   0   9   7   47.81    9.63
   0   9   7   49.35    9.78
   0   9   9  102.70   14.49
   0   9   9   95.77   15.41
   0   9  11   36.94    9.37
   0   9  11   33.86   10.16
   0   9  13    2.44    3.44
   0   9  13    2.92    2.01
   0   9  15   32.02   10.75
   0  10   0 1833.62   40.30
   0  10   2  160.29   13.35
   0  10  -2  132.47    9.36
   0  10  -4   21.81    3.62
   0  10   4    5.90    3.12
   0  10   6    6.11    3.95
   0  10   6    6.89    4.10
   0  10   8   72.42   12.34
   0  10   8   79.85   13.04
   0  10  10  137.56   18.40
   0  10  10  141.11   19.27
   0  10  12   28.91    8.95
   0  10  12   20.96    8.44
   0  10  14   11.77    6.89
   0  11   1 1059.88   33.84
   0  11  -1 1014.64   29.28
   0  11   3   52.11    8.32
   0  11  -3   17.17    3.49
   0  11   5    3.44    2.97
   0  11   7  307.02   25.77
   0  11   9  199.64   21.46
   0  11   9  218.26   23.87
   0  11  11  152.90   20.36
   0  11  11  161.09   22.34
   0  11  13    1.10    3.54
   0  12   0  477.66   22.57
   0  12   2  213.02   16.55
   0  12  -2  193.23   12.68
   0  12   4    3.84    2.27
   0  12  -4    4.68    1.85
   0  12   6  141.11   16.98
   0  12   8  190.01   22.15
   0  12  10  203.87   24.98
   0  12  12    6.06    5.56
   0  13  -1  202.51   15.18
   0  13   1  192.58   15.94
   0  13  -3   39.40    5.72
   0  13   3   38.71    7.61
   0  13   5   48.28    9.73
   0  13   7   16.78    6.05
   0  13   9   56.44   12.70
   0  13  11   22.92    9.03
   0  14   0  202.63   15.58
   0  14  -2   89.49    9.69
   0  14   2  118.85   13.49
   0  14   4   20.20    5.91
   0  14  -4    7.25    2.58
   0  14   6   76.69   13.18
   0  14   8  108.29   17.39
   0  14  10  104.83   18.60
   0  15   1  214.31   17.93
   0  15  -1  184.16   15.17
   0  15  -3    4.31    2.39
   0  15   3   14.43    4.90
   0  15   5   12.15    5.56
   0  15   7  134.84   18.85
   0  15   9   80.38   15.81
   0  16   0   96.45   12.01
   0  16  -2   52.25    7.90
   0  16   2   50.46    9.29
   0  16   4    2.91    2.75
   0  16  -4    2.72    1.69
   0  16   6   44.33   10.23
   0  16   8   67.87   13.88
   0  17  -1   41.74    7.84
   0  17   1   48.93    8.65
   0  17   3   17.16    5.81
   0  17   5   14.52    6.16
   0  17   7   26.78    9.10
   0  17   9    7.15    5.63
   0  18   0   98.12   12.78
   0  18   2   19.22    6.11
   0  18   4    9.78    4.34
   0  18   6   18.16    7.37
   0  18   8    8.27    6.01
   0  19   1   90.84   13.58
   0  19   3   41.42    9.35
   0  19   5   20.26    8.27
   0  19   7   43.97   11.91
   0  20   2   34.92    8.39
   0  20   4    0.81    2.98
   0  20   6    3.98    4.62
   0  21   5   -7.47    5.08
   1 -14   3  387.03   21.70
   1 -14   5   15.01    4.40
   1 -13   2  207.62   15.71
   1 -13   4    5.36    2.67
   1 -13   6   14.27    4.14
  -1 -12   3   95.31   13.15
   1 -12  -1   61.92   10.69
  -1 -12   1   43.56    8.87
  -1 -12  -1  427.49   28.37
   1 -12   1  394.56   21.43
   1 -12   3   38.86    6.22
   1 -12   5   -0.80    1.09
   1 -12   7  111.24   10.40
   1 -11  -4  373.91   26.28
  -1 -11   2   77.88   11.15
   1 -11  -2  143.41   15.82
  -1 -11   0  683.79   33.32
   1 -11   0  781.09   29.79
  -1 -11  -2  548.64   30.72
   1 -11   2  550.15   23.42
   1 -11   4  102.38    9.47
   1 -11   6    2.87    1.72
   1 -11   8  128.12   11.38
  -1 -10   9   80.17    4.73
  -1 -10   9   85.95    4.75
   1 -10  -7    9.48    4.41
   1 -10  -5  100.29   13.01
  -1 -10   3   22.58    5.84
   1 -10  -3    8.38    3.74
  -1 -10   1  519.74   27.56
   1 -10  -1  633.81   30.49
   1 -10   1  246.25   15.37
  -1 -10  -1  316.73   22.02
  -1 -10  -3  118.92   14.10
   1 -10   3  100.01    9.05
   1 -10   5   19.28    3.75
  -1 -10  -5   34.81    7.97
   1 -10   7   52.71    6.98
   1 -10   9   46.60    7.00
   1 -10  13    5.51    5.16
  -1  -9  10    7.13    2.70
  -1  -9   8    5.49    1.19
   1  -9  -8    2.18    2.77
   1  -9  -6  225.58   19.40
   1  -9  -4  139.85   14.54
  -1  -9   2    5.54    2.85
   1  -9  -2    3.32    1.89
  -1  -9   0  331.09   20.67
   1  -9   0  316.60   17.48
   1  -9   2   71.25    7.35
  -1  -9  -2   77.08   10.44
  -1  -9  -4   -0.48    1.45
   1  -9   4    2.50    1.69
  -1  -9  -6   11.96    4.88
   1  -9   6   14.83    3.45
   1  -9   8  101.39   10.36
   1  -9  10  129.35   13.47
  -1  -8  13   35.07    8.77
  -1  -8  11    1.31    2.21
   1  -8  -9   86.92   12.99
  -1  -8   9   54.63    6.40
   1  -8  -7  460.05   27.18
  -1  -8   7  463.50   12.77
   1  -8  -5  721.59   31.70
   1  -8  -3   80.43   10.32
   1  -8  -1  216.34   13.92
  -1  -8   1  172.03   13.92
  -1  -8  -1 1180.22   38.02
   1  -8   1 1141.38   28.90
   1  -8   3  268.85   13.25
  -1  -8  -3  268.44   19.44
  -1  -8  -5   23.08    6.15
   1  -8   5   23.01    4.14
  -1  -8  -7    1.35    1.69
   1  -8   7   -0.08    1.16
   1  -8   9  293.83   19.47
   1  -8  11  102.63   14.28
   1  -8  13   45.15   11.43
  -1  -7  12   26.80    6.86
   1  -7 -10   99.17   14.19
   1  -7  -8  273.82   20.66
  -1  -7   8  217.57   12.29
  -1  -7   6  445.56   11.42
   1  -7  -6  553.37   27.48
   1  -7  -4  340.33   20.19
   1  -7  -2   18.44    4.63
  -1  -7   2   41.58    6.20
   1  -7   0   18.85    3.78
  -1  -7   0   14.43    3.72
   1  -7   2 2197.12   36.87
  -1  -7  -2 2155.47   50.05
   1  -7   4  561.26   19.42
  -1  -7  -4  588.43   27.63
   1  -7   6   87.12    8.68
  -1  -7  -6  139.45   14.75
   1  -7   8   75.53   11.73
  -1  -7  -8  101.51   14.14
   1  -7  10  113.57   14.03
   1  -7  12   72.88   13.28
   1  -7  14   16.46    6.99
  -1  -6  13   54.05   10.00
   1  -6 -11   87.49   13.39
  -1  -6  11   87.93   11.63
   1  -6  -9  205.85   18.47
   1  -6  -7  276.32   19.29
  -1  -6   5  196.75    6.57
   1  -6  -5  175.36   13.97
   1  -6  -3   42.01    6.57
  -1  -6   1    1.27    1.41
   1  -6  -1    2.30    1.56
  -1  -6  -1  197.90   13.47
   1  -6   1  230.50   11.68
  -1  -6  -3  493.99   23.69
   1  -6   3  542.62   17.50
  -1  -6  -5  198.22   16.21
   1  -6   5  142.28   10.39
  -1  -6  -7  196.28   18.22
   1  -6   7  173.65   14.47
  -1  -6  -9    2.50    1.95
   1  -6   9    2.97    2.86
   1  -6  11   49.28   10.46
   1  -6  13   46.32   11.01
  -1  -5  14   28.99    7.82
  -1  -5  12   78.90   11.16
   1  -5 -12   70.31   11.93
  -1  -5  10   49.21    7.91
   1  -5 -10   62.47   10.29
   1  -5  -8  145.52   14.20
   1  -5  -6  500.36   23.57
   1  -5  -4  273.80   15.56
   1  -5  -2   26.35    4.45
   1  -5  -2   29.52    4.94
  -1  -5   0   98.71    8.46
   1  -5   0   91.85    7.32
  -1  -5  -2  559.99   22.56
   1  -5   2  556.82   16.56
  -1  -5  -4 1389.70   39.04
   1  -5   4 1279.36   28.02
  -1  -5  -6  204.41   17.06
   1  -5   6  137.85   12.19
  -1  -5  -8  179.04   17.57
   1  -5  10    5.71    3.32
   1  -5  12  141.93   17.79
   1  -5  14    4.67    3.63
  -1  -4  15   70.30   12.89
  -1  -4  13  159.69   16.19
  -1  -4  11  135.61   13.62
   1  -4 -11  123.06   14.53
  -1  -4   9  100.13   10.33
   1  -4  -9  111.26   12.32
   1  -4  -7  813.12   29.82
   1  -4  -5  872.30   27.54
   1  -4  -3  115.41    8.88
   1  -4  -1    4.18    1.72
  -1  -4   1    5.85    1.81
  -1  -4  -1  183.73   11.17
   1  -4   1  216.09    9.49
   1  -4   3 2437.15   35.52
  -1  -4  -3 2555.51   48.09
  -1  -4  -5  337.48   19.93
  -1  -4  -7  116.92   13.14
  -1  -4  -9  254.18   21.30
   1  -4   9  248.18   20.21
   1  -4  11   20.11    6.24
   1  -4  13  123.40   17.11
  -1  -3  14  173.20   20.19
  -1  -3  12   13.25    4.59
   1  -3 -10   59.93    9.31
  -1  -3  10   56.02    7.96
   1  -3  -8  453.27   22.56
  -1  -3   8  411.92   18.99
   1  -3  -6  472.04   19.94
   1  -3  -4    4.28    2.05
   1  -3  -2  358.43   13.88
   1  -3  -2  365.53   13.46
   1  -3   0   61.44    4.70
  -1  -3   0   17.50    2.91
  -1  -3  -2 9893.72   81.87
   1  -3   2 9996.42   63.26
  -1  -3  -4   47.79    6.70
  -1  -3  -6    4.20    2.62
   1  -3   8  124.30   13.15
  -1  -3  -8  116.09   13.39
   1  -3  10  258.91   21.21
   1  -3  12   14.55    5.98
   1  -3  14   10.13    4.91
  -1  -2  15   43.41   10.48
  -1  -2  13   24.83    6.23
  -1  -2  11    9.85    3.83
   1  -2  -9   66.70    8.68
  -1  -2   9   70.45    8.31
  -1  -2   7  182.05   11.36
   1  -2  -7  157.55   11.81
   1  -2  -5   54.57    5.78
   1  -2  -3  158.39    8.06
   1  -2  -1   31.39    3.30
  -1  -2   1   24.07    2.62
  -1  -2  -1 2209.19   30.93
   1  -2   1 2071.45   26.15
  -1  -2  -3  380.35   16.53
  -1  -2  -5    0.27    1.18
   1  -2   7   26.41    5.84
  -1  -2  -7   26.28    6.07
   1  -2   9  288.76   21.09
   1  -2  11   55.87   10.16
   1  -2  13    0.19    2.33
  -1  -1  16   38.22   10.96
  -1  -1  14   75.07   11.26
  -1  -1  14   57.32   12.25
  -1  -1  12   11.85    4.00
  -1  -1  10  121.92   11.45
  -1  -1   8   18.85    3.96
   1  -1  -6  234.32   12.35
  -1  -1   6  245.03   11.68
  -1  -1   4  121.63    6.02
   1  -1  -4  139.94    7.43
  -1  -1   2  653.53   10.92
   1  -1  -2  585.36   14.74
   1  -1  -2  573.75   11.06
  -1  -1   0  193.43    7.12
   1  -1   0  216.32    7.14
  -1  -1  -2  872.70   21.52
   1  -1   4   33.53    5.04
  -1  -1  -4   46.86    6.16
   1  -1   6   16.43    4.25
   1  -1   8  257.56   18.50
   1  -1  10  338.64   24.06
   1  -1  12   34.07    8.24
   1  -1  14   11.01    5.60
  -1   0  17    4.53    4.53
  -1   0  15   57.35   13.12
  -1   0  13  125.43   14.21
  -1   0  11    0.36    1.02
  -1   0   9  811.14   28.68
  -1   0   7   62.71    6.54
  -1   0   5  679.93   17.31
  -1   0   3 1331.32   15.77
  -1   0   3 1315.40   23.28
   1   0  -3 1328.02   15.84
   1   0  -1 2533.50   20.75
  -1   0   1 2314.18   22.51
   1   0   1 4597.42   40.00
   1   0   3 1927.92   34.29
   1   0   5    3.06    1.69
   1   0   7   61.81    8.61
   1   0   9  456.79   26.40
   1   0  11  284.02   22.87
   1   0  13   81.75   13.43
   1   0  15  119.33   17.37
  -1   1  16   31.25    9.84
  -1   1  14   60.46   10.32
  -1   1  14   56.99   13.12
  -1   1  12   15.01    4.64
  -1   1  10  108.89   11.45
  -1   1   8   11.74    3.38
  -1   1   6  238.14   12.33
  -1   1   4  132.17    7.19
   1   1  -2  645.34   10.80
  -1   1   2  584.83   14.70
  -1   1   0  221.07    7.26
   1   1   0  191.65    6.92
   1   1   2  898.94   21.56
   1   1   4   51.61    6.29
   1   1   6   22.53    4.91
   1   1   8  282.65   19.57
   1   1  10  301.51   22.29
   1   1  12   19.01    6.39
   1   1  14   10.16    5.20
  -1   2  15   55.63   12.92
  -1   2  13   27.70    6.66
  -1   2  13   23.01    8.14
  -1   2  11    9.23    3.56
  -1   2   9   68.41    8.76
  -1   2   7  158.35   11.52
  -1   2   5   51.11    5.46
  -1   2   3  158.27    8.15
  -1   2   3  166.51    9.80
   1   2  -1   24.78    2.57
  -1   2   1   31.51    3.46
   1   2   1 2219.16   30.88
  -1   2  -1 2045.44   27.01
   1   2   3  379.00   16.11
   1   2   5   -0.28    1.48
   1   2   7   25.69    5.66
   1   2   9  267.13   20.57
   1   2  11   51.36    9.79
   1   2  13    2.56    2.42
   1   2  15   -2.40    3.14
  -1   3  16   27.32   10.08
  -1   3  14  196.55   24.17
  -1   3  14  195.03   19.58
  -1   3  12   20.50    7.22
  -1   3  12   17.63    5.16
  -1   3  10   59.59    8.87
  -1   3   8  444.09   21.45
  -1   3   6  475.02   19.66
  -1   3   4    3.70    1.74
  -1   3   4    5.57    2.52
  -1   3   2  376.38   14.20
  -1   3   0   65.02    4.89
   1   3   0   17.15    2.89
   1   3   2 9999.00   81.43
   1   3   4   44.92    6.33
   1   3   6    2.67    2.27
   1   3   8  112.10   12.89
   1   3  10  236.05   20.59
   1   3  12   18.28    6.05
   1   3  14   10.37    5.06
  -1   4  15   70.30   15.39
  -1   4  13  156.05   17.44
  -1   4  13  159.50   21.40
  -1   4  11  126.59   16.99
  -1   4  11  132.23   14.61
  -1   4   9  106.10   11.99
  -1   4   7  802.02   29.22
  -1   4   5  862.09   26.65
  -1   4   5  867.75   30.29
  -1   4   3  121.01    9.53
  -1   4   1    3.63    1.80
   1   4   1  200.02   11.70
  -1   4  -1  220.83    9.51
   1   4   3 2539.31   46.87
   1   4   5  330.02   19.18
   1   4   7  129.26   13.48
   1   4   9  250.63   20.56
   1   4  11   19.80    6.70
   1   4  13  119.23   16.95
   1   4  15    0.40    3.31
  -1   5  14   33.00    8.36
  -1   5  14   44.66   11.97
  -1   5  12   65.68   11.10
  -1   5  12   62.60   12.88
  -1   5  10   58.00    9.64
  -1   5  10   58.95   11.51
  -1   5   8  130.69   12.78
  -1   5   8  134.84   15.13
  -1   5   6  495.48   25.52
  -1   5   6  497.33   22.86
  -1   5   4  273.58   15.16
  -1   5   4  301.61   17.37
  -1   5   2   29.64    4.61
   1   5   0   98.22    8.28
  -1   5   0   97.58    7.20
  -1   5  -2  569.00   16.43
   1   5   2  573.20   22.83
   1   5   4 1399.51   38.68
   1   5   6  195.58   16.11
   1   5   8  168.12   16.48
   1   5  10    2.13    2.30
   1   5  12  140.34   18.19
   1   5  14    1.15    4.06
  -1   6  15   56.45   14.53
  -1   6  13   53.66   10.55
  -1   6  13   50.82   12.41
  -1   6  11   85.70   12.86
  -1   6  11   80.76   13.92
  -1   6   9  206.91   20.43
  -1   6   9  214.27   18.46
  -1   6   7  251.76   19.72
  -1   6   7  266.81   18.60
  -1   6   5  165.12   13.17
  -1   6   5  179.41   14.88
  -1   6   3   46.49    6.56
  -1   6   1    4.84    2.34
   1   6  -1    0.79    0.87
  -1   6  -1  241.66   11.42
   1   6   1  212.45   14.04
  -1   6  -3  522.58   17.57
   1   6   3  503.53   23.52
   1   6   5  185.94   15.64
   1   6   7  175.22   16.53
   1   6   9    2.82    2.62
   1   6  11   33.62    8.04
   1   6  13   43.00   10.74
   1   6  15   -1.12    2.14
  -1   7  14   82.92   17.47
  -1   7  14   78.68   13.78
  -1   7  12   20.87    6.83
  -1   7  12   19.10    7.64
  -1   7  10   92.21   14.61
  -1   7  10   92.48   13.10
  -1   7   8  271.43   20.58
  -1   7   8  275.56   22.32
  -1   7   6  499.92   25.23
  -1   7   6  540.85   28.59
  -1   7   4  342.20   20.20
  -1   7   2   15.96    3.79
   1   7  -2   37.50    3.11
   1   7   0   10.64    2.53
  -1   7   0   17.76    3.41
   1   7   2 2207.14   50.12
  -1   7  -2 2210.24   36.10
   1   7   4  625.33   28.48
   1   7   6  144.22   15.17
   1   7   8   99.64   13.61
   1   7  10  152.75   18.21
   1   7  12   85.24   14.83
   1   7  14   14.96    6.67
  -1   8  13   25.19    7.92
  -1   8  13   33.67   11.24
  -1   8  11   -1.40    2.30
  -1   8  11    2.28    2.74
  -1   8   9   84.81   13.92
  -1   8   9   81.19   12.33
  -1   8   7  457.29   28.88
  -1   8   7  441.19   25.69
  -1   8   5  695.62   31.33
  -1   8   3   82.76    9.49
   1   8  -3   81.96    4.50
   1   8  -1  169.77    9.41
  -1   8   1  234.86   14.31
   1   8   1 1146.85   30.82
  -1   8  -1 1182.79   28.90
   1   8   3  259.70   18.78
  -1   8  -3  286.44   14.12
   1   8   5   19.07    4.95
   1   8   7    1.44    2.04
   1   8   9  290.73   25.34
   1   8  11  110.27   16.70
   1   8  13   50.34   11.97
   1   8  15    0.28    2.66
  -1   9  14   24.04    9.68
  -1   9  14   22.87    8.44
  -1   9  12   20.62    7.36
  -1   9  12   23.91    8.80
  -1   9  10   12.44    5.87
  -1   9  10    7.95    3.81
  -1   9   8    5.58    3.39
  -1   9   8    1.95    2.88
  -1   9   6  216.53   19.14
  -1   9   4  125.14   12.90
  -1   9   2    2.98    2.01
   1   9  -2    4.32    1.48
  -1   9   0  293.47   15.42
   1   9   0  338.19   16.06
  -1   9  -2   78.26    7.52
   1   9   2   63.13    8.21
   1   9   4    2.38    2.12
   1   9   6    9.05    4.19
   1   9   8   80.67   13.12
   1   9  10  110.40   16.28
   1   9  12   67.72   13.81
   1   9  14    3.43    3.59
  -1  10  13   29.98   10.41
  -1  10  11    4.48    5.18
  -1  10   9  184.50   21.18
  -1  10   7   12.51    5.06
  -1  10   5   98.72   12.51
  -1  10   3    9.25    3.88
   1  10  -3   21.47    2.83
   1  10  -1  497.53   18.71
  -1  10   1  613.17   25.28
   1  10   1  292.87   17.04
  -1  10  -1  256.03   15.05
  -1  10  -3  105.22    9.25
   1  10   3  112.45   12.18
   1  10   3  106.53   12.93
   1  10   5   34.91    8.33
   1  10   7   36.05    8.95
   1  10   9   36.98    9.62
   1  10  11   86.61   15.37
   1  10  13   18.50    7.31
  -1  11  12   10.18    5.58
  -1  11  10   47.39   11.50
  -1  11   8  490.80   34.15
  -1  11   6   45.11    9.43
  -1  11   4  333.00   22.09
  -1  11   2  140.79   13.37
   1  11  -2   84.67    7.54
  -1  11   0  810.30   28.96
   1  11   0  649.06   24.43
   1  11   2  529.72   25.80
  -1  11  -2  548.20   22.25
   1  11   4  137.50   15.74
  -1  11  -4   98.19    9.63
   1  11   4  130.00   14.07
   1  11   6   14.24    5.92
   1  11   6    9.53    4.14
   1  11   8  130.55   17.78
   1  11   8  130.24   17.88
   1  11  10  114.73   17.67
   1  11  10  113.77   18.32
   1  11  12   84.96   16.36
   1  11  12   91.45   17.80
   1  11  14    2.13    2.63
  -1  12  11    9.78    6.92
  -1  12   9  181.76   22.23
  -1  12   7   51.63   10.53
  -1  12   5   55.80   10.04
   1  12  -3   85.72    6.82
  -1  12   3   71.92   10.42
   1  12  -1   42.76    6.14
  -1  12   1   56.21    8.37
  -1  12  -1  403.29   20.64
   1  12   1  403.29   21.66
   1  12   3   45.22    8.25
  -1  12  -3   39.96    6.17
   1  12   5    3.64    3.23
   1  12   7  109.43   16.13
   1  12   7  112.59   16.14
   1  12   9  245.39   26.10
   1  12   9  244.22   26.05
   1  12  11   76.10   15.44
   1  12  11   70.72   15.02
   1  12  13    3.94    3.86
  -1  13  10   41.27   11.41
  -1  13   8   71.60   13.39
  -1  13   6   42.87    9.57
   1  13  -4    2.61    1.18
  -1  13   4    7.11    3.45
  -1  13   2   10.90    3.77
   1  13  -2   12.91    3.22
  -1  13   0  119.17   12.61
   1  13   0  105.71   10.97
  -1  13  -2  228.62   15.62
   1  13   2  227.57   17.92
  -1  13  -4    4.54    1.94
   1  13   4   10.13    4.60
   1  13   6   18.37    6.85
   1  13   8   72.22   13.98
   1  13   8   64.88   13.28
   1  13  10   30.66    9.79
   1  13  10   17.32    6.74
   1  13  12    5.67    4.84
  -1  14  11   10.52    5.85
  -1  14   9  137.03   19.93
  -1  14   7   60.91   12.01
  -1  14   5   75.85   12.33
   1  14  -3    0.63    1.22
  -1  14   3    0.76    1.55
   1  14  -1   13.39    3.77
  -1  14   1   31.41    6.19
   1  14   1  140.84   13.76
  -1  14  -1  190.63   15.54
  -1  14  -3  424.77   22.21
   1  14   3  447.54   27.66
   1  14   5   38.31    8.80
   1  14   7   13.36    6.65
   1  14   9   58.37   13.56
  -1  15  10   12.45    6.59
  -1  15   8  169.63   21.49
  -1  15   6  108.28   15.76
  -1  15   4  104.86   14.61
   1  15  -4   88.93    6.90
   1  15  -2    4.29    2.25
  -1  15   2   15.38    4.95
  -1  15   0   59.44    9.13
   1  15   0   32.38    6.53
  -1  15  -2  280.42   19.04
   1  15   2  252.31   19.79
  -1  15  -4   75.75    9.44
   1  15   4  109.77   14.83
   1  15   6    2.75    3.51
   1  15   8   45.86   12.09
   1  15  10   30.64   10.37
  -1  16   9   25.25    8.95
  -1  16   7   79.88   14.44
  -1  16   5  144.97   18.38
  -1  16   3   40.48    8.80
   1  16  -3   60.57    7.01
   1  16  -1    2.93    2.54
  -1  16   1   -0.11    2.07
  -1  16  -1   71.34   10.28
   1  16   1   58.94    9.81
  -1  16  -3  171.72   15.02
   1  16   3  173.01   18.06
   1  16   5   60.18   11.74
   1  16   7   56.98   13.11
   1  16   9   19.96    8.39
  -1  17   8   26.93    8.66
  -1  17   6   78.65   14.79
  -1  17   4    8.15    4.50
   1  17  -2    2.27    2.15
  -1  17   2    6.35    3.78
  -1  17   0   50.21    9.18
   1  17   0   29.53    6.26
   1  17   2   61.21   10.78
  -1  17  -2   64.72    9.66
   1  17   4   50.17   10.70
   1  17   6   -0.13    3.25
   1  17   8    7.22    4.95
  -1  18   7   60.54   13.75
  -1  18   5   67.32   13.32
  -1  18   3    6.32    3.27
   1  18  -1    9.57    4.03
  -1  18   1   22.49    6.51
   1  18   1   64.14   10.78
  -1  18  -1   78.21   11.25
   1  18   3  113.17   15.69
   1  18   5   17.89    6.66
   1  18   7    8.12    5.53
  -1  19   6  205.96   24.60
  -1  19   4   37.46    9.76
  -1  19   2    9.57    4.86
  -1  19   0   21.55    6.17
   1  19   2  138.15   16.85
   1  19   4   46.02   10.69
   1  19   6    0.31    1.84
  -1  20   5   28.03    8.27
  -1  20   3    2.41    4.00
   1  20   3   38.85    9.56
   1  20   5    3.92    3.97
  -1  21   4    1.49    3.00
   2 -15   1  101.78   13.32
   2 -15   3  197.03   18.08
   2 -14   0   13.41    4.79
   2 -14   2  127.20   13.83
   2 -14   4  139.23   13.97
   2 -13  -1   12.20    4.58
   2 -13   1   34.17    7.01
   2 -13   3   28.26    5.95
   2 -13   5   80.99   10.48
  -2 -12   8    5.56    3.85
  -2 -12   6   -0.33    2.30
  -2 -12   4  273.97   22.24
  -2 -12   2  126.34   15.06
   2 -12   0   29.59    6.41
  -2 -12   0   21.06    6.18
   2 -12   2   47.51    7.66
   2 -12   4  231.81   17.09
   2 -12   6   17.28    4.50
  -2 -11   7   41.14    8.22
  -2 -11   5  318.12   22.68
   2 -11  -5  365.04   26.50
   2 -11  -3  378.26   26.21
  -2 -11   3  369.73   24.20
  -2 -11   1   44.19    8.59
   2 -11  -1   28.05    6.64
  -2 -11  -1   63.92   10.69
   2 -11   1   96.54   10.78
   2 -11   3  123.31   11.77
   2 -11   5  247.58   15.90
   2 -11   7   25.26    5.55
   2 -11  13    5.64    5.07
   2 -10  -6  141.14   15.84
  -2 -10   6  117.67   12.72
   2 -10  -4  160.22   16.32
  -2 -10   4  142.75   14.18
   2 -10  -2   -1.18    1.35
  -2 -10   2    1.29    1.82
   2 -10   0    3.26    2.08
  -2 -10   0    1.29    1.84
  -2 -10  -2   31.17    7.43
   2 -10   2   24.56    5.22
  -2 -10  -4  108.38   14.59
   2 -10   4  120.99   10.99
   2 -10   6   63.45    8.63
   2 -10   8    3.29    2.66
   2  -9  -9   79.33   12.75
   2  -9  -7  458.07   28.09
   2  -9  -5    7.97    3.85
  -2  -9   5   13.42    4.01
   2  -9  -3   79.03   10.75
   2  -9  -3   84.30   10.44
  -2  -9   3  111.72   11.87
   2  -9  -1    2.70    2.01
  -2  -9   1    7.68    2.99
  -2  -9  -1   60.75    9.46
   2  -9   1   66.90    8.22
   2  -9   3  282.17   16.03
  -2  -9  -3  303.11   22.28
  -2  -9  -5   16.41    5.64
   2  -9   5   19.28    4.43
   2  -9   7   13.29    4.23
   2  -9   9  170.11   16.37
   2  -9  13   31.61    9.71
  -2  -8  12  121.99   14.25
  -2  -8  10  100.17    8.68
   2  -8 -10  102.78   14.29
  -2  -8  10  108.04    7.79
   2  -8  -8   78.24   11.38
   2  -8  -6  691.45   31.46
   2  -8  -4  673.43   29.81
  -2  -8   4  665.91   26.67
   2  -8  -2  404.02   21.20
  -2  -8   2  337.16   19.16
   2  -8   0   82.65    8.77
  -2  -8   0   63.94    8.75
   2  -8   2  256.30   14.50
  -2  -8  -2  262.52   19.31
   2  -8   4  623.13   24.25
  -2  -8  -4  570.52   30.81
  -2  -8  -6  241.39   21.67
   2  -8   6  220.08   15.76
   2  -8   8   44.68    8.15
   2  -8  10  107.15   14.16
   2  -8  12  114.88   18.60
   2  -8  14   30.64   10.22
  -2  -7  11  225.37   17.57
  -2  -7  11  197.57   14.01
   2  -7 -11  232.04   21.29
   2  -7  -9   54.72    9.50
  -2  -7   9   54.01    5.53
   2  -7  -7  300.21   20.42
   2  -7  -5  491.39   24.70
  -2  -7   3  169.97   12.50
   2  -7  -3  176.34   13.98
   2  -7  -3  174.16   13.71
  -2  -7   1  236.70   15.51
   2  -7  -1  185.07   13.12
  -2  -7  -1  166.69   14.18
   2  -7   1  250.41   14.30
   2  -7   3 1022.73   29.33
  -2  -7  -3  978.54   37.07
   2  -7   5 1156.29   33.76
  -2  -7  -5 1237.91   45.07
   2  -7   7   17.96    4.85
  -2  -7  -7   39.41    9.06
   2  -7   9   13.97    5.29
   2  -7  11   50.21   10.99
   2  -7  11   88.30   15.24
   2  -7  13   87.91   16.38
   2  -6 -12  108.08   14.43
  -2  -6  12  101.33   11.43
  -2  -6  12  115.39   12.24
   2  -6 -10    3.97    2.59
  -2  -6  10    5.68    2.26
  -2  -6   8  354.64   14.11
   2  -6  -8  430.13   24.24
   2  -6  -6  703.44   28.36
   2  -6  -4  202.29   14.33
  -2  -6   4  210.58   12.40
   2  -6  -2   18.97    4.03
  -2  -6   2   23.89    4.42
   2  -6   0   48.03    6.26
  -2  -6   0   83.68    8.91
  -2  -6  -2 1295.68   39.05
   2  -6   2 1354.57   31.74
   2  -6   4 1766.86   38.91
  -2  -6  -4 1709.49   49.03
  -2  -6  -6   23.14    6.56
   2  -6   6   39.96    6.82
  -2  -6  -8    4.45    3.57
   2  -6   8    4.91    3.44
   2  -6  10   46.30   10.35
   2  -6  10   73.30   12.91
   2  -6  12  112.74   17.32
   2  -6  14   50.02   12.33
  -2  -5  13  139.06   13.25
  -2  -5  13  115.98   14.42
  -2  -5  11   17.70    4.76
   2  -5 -11   14.68    4.76
  -2  -5  11   18.79    4.50
   2  -5  -9    0.05    1.51
  -2  -5   9    0.48    1.01
  -2  -5   7  560.30   16.93
   2  -5  -7  566.81   24.85
   2  -5  -5  428.66   19.85
  -2  -5   3  309.26   13.79
   2  -5  -3  321.37   17.06
   2  -5  -1  224.66   12.96
  -2  -5   1  213.32   12.42
  -2  -5  -1   73.27    8.21
   2  -5   1   67.73    7.01
   2  -5   3 2642.61   44.39
  -2  -5  -3 2772.02   56.72
   2  -5   5  125.39   11.40
  -2  -5  -5   78.39   10.82
  -2  -5  -7    7.53    3.77
   2  -5   7    1.17    1.40
   2  -5  11  189.87   20.94
   2  -5  13   47.60   11.12
  -2  -4  14   87.08   13.51
   2  -4 -12  243.61   19.87
  -2  -4  12  264.91   17.31
  -2  -4  12  265.03   21.02
  -2  -4  10  114.94   11.72
   2  -4 -10   97.59   11.59
  -2  -4  10  117.28   10.49
  -2  -4   8   42.67    6.03
   2  -4  -8   63.91    8.16
  -2  -4   6  680.35   17.66
   2  -4  -6  681.58   24.27
  -2  -4   4  297.08   11.21
   2  -4  -4  348.84   17.84
  -2  -4   4  310.50    7.13
   2  -4  -4  343.80   15.78
   2  -4  -2  631.13   21.07
  -2  -4   2  639.11   18.03
   2  -4   0   37.44    5.30
  -2  -4   0   25.73    4.29
  -2  -4  -2 1430.21   36.67
   2  -4   2 1465.33   30.79
  -2  -4  -4 3157.46   62.05
   2  -4   4 3186.08   51.81
  -2  -4  -6  448.08   26.31
  -2  -4  -8    2.01    2.84
   2  -4  10   37.76    8.67
   2  -4  12  175.75   20.66
   2  -4  14   84.93   15.85
  -2  -3  15   21.15    7.02
  -2  -3  13  115.30   11.64
  -2  -3  13  110.25   15.37
  -2  -3  11  149.43   15.04
  -2  -3  11  156.64   12.48
   2  -3 -11  181.54   15.54
  -2  -3   9   -0.99    1.41
   2  -3  -9    1.49    1.66
  -2  -3   9   -0.69    1.50
  -2  -3   7  377.67   13.80
   2  -3  -7  442.21   18.81
  -2  -3   7  375.17   16.90
   2  -3  -5  269.33   12.86
  -2  -3   5  238.91    9.89
  -2  -3   3  526.80   10.19
  -2  -3   3  525.24   13.20
   2  -3  -3  514.99   19.47
   2  -3  -1  128.20    8.45
  -2  -3   1  172.02    9.07
   2  -3   1  591.40   18.35
  -2  -3  -1  507.74   19.34
  -2  -3  -3 1203.61   34.50
   2  -3   3 1235.02   29.31
  -2  -3  -5  854.19   33.19
   2  -3   7    5.02    2.76
  -2  -3  -7    5.05    2.86
   2  -3   9   39.06    8.45
   2  -3  11   52.91   10.92
   2  -3  13   77.80   14.22
   2  -3  15   15.53    6.47
  -2  -2  16    1.22    2.12
  -2  -2  14   55.95   11.72
  -2  -2  12   63.97    7.98
  -2  -2  12   50.82    9.88
  -2  -2  10    6.25    2.39
  -2  -2  10    5.66    3.06
  -2  -2   8  275.06   16.61
   2  -2  -8  274.84   14.93
  -2  -2   8  296.51   13.07
  -2  -2   6    4.09    1.14
   2  -2  -6   10.44    2.43
  -2  -2   6    5.79    2.28
   2  -2  -4  692.21   17.02
   2  -2  -4  671.50   22.02
  -2  -2   4  694.94   16.39
  -2  -2   2    2.24    0.88
   2  -2  -2    0.69    1.06
  -2  -2   2    2.37    0.91
   2  -2   0  446.05   14.69
  -2  -2   0  412.09   14.84
   2  -2   2 1104.43   25.83
  -2  -2  -2 1006.93   28.31
  -2  -2  -4  117.49   11.27
  -2  -2  -6   45.30    7.99
   2  -2   6   37.40    7.05
   2  -2   8   98.29   12.70
   2  -2  10  145.74   16.79
   2  -2  12   24.08    7.46
   2  -2  14   39.87   10.49
  -2  -1  15    1.18    2.33
  -2  -1  13  133.21   17.56
  -2  -1  13  132.98   12.35
  -2  -1  11   95.49    9.50
  -2  -1  11   87.13   12.19
  -2  -1   9   24.05    4.11
  -2  -1   9   23.33    5.51
  -2  -1   7   35.04    3.81
   2  -1  -7   42.65    4.86
  -2  -1   7   31.69    5.46
  -2  -1   5  807.64   22.01
   2  -1  -5  757.14   16.33
   2  -1  -3  538.85   17.08
  -2  -1   3  570.87   14.33
  -2  -1   1  302.13    9.96
   2  -1  -1  206.17    9.53
  -2  -1   1  293.85    9.74
  -2  -1  -1   14.11    3.12
   2  -1   1   36.43    4.48
  -2  -1  -3  407.97   19.16
   2  -1   5  157.15   13.20
   2  -1   7  151.63   14.60
   2  -1   9  129.18   14.94
   2  -1  11  197.62   20.65
   2  -1  13    4.21    2.31
   2  -1  15   13.54    7.25
  -2   0  16    1.42    3.76
  -2   0  14   37.28    9.97
  -2   0  12  335.48   19.33
  -2   0  12  337.96   26.62
  -2   0  10   56.28    9.52
  -2   0  10   60.21    7.12
  -2   0   8   38.40    6.79
  -2   0   8   37.05    4.68
  -2   0   6   45.33    6.22
  -2   0   6   48.32    3.98
  -2   0   4  360.00   14.09
   2   0  -4  345.15   13.86
   2   0  -2   37.19    3.83
  -2   0   2   39.63    4.02
   2   0   0   43.81    4.37
  -2   0   0   44.96    4.46
   2   0   2  167.25   10.91
   2   0   4 1056.44   32.04
   2   0   6  619.46   28.01
   2   0   8   79.84   11.14
   2   0  10  208.58   20.32
   2   0  12   84.09   13.84
   2   0  14    8.02    4.43
  -2   1  17   -5.31    3.64
  -2   1  15    7.14    5.73
  -2   1  13  107.69   11.84
  -2   1  13  123.65   17.69
  -2   1  11   71.08    8.39
  -2   1  11   69.51   11.54
  -2   1   9   13.47    3.24
  -2   1   9    9.38    3.94
  -2   1   7   48.91    7.60
  -2   1   7   45.06    4.96
  -2   1   5  786.65   25.08
  -2   1   5  732.20   15.63
   2   1  -3  567.27   14.54
  -2   1   3  566.70   17.57
   2   1  -1  300.36    9.75
  -2   1   1  201.56    9.40
   2   1  -1  291.47    9.67
   2   1   1   14.50    2.94
  -2   1  -1   34.48    4.33
   2   1   3  408.39   18.54
   2   1   5  126.01   11.92
   2   1   7  116.31   13.02
   2   1   9  165.12   17.20
   2   1  11  181.59   19.33
   2   1  13    3.79    3.10
   2   1  15   22.17    8.45
  -2   2  16   -4.24    3.38
  -2   2  14   69.00   14.34
  -2   2  14   60.43    9.61
  -2   2  12   63.11    8.83
  -2   2  12   62.67   11.93
  -2   2  10   11.61    3.45
  -2   2  10   12.43    5.12
  -2   2   8  296.27   20.53
  -2   2   8  278.06   14.54
  -2   2   6    7.99    2.98
  -2   2   6    9.05    2.35
  -2   2   4  688.99   22.20
   2   2  -2    2.09    0.83
   2   2  -2    1.70    0.80
  -2   2   2    1.83    1.26
   2   2   0  399.66   14.02
  -2   2   0  456.17   14.70
   2   2   2 1030.65   28.17
   2   2   4  120.22   11.22
   2   2   6   43.55    7.50
   2   2   8   98.12   12.66
   2   2  10  131.43   15.96
   2   2  12   18.55    6.55
   2   2  14   28.73    8.89
  -2   3  15   39.49   11.38
  -2   3  13  141.11   19.79
  -2   3  13  142.17   14.86
  -2   3  11  198.17   20.63
  -2   3  11  184.10   15.08
  -2   3   9   -0.37    0.92
  -2   3   9    2.61    2.70
  -2   3   7  461.86   24.49
  -2   3   7  434.73   18.32
  -2   3   5  278.56   16.31
  -2   3   3  525.25   19.34
   2   3  -3  499.41   10.11
  -2   3   1  130.45    8.66
   2   3  -1  174.68    9.05
  -2   3  -1  620.28   18.52
   2   3   1  534.06   19.56
   2   3   3 1203.54   33.69
   2   3   5  813.07   30.89
   2   3   7    9.43    3.78
   2   3   9   24.04    6.93
   2   3  11   45.13    9.87
   2   3  13   86.89   15.20
   2   3  15   10.05    4.73
  -2   4  16    8.85    3.88
  -2   4  14   76.64   11.53
  -2   4  14   79.76   15.66
  -2   4  12  263.21   19.95
  -2   4  12  288.22   27.36
  -2   4  10  100.96   11.37
  -2   4  10  118.76   15.88
  -2   4   8   67.58   10.37
  -2   4   8   55.74    7.61
  -2   4   6  709.78   29.68
  -2   4   4  342.12   17.20
   2   4  -2  640.86   17.73
  -2   4   2  652.24   21.24
   2   4  -2  650.81   11.09
   2   4   0   23.31    4.10
  -2   4   0   38.61    4.83
   2   4   2 1476.89   36.88
  -2   4  -2 1464.37   30.82
   2   4   4 3109.60   59.60
   2   4   6  454.46   25.86
   2   4   8    2.00    2.08
   2   4  10   48.56   10.15
   2   4  12  176.63   21.05
   2   4  14   83.79   15.80
  -2   5  15   36.17   10.98
  -2   5  13  128.46   19.56
  -2   5  13  119.04   14.51
  -2   5  11   15.83    4.59
  -2   5  11   12.22    5.30
  -2   5   9    0.73    1.79
  -2   5   9    1.55    1.85
  -2   5   7  604.95   30.01
  -2   5   5  433.66   22.08
  -2   5   3  324.50   16.91
   2   5  -1  221.19   12.65
  -2   5   1  227.73   12.89
   2   5   1   74.07    8.06
  -2   5  -1   71.52    6.81
   2   5   3 2863.88   56.74
   2   5   5   75.99   10.56
   2   5   7    8.74    4.09
   2   5   9   41.84    9.18
   2   5  11  185.55   21.21
   2   5  13   34.37    9.03
   2   5  15    8.27    4.95
  -2   6  14   67.10   11.46
  -2   6  14   71.77   15.68
  -2   6  12  110.03   13.88
  -2   6  12  111.62   17.60
  -2   6  10    8.05    4.80
  -2   6  10    3.30    2.24
  -2   6   8  442.58   27.95
  -2   6   6  676.74   30.50
  -2   6   4  202.28   14.58
  -2   6   2   19.82    4.30
   2   6   0   91.52    9.33
  -2   6   0   51.65    6.30
  -2   6  -2 1390.65   31.96
   2   6   2 1297.73   38.15
   2   6   4 1740.83   48.55
   2   6   6   22.95    6.41
   2   6   8    3.80    2.95
   2   6  10   62.94   11.93
   2   6  12   93.32   15.88
   2   6  14   53.28   12.76
  -2   7  15   26.03    9.88
  -2   7  13   53.47   13.62
  -2   7  11  249.71   25.37
  -2   7   9   60.15   11.46
  -2   7   7  290.17   22.03
  -2   7   5  477.02   24.88
  -2   7   3  180.83   13.94
  -2   7   1  188.17   12.87
   2   7   1  178.53   14.48
  -2   7  -1  259.61   14.17
  -2   7  -3  986.03   28.78
   2   7   3  988.52   36.60
   2   7   5 1207.90   43.48
   2   7   7   39.48    8.73
   2   7   9    7.67    4.39
   2   7  11   82.16   14.44
   2   7  13   90.78   16.40
   2   7  15   15.99    6.56
  -2   8  14   65.17   15.26
  -2   8  12  119.34   18.97
  -2   8  10   99.58   15.81
  -2   8   8   80.29   12.51
  -2   8   6  678.76   32.64
  -2   8   4  637.84   28.27
  -2   8   2  395.70   20.31
   2   8  -2  338.02   11.25
   2   8   0   64.63    8.68
  -2   8   0   87.29    8.87
   2   8   2  266.96   19.41
  -2   8  -2  286.40   15.75
   2   8   4  577.33   30.76
   2   8   6  236.10   20.93
   2   8   8   38.22    9.00
   2   8  10  121.21   17.41
   2   8  12   97.52   16.72
   2   8  14   27.64    9.88
  -2   9  13    7.93    6.25
  -2   9  11   24.61    8.65
  -2   9   9   76.61   13.30
  -2   9   7  460.39   29.08
  -2   9   5    3.33    2.36
   2   9  -3   95.19    4.37
  -2   9   3   82.42   10.34
  -2   9   1    2.86    1.42
   2   9  -1    9.30    2.28
   2   9   1   55.37    8.81
  -2   9  -1   64.72    7.74
   2   9   3  304.26   22.23
  -2   9  -3  287.87   17.23
   2   9   5   17.04    5.55
   2   9   7   19.85    6.63
   2   9   9  175.21   20.98
   2   9  11   58.22   13.16
   2   9  13   18.03    7.33
  -2  10  12   34.40   10.86
  -2  10  10   25.42    8.25
  -2  10   8   13.90    6.05
  -2  10   6  137.95   15.52
  -2  10   4  147.85   14.83
   2  10  -2    1.68    0.82
  -2  10   2    0.65    0.94
   2  10   0    1.77    1.60
  -2  10   0    8.33    3.07
  -2  10  -2   21.27    4.46
   2  10   2   28.18    6.80
   2  10   4  114.12   14.61
  -2  10  -4  101.26   11.39
   2  10   6   77.49   12.63
   2  10   8    7.29    4.45
   2  10  10  122.78   18.42
   2  10  12   16.68    7.57
  -2  11  13  115.72   20.02
  -2  11  11   70.05   14.50
  -2  11   9   -1.25    1.57
  -2  11   7   58.06   10.74
  -2  11   5  327.37   23.56
   2  11  -3  372.78   11.82
  -2  11   3  359.73   22.78
   2  11  -1   45.75    5.89
  -2  11   1   31.72    6.43
  -2  11  -1  100.76   10.73
   2  11   1   52.24    7.62
   2  11   3  108.52   14.44
  -2  11  -3  132.16   12.30
   2  11   5  293.80   25.09
   2  11   7   39.11    9.87
   2  11   9    1.14    2.44
   2  11  11   76.10   15.75
   2  11  13    7.80    5.18
  -2  12  12  101.29   18.96
  -2  12  10    5.06    5.37
  -2  12   8    4.60    4.17
  -2  12   6    2.85    3.00
  -2  12   4  270.26   21.53
  -2  12   2  106.52   12.06
   2  12  -2  120.22    8.92
  -2  12   0   26.46    5.78
   2  12   0   17.52    4.32
  -2  12  -2   43.96    7.13
   2  12   2   44.77    7.65
  -2  12  -4  216.34   16.51
   2  12   4  212.34   21.27
   2  12   6   24.71    7.45
   2  12   8   15.24    6.41
   2  12  10   50.11   12.60
   2  12  12   24.34    9.19
  -2  13  11   10.44    6.42
  -2  13   9    2.19    2.16
  -2  13   7  109.83   15.81
  -2  13   5    3.40    2.45
   2  13  -3  228.33   10.88
  -2  13   3  179.89   17.23
   2  13  -1    7.13    2.60
  -2  13   1   20.13    6.10
  -2  13  -1   41.01    7.37
   2  13   1   29.75    6.16
  -2  13  -3   28.18    5.93
   2  13   3   25.37    6.48
   2  13   5   88.44   14.39
   2  13   5   89.03   13.56
   2  13   7   16.74    6.52
   2  13   7   17.54    7.79
   2  13   9   60.26   13.48
   2  13   9   61.24   13.84
   2  13  11    1.16    1.93
  -2  14  10    5.42    4.42
  -2  14   8   56.54   12.24
  -2  14   6  144.21   18.14
  -2  14   4   35.22    8.16
  -2  14   2   77.34   11.16
   2  14  -2   80.67    7.83
  -2  14   0   13.14    4.40
   2  14   0    6.75    3.04
  -2  14  -2  132.68   13.48
   2  14   2   86.60   11.64
  -2  14  -4  136.98   13.84
   2  14   4  143.16   16.86
   2  14   6   64.83   12.92
   2  14   6   67.40   12.49
   2  14   8    2.07    1.94
   2  14   8   -0.10    3.14
   2  14  10    1.80    2.18
   2  14  10    1.35    2.54
  -2  15   9    2.03    3.44
  -2  15   7  168.71   21.23
  -2  15   5  137.22   17.35
   2  15  -3  103.93    8.23
  -2  15   3   91.31   12.86
   2  15  -1   81.92    9.56
  -2  15   1   60.89    9.98
  -2  15  -1  117.42   13.29
   2  15   1   79.42   10.89
  -2  15  -3  209.64   17.27
   2  15   3  164.73   17.70
   2  15   5  179.89   20.64
   2  15   7   13.49    6.04
   2  15   9    2.37    3.59
   2  15   9   17.03    7.14
  -2  16   8   16.79    7.27
  -2  16   6   98.12   15.61
  -2  16   4  183.91   19.83
  -2  16   2    0.29    1.36
   2  16  -2    7.16    2.57
   2  16   0    0.36    1.11
  -2  16   0   -1.71    2.26
   2  16   2   34.37    7.64
  -2  16  -2   53.80    9.25
   2  16   4  313.66   26.44
  -2  16  -4  281.76   21.09
   2  16   6   38.94   10.24
   2  16   8    4.91    4.92
  -2  17   9   10.95    6.03
  -2  17   7  103.78   17.16
  -2  17   5   42.60   10.39
  -2  17   3    6.67    3.23
   2  17  -1   18.70    4.67
  -2  17   1   21.76    6.54
   2  17   1    0.80    2.29
  -2  17  -1    3.71    3.35
  -2  17  -3  156.14   16.17
   2  17   3  128.85   16.31
   2  17   5   74.88   13.94
   2  17   7   -4.82    4.83
  -2  18   8   30.05    9.77
  -2  18   6  149.39   20.27
  -2  18   4   87.50   14.06
  -2  18   2   24.23    7.02
   2  18   0    4.53    2.93
  -2  18   0   10.62    5.61
   2  18   2   31.52    7.86
  -2  18  -2   78.01   11.71
   2  18   4   85.95   14.49
   2  18   6   50.22   12.01
  -2  19   7   91.10   16.79
  -2  19   5   88.92   14.98
  -2  19   3   36.93    9.91
  -2  19   1   26.63    7.75
  -2  19  -1   29.43    7.52
   2  19   3   48.94   10.60
   2  19   5   77.77   14.55
   2  19   7   28.13   10.16
  -2  20   6   14.63    6.84
  -2  20   4   33.05    9.83
  -2  20   2   25.34    8.15
   2  20   4   54.42   11.82
   2  20   6    6.12    5.99
  -2  21   5   37.83   10.55
  -2  21   3   24.78    7.36
   3 -15   2    5.97    2.76
   3 -15   4  103.79   13.78
   3 -14   1   24.80    6.83
   3 -14   3   39.28    8.21
   3 -14   5  144.31   15.87
  -3 -13   8   54.06   10.56
  -3 -13   6    7.02    4.19
   3 -13   0    3.77    3.26
   3 -13   2   20.64    5.83
   3 -13   4    1.71    1.82
   3 -13   6  203.32   18.33
  -3 -12   9   79.93   12.00
  -3 -12   7   94.31   12.87
  -3 -12   5  332.14   24.25
  -3 -12   3  199.18   18.72
   3 -12  -3  215.62   19.61
   3 -12  -1  343.20   23.80
  -3 -12   1  372.45   26.37
   3 -12   1   50.83    8.79
   3 -12   3   51.52    8.92
   3 -12   5  141.84   14.07
   3 -12   7  199.95   18.30
   3 -12  13   30.08   12.33
  -3 -11   8  194.70   17.65
  -3 -11   6   23.48    6.02
  -3 -11   4  238.60   19.45
   3 -11  -4  278.74   22.72
   3 -11  -4  265.36   21.41
   3 -11  -2  515.85   28.58
  -3 -11   2  483.25   27.92
   3 -11   0   76.36   10.36
  -3 -11   0   85.21   12.44
   3 -11   2    0.02    1.26
   3 -11   4   61.43    8.86
   3 -11   6  383.50   24.26
   3 -11   8  128.31   14.61
  -3 -10   9   95.05   11.39
  -3 -10   7   85.19   10.81
   3 -10  -7   87.47   12.65
  -3 -10   5  266.39   18.96
   3 -10  -5  313.86   23.20
   3 -10  -3  342.52   23.26
  -3 -10   3  330.68   21.60
  -3 -10   1   92.21   11.99
   3 -10  -1   86.00   10.95
  -3 -10  -1    1.68    1.29
   3 -10   1    1.41    1.83
  -3 -10  -3   16.68    5.85
   3 -10   3    7.20    2.75
   3 -10   5  226.63   18.09
   3 -10   7  337.07   23.26
   3 -10   9    0.91    2.63
   3 -10  13    8.16    5.62
  -3  -9  10  121.02   11.90
   3  -9 -10  138.15   16.84
  -3  -9   8   35.65    6.60
   3  -9  -8   64.43   10.72
   3  -9  -6  234.51   19.29
  -3  -9   6  185.26   14.77
  -3  -9   4  120.39   12.06
   3  -9  -4  123.99   13.48
   3  -9  -4  115.73   13.01
  -3  -9   2   96.78   11.31
   3  -9  -2   69.77    9.70
   3  -9   0   13.12    4.24
  -3  -9   0   13.21    4.53
  -3  -9  -2    2.44    1.18
   3  -9   2    8.06    3.18
  -3  -9  -4  187.98   18.94
   3  -9   4  191.20   15.69
   3  -9   6  520.42   27.49
   3  -9   8   32.76    7.35
   3  -9  12   39.25   11.78
   3  -9  14   11.57    6.39
   3  -8 -11  212.52   20.46
  -3  -8  11  181.19    9.14
  -3  -8   9  139.42   11.75
   3  -8  -9  137.85   15.25
   3  -8  -7    1.84    2.28
  -3  -8   7    1.81    1.88
  -3  -8   5  261.36   16.21
   3  -8  -5  247.13   19.18
   3  -8  -5  246.34   18.45
   3  -8  -3  454.15   24.77
  -3  -8   3  441.01   21.85
  -3  -8   1  316.32   20.08
   3  -8  -1  342.24   19.93
  -3  -8  -1  230.90   18.47
   3  -8   1  206.40   14.71
   3  -8   3   99.65   10.56
  -3  -8  -3   71.37   10.89
   3  -8   5  477.34   24.70
  -3  -8  -5  492.62   31.52
   3  -8   7   48.99    8.82
   3  -8   9    3.27    2.94
   3  -8  11   57.29   13.52
   3  -8  13   55.86   13.76
  -3  -7  12   62.26    8.01
   3  -7 -12   82.92   12.65
  -3  -7  12   60.19    7.58
   3  -7 -10  244.61   19.85
  -3  -7  10  188.58   10.43
  -3  -7   8   56.19    6.87
   3  -7  -8   60.31    9.35
   3  -7  -6  314.53   20.05
  -3  -7   6  243.86   14.42
   3  -7  -4  154.58   13.15
   3  -7  -4  156.56   14.48
  -3  -7   4  132.76   10.91
   3  -7  -2   93.54   10.11
  -3  -7   2   70.45    8.53
  -3  -7   0  129.06   12.18
   3  -7   0   97.90   10.29
   3  -7   2    6.36    2.76
  -3  -7  -2    2.54    2.33
   3  -7   4  595.81   25.93
  -3  -7  -4  547.62   30.97
   3  -7   6  262.48   19.31
  -3  -7  -6  233.82   21.72
   3  -7   8  165.60   16.94
   3  -7  12   42.16   11.10
   3  -7  14   28.76   10.21
  -3  -6  13   16.96    4.68
   3  -6 -11   94.11   12.30
  -3  -6  11   72.91    8.25
  -3  -6  11   72.87    7.74
   3  -6  -9    4.55    2.83
  -3  -6   9    4.68    1.81
  -3  -6   7   72.37    6.96
  -3  -6   7   85.93    4.90
   3  -6  -7  101.04   10.88
  -3  -6   5  701.24   22.35
   3  -6  -5  738.80   27.80
   3  -6  -5  715.36   30.10
   3  -6  -3   79.63    9.38
  -3  -6   3   91.33    8.49
   3  -6  -1  107.93   10.23
  -3  -6   1  108.87   10.32
   3  -6   1   81.27    8.81
  -3  -6  -1   38.93    6.84
  -3  -6  -3  736.53   33.25
   3  -6   3  834.02   29.06
  -3  -6  -5  396.79   26.34
   3  -6   5  399.40   22.11
   3  -6   7    6.41    3.90
   3  -6   9    1.53    1.72
   3  -6  11   73.65   14.15
   3  -6  13   78.87   15.99
   3  -5 -12   93.62   12.02
  -3  -5  12  111.02   11.86
  -3  -5  12   99.41    8.00
  -3  -5  10  118.21   10.64
  -3  -5  10  121.51    8.77
   3  -5 -10   89.41   10.95
   3  -5  -8    1.42    1.43
  -3  -5   8    3.26    1.13
   3  -5  -6  230.27   14.78
  -3  -5   6  209.54   10.16
  -3  -5   6  226.05    8.66
   3  -5  -4   98.27   10.44
  -3  -5   4  175.08   10.08
  -3  -5   2  436.57   18.04
   3  -5  -2  416.62   19.92
  -3  -5   0   14.82    3.77
   3  -5   0   14.36    3.59
   3  -5   2  703.22   25.16
  -3  -5  -2  716.05   30.06
   3  -5   4   11.71    3.66
  -3  -5  -4   24.79    6.00
  -3  -5  -6   59.55   10.50
   3  -5   6   56.19    9.39
   3  -5   8   -1.31    2.10
   3  -5  10   10.90    5.90
   3  -5  12  118.20   18.58
   3  -5  14   55.78   13.35
  -3  -4  13    4.08    3.22
   3  -4 -11  100.54   11.11
  -3  -4  11  114.21   11.86
  -3  -4  11  101.27    7.35
  -3  -4   9  187.38   12.97
   3  -4  -9  191.98   14.25
  -3  -4   9  186.87    9.02
   3  -4  -7   17.03    3.85
  -3  -4   7    6.24    2.10
  -3  -4   7    2.54    0.87
   3  -4  -5  166.44   11.21
  -3  -4   5  118.61    6.64
  -3  -4   5  116.51    6.58
   3  -4  -5  166.79   13.45
  -3  -4   3  783.67   20.39
   3  -4  -3  819.95   26.89
   3  -4  -1  314.72   15.74
  -3  -4   1  321.24   15.32
   3  -4   1   48.26    6.35
  -3  -4  -1   47.42    6.87
  -3  -4  -3  378.63   21.45
   3  -4   3  369.76   18.76
  -3  -4  -5 1127.57   42.40
   3  -4   5 1207.40   37.89
  -3  -4  -7  289.90   23.59
   3  -4   7  260.21   21.25
   3  -4   9   43.53    9.59
   3  -4  11   20.62    7.71
   3  -4  13  132.65   19.70
   3  -4  15   37.99   11.72
  -3  -3  14    5.40    3.87
  -3  -3  12  102.39   12.62
  -3  -3  12   82.78    6.73
  -3  -3  10  249.02   17.33
  -3  -3  10  220.26    9.41
   3  -3 -10  254.85   15.71
  -3  -3   8  116.66   10.01
  -3  -3   8   93.89    4.37
   3  -3  -8  127.33    9.95
   3  -3  -6   56.11    5.89
  -3  -3   6   39.15    4.76
  -3  -3   4  414.67   12.81
  -3  -3   4  428.63   11.07
   3  -3  -4  399.58   19.01
   3  -3  -2  697.32   23.14
  -3  -3   2  686.87   19.26
   3  -3   0   16.85    3.83
  -3  -3   0   29.04    4.79
  -3  -3  -2    1.51    1.75
   3  -3   2    0.70    1.04
  -3  -3  -4  211.88   16.95
   3  -3   4  245.66   16.14
  -3  -3  -6  174.80   17.17
   3  -3   8  120.09   15.17
   3  -3  10    0.73    2.11
   3  -3  12   95.71   15.89
   3  -3  14   27.93    9.30
  -3  -2  15   12.97    5.78
  -3  -2  13   32.96    8.13
  -3  -2  11  179.84    9.05
  -3  -2  11  216.01   17.95
   3  -2  -9   20.08    3.75
  -3  -2   9   23.43    5.04
  -3  -2   9   16.71    1.92
   3  -2  -7   33.68    4.17
  -3  -2   7   30.18    5.04
   3  -2  -5  617.24   16.38
   3  -2  -5  626.77   24.27
  -3  -2   5  589.60   17.32
  -3  -2   3  319.92   11.85
  -3  -2   3  321.80    9.91
   3  -2  -3  346.23   16.16
   3  -2  -1  206.24   11.81
  -3  -2   1  249.13   12.06
  -3  -2  -1   55.07    6.91
   3  -2   1   74.51    7.55
  -3  -2  -3    6.53    3.06
   3  -2   3    8.02    2.86
  -3  -2  -5  798.04   34.32
   3  -2   7   12.05    4.71
   3  -2   9    2.12    2.41
   3  -2  11   74.49   13.44
   3  -2  13   59.87   13.02
   3  -2  15   -0.52    4.26
  -3  -1  16   14.83    6.72
  -3  -1  14    1.50    2.35
  -3  -1  12  150.54    9.55
  -3  -1  12  175.26   18.10
  -3  -1  10  337.75   22.03
  -3  -1  10  297.16   11.03
  -3  -1   8  250.03   16.15
   3  -1  -6  351.61   10.23
  -3  -1   6  282.89   15.03
  -3  -1   4 1151.90   26.61
   3  -1  -4  985.41   27.03
   3  -1  -2  800.52   22.80
  -3  -1   2  899.77   21.05
   3  -1   0   83.34    7.40
   3  -1   2   13.69    3.53
   3  -1   4  147.36   13.47
   3  -1   6 1475.55   46.85
   3  -1   8  147.98   16.49
   3  -1  10   24.49    7.32
   3  -1  12   25.88    8.33
   3  -1  14   25.57    8.45
  -3   0  17   11.23    6.21
  -3   0  15    8.08    4.61
  -3   0  13   96.80    8.75
  -3   0  13  106.85   15.45
  -3   0  11  182.11   10.58
  -3   0  11  203.41   18.76
  -3   0   9  558.69   14.96
  -3   0   9  608.90   28.57
  -3   0   7  224.68   14.88
   3   0  -5   38.83    5.41
  -3   0   5   44.50    5.84
  -3   0   3 2348.02   37.14
   3   0  -3 2350.06   37.74
   3   0  -1  817.59   21.50
  -3   0   1  826.02   21.41
   3   0   1  574.16   20.58
   3   0   1  584.07   21.70
   3   0   3  533.67   23.77
   3   0   5  554.28   27.36
   3   0   7  852.25   37.29
   3   0   9    9.70    4.05
   3   0  11    4.70    2.47
   3   0  13    4.68    3.21
   3   0  15   36.77   11.16
  -3   1  16    8.59    5.30
  -3   1  14    0.40    3.72
  -3   1  12  154.19   17.89
  -3   1  12  135.76   10.73
  -3   1  10  268.59   13.03
  -3   1  10  309.60   22.55
  -3   1   8  205.30   16.25
  -3   1   6  358.68   18.46
   3   1  -4 1026.68   24.00
  -3   1   4 1002.61   26.87
  -3   1   2  808.16   22.47
   3   1  -2  858.52   18.16
   3   1  -2  854.25   20.79
   3   1   0   59.56    6.14
  -3   1   0   93.80    8.04
   3   1   0   60.73    6.36
   3   1   2    3.37    2.24
   3   1   4  160.31   13.86
   3   1   6 1384.04   45.77
   3   1   8  133.16   15.78
   3   1  10   39.85    9.43
   3   1  12   29.73    8.50
   3   1  14   27.73    9.24
  -3   2  17   17.46    8.28
  -3   2  15   19.25    7.71
  -3   2  13   39.53    9.74
  -3   2  13   34.32    5.81
  -3   2  11  186.25   12.46
  -3   2  11  208.60   20.11
  -3   2   9   22.40    5.96
  -3   2   7   33.95    6.31
   3   2  -5  601.24   18.10
  -3   2   5  645.46   24.50
  -3   2   3  347.45   16.07
   3   2  -3  324.10    9.72
   3   2  -3  304.22   11.53
   3   2  -1  245.13   11.70
  -3   2   1  212.05   11.79
   3   2  -1  250.91   11.41
   3   2   1   54.65    6.86
  -3   2  -1   71.73    7.48
   3   2   3    6.45    3.21
   3   2   5  793.71   33.57
   3   2   7   12.86    4.47
   3   2   9    0.29    1.36
   3   2  11   65.89   12.77
   3   2  13   74.84   15.06
   3   2  15    5.20    5.37
  -3   3  16   -1.59    3.89
  -3   3  14   25.43    8.70
  -3   3  12  112.69   16.12
  -3   3  10  274.29   22.64
  -3   3   8  135.77   14.11
  -3   3   6   54.25    7.75
   3   3  -4  402.10   12.59
  -3   3   4  415.54   19.53
  -3   3   2  734.33   23.58
   3   3  -2  685.21   17.07
   3   3  -2  677.39   18.65
  -3   3   0   16.25    3.47
   3   3   0   29.69    4.67
   3   3   2    1.53    1.60
  -3   3  -2    0.42    1.05
   3   3   4  231.16   17.34
   3   3   6  159.27   15.77
   3   3   8  142.72   16.26
   3   3  10   14.05    5.89
   3   3  12   96.15   16.38
   3   3  14   28.12    9.81
  -3   4  15    1.00    2.97
  -3   4  13   12.15    6.26
  -3   4  11  107.49   15.30
  -3   4   9  195.19   18.43
  -3   4   7   17.98    4.79
  -3   4   5  178.93   14.06
   3   4  -3  792.02   20.32
   3   4  -3  796.67   16.62
  -3   4   3  763.22   24.43
  -3   4   1  332.56   16.36
   3   4  -1  337.43   13.39
   3   4  -1  334.50   15.53
   3   4   1   46.69    6.84
  -3   4  -1   46.68    6.09
   3   4   3  394.00   22.00
   3   4   5 1148.61   41.86
   3   4   7  289.42   22.96
   3   4   9   35.39    8.78
   3   4  11   28.10    8.25
   3   4  13  134.43   19.98
   3   4  15   39.79   11.70
  -3   5  16   -7.80    6.09
  -3   5  14    8.66    5.61
  -3   5  12  100.37   15.94
  -3   5  10  103.33   14.45
  -3   5   8   -0.79    1.51
  -3   5   6  221.91   17.00
   3   5  -4  159.52    5.93
  -3   5   4   93.49   10.17
   3   5  -2  469.62   18.85
  -3   5   2  426.34   20.08
   3   5  -2  467.95   14.11
   3   5   0   18.47    4.08
  -3   5   0   14.29    3.61
   3   5   2  699.62   28.76
  -3   5  -2  705.51   25.07
   3   5   4   31.93    6.96
   3   5   6   54.13    9.55
   3   5   8    1.97    3.21
   3   5  10   22.45    7.51
   3   5  12  133.20   19.86
   3   5  14   56.46   13.53
  -3   6  15    3.94    2.97
  -3   6  13   23.69    8.04
  -3   6  11   97.45   15.14
  -3   6   9    3.82    2.90
  -3   6   7   96.07   12.04
  -3   6   5  742.95   31.07
   3   6  -3   96.07    4.94
  -3   6   3   75.55    8.83
  -3   6   1  113.35   10.25
   3   6  -1  112.16   10.23
  -3   6  -1   81.52    8.61
   3   6   1   44.78    7.26
  -3   6  -3  787.29   29.06
   3   6   3  730.18   32.15
   3   6   5  385.87   25.51
   3   6   7    8.11    4.30
   3   6   9    1.64    2.53
   3   6  11   68.44   13.68
   3   6  13   72.49   15.26
  -3   7  14    9.39    6.33
  -3   7  12   84.42   15.12
  -3   7  10  249.18   23.87
  -3   7   8   59.53   10.57
  -3   7   6  304.01   21.36
  -3   7   4  155.28   13.88
  -3   7   2  101.20   10.71
   3   7  -2   70.88    8.30
  -3   7   0  105.99   10.21
   3   7   0  127.44   12.13
   3   7   2    1.93    1.10
  -3   7  -2    5.38    2.44
   3   7   4  531.25   29.60
   3   7   6  243.39   21.63
   3   7   8  194.02   20.93
   3   7  10   -3.07    3.34
   3   7  12   38.33   10.73
   3   7  14   22.48    8.91
  -3   8  13   52.62   13.06
  -3   8  11  224.89   24.18
  -3   8   9  126.53   16.16
  -3   8   7    1.69    2.46
  -3   8   5  244.88   19.09
   3   8  -3  466.20   11.23
  -3   8   3  403.23   21.97
   3   8  -1  332.34   20.21
  -3   8   1  353.74   19.77
  -3   8  -1  225.30   15.31
   3   8   1  230.94   17.83
   3   8   3   79.34   11.38
  -3   8  -3   88.26   10.16
   3   8   5  476.70   29.68
   3   8   7   61.94   11.66
   3   8   9    3.53    3.19
   3   8  11   63.99   13.61
   3   8  13   61.90   14.40
  -3   9  14    2.34    4.19
  -3   9  12  109.79   17.88
  -3   9  10  142.19   18.62
  -3   9   8   65.84   11.55
  -3   9   6  223.06   19.62
  -3   9   4  123.51   13.46
  -3   9   2   74.99    9.94
  -3   9   0   14.63    3.84
   3   9   0   16.68    4.91
  -3   9  -2    9.54    3.18
   3   9   2    0.47    2.01
   3   9   4  188.03   18.93
   3   9   6  534.92   34.03
   3   9   8   21.45    7.72
   3   9  10   13.28    5.82
   3   9  12   28.62    9.63
  -3  10  13  132.34   21.26
  -3  10  11  143.69   20.29
  -3  10   9   99.51   15.21
  -3  10   7   80.63   12.69
  -3  10   5  314.57   22.93
   3  10  -3  296.91    9.62
  -3  10   3  291.92   19.52
  -3  10   1   90.04   10.80
   3  10   1    6.17    3.45
  -3  10  -1    2.60    1.82
   3  10   3   17.10    5.70
  -3  10  -3    4.73    2.69
   3  10   5  202.53   20.81
   3  10   7  361.80   29.92
   3  10   9    7.51    4.55
   3  10  11   13.05    7.06
  -3  11  12   99.14   17.64
  -3  11  10  105.07   16.76
  -3  11   8  191.13   20.90
  -3  11   6   49.53    9.63
  -3  11   4  256.92   20.62
  -3  11   2  538.05   29.04
   3  11  -2  472.87   17.39
  -3  11   0   83.15   10.63
   3  11   2    3.91    3.07
  -3  11  -2   -0.18    1.06
  -3  11  -4   68.97   10.55
   3  11   4   41.43    9.22
   3  11   6  342.97   28.55
   3  11   8  194.72   23.03
   3  11  10   18.26    7.91
   3  11  12   -0.99    2.12
  -3  12  11   35.87   10.17
  -3  12   9   81.37   14.60
  -3  12   7   87.84   14.00
  -3  12   5  413.88   27.79
  -3  12   3  203.17   17.91
   3  12  -3  193.30    8.95
  -3  12   1  334.38   22.35
   3  12  -1  371.47   18.48
  -3  12  -1   51.09    8.28
   3  12   3   38.83    9.21
  -3  12  -3   65.00    9.79
   3  12   5  123.94   17.67
   3  12   7  217.37   24.61
   3  12   9   26.83    8.59
   3  12  11   28.19    9.81
  -3  13  10   11.89    6.50
  -3  13   8   49.54   11.39
  -3  13   6    5.03    4.24
  -3  13   4  265.57   21.93
  -3  13   2  263.15   21.01
   3  13  -2  315.27   15.15
  -3  13   0    3.23    1.87
   3  13   0    1.50    1.80
  -3  13  -2   28.43    6.49
   3  13   4    1.85    1.85
  -3  13  -4    0.74    1.71
   3  13   6  198.68   23.48
   3  13   8   29.52    9.96
   3  13  10   -0.92    3.15
  -3  14  11   68.16   14.99
  -3  14   9   27.76    8.81
  -3  14   7    4.05    2.52
  -3  14   5   86.37   13.46
   3  14  -3  157.20    9.51
  -3  14   3  170.03   17.81
  -3  14   1    5.81    3.63
   3  14  -1    8.42    2.99
  -3  14  -1   25.04    6.34
   3  14   1   13.60    4.70
  -3  14  -3   45.59    8.71
   3  14   3   27.48    7.34
   3  14   5  121.73   18.24
   3  14   7   54.67   12.76
   3  14   9   11.45    6.41
  -3  15  10  139.28   21.54
  -3  15   8   31.15    9.54
  -3  15   6   19.38    6.80
  -3  15   4   59.23   10.81
  -3  15   2  420.52   28.18
   3  15  -2  402.07   18.94
  -3  15   0   73.59   11.53
   3  15   0   87.38   10.83
  -3  15  -2   13.02    4.74
   3  15   2    9.45    4.67
  -3  15  -4  109.38   13.89
   3  15   4   70.71   11.95
   3  15   6  140.77   20.40
   3  15   6  128.62   18.56
   3  15   8   49.34   12.33
   3  15   8   44.14   12.01
  -3  16   9   26.23    9.47
  -3  16   7   -0.13    2.46
  -3  16   5  186.85   20.38
  -3  16   3    5.50    3.98
  -3  16   1   68.69   11.55
   3  16  -1   76.25    9.51
   3  16   1    0.76    1.30
  -3  16  -1    4.43    2.60
  -3  16  -3   97.89   13.50
   3  16   3   59.41   11.10
   3  16   5   32.34    9.01
   3  16   7   43.60   11.25
  -3  17   8    1.94    3.41
  -3  17   6  113.78   17.22
  -3  17   4   11.32    5.32
  -3  17   2    2.58    2.26
  -3  17   0   48.13    9.64
   3  17   0   44.79    8.34
   3  17   2   43.19    9.37
  -3  17  -2   71.35   11.89
   3  17   4   90.42   14.54
  -3  17  -4  100.96   13.98
   3  17   6   37.17   10.78
   3  17   8    8.51    4.19
  -3  18   7   21.92    8.15
  -3  18   5   54.84   12.05
  -3  18   3   48.48   10.81
  -3  18   1   33.82    8.90
  -3  18  -1    3.84    3.73
   3  18   1   11.73    4.62
   3  18   3   52.73   10.81
   3  18   5   41.31   10.98
   3  18   7   10.36    6.23
  -3  19   6    7.85    3.08
  -3  19   4   33.42    9.30
  -3  19   2  112.14   16.50
  -3  19   0    5.44    4.07
   3  19   4   42.12   10.70
   3  19   6   77.63   15.41
  -3  20   5   26.59    9.47
  -3  20   3   57.12   12.26
  -3  20   1   11.13    5.03
   3  20   5   64.79   14.03
  -3  21   4   34.40   10.10
  -4 -13   7  101.94   13.80
  -4 -13   5    9.89    4.75
   4 -13   1    2.69    2.49
   4 -13   3   13.25    5.48
   4 -13   5   59.46   10.28
  -4 -12   8  158.10   16.24
  -4 -12   6    5.42    3.10
  -4 -12   4  191.78   18.54
  -4 -12   2  251.87   22.03
   4 -12   0  213.93   19.04
   4 -12   2   49.97    9.31
   4 -12   4   11.78    4.81
   4 -12   6  248.20   22.76
  -4 -11   9  120.21   13.29
  -4 -11   7  150.56   14.79
  -4 -11   5   25.12    6.65
  -4 -11   3  255.15   20.87
   4 -11  -1  368.27   24.57
  -4 -11   1  312.83   23.86
   4 -11   1   78.19   11.11
   4 -11   3   44.99    8.13
   4 -11   5   32.56    7.19
   4 -11   7  315.89   24.71
  -4 -10   8   92.82   10.86
   4 -10  -8  125.58   15.36
  -4 -10   6   28.95    6.32
   4 -10  -6   19.94    5.61
  -4 -10   4  293.72   20.57
   4 -10  -4  414.81   27.21
   4 -10  -2  371.91   24.20
  -4 -10   2  353.00   23.83
  -4 -10   0  212.01   19.40
   4 -10   0  186.51   16.89
   4 -10   2    3.10    2.28
   4 -10   4   64.70    9.99
   4 -10   6  120.51   14.43
   4 -10  12    4.21    4.77
   4  -9  -9  113.73   14.54
  -4  -9   9   90.00    9.58
  -4  -9   7    3.99    2.47
   4  -9  -7    1.65    2.09
   4  -9  -5   82.43   11.16
  -4  -9   5   44.85    7.35
   4  -9  -5   88.95   12.51
   4  -9  -3  459.26   26.61
  -4  -9   3  414.11   23.56
  -4  -9   1   94.85   12.07
   4  -9  -1  104.25   12.18
  -4  -9  -1  226.18   19.44
   4  -9   1  218.78   16.83
   4  -9   3   21.62    5.40
   4  -9   5  323.98   23.12
   4  -9   7  105.48   13.93
   4  -9  13   10.83    6.75
   4  -8 -10  123.60   15.04
  -4  -8  10  133.33    9.91
  -4  -8   8  146.89   11.13
   4  -8  -8  133.75   14.38
   4  -8  -6  233.72   18.50
   4  -8  -6  221.26   19.66
  -4  -8   6  254.66   15.73
   4  -8  -4    5.45    2.62
  -4  -8   4    2.30    2.38
   4  -8  -2   61.05    9.19
  -4  -8   2   64.04    9.01
  -4  -8   0  695.51   31.68
   4  -8   0  721.34   30.63
  -4  -8  -2   68.55   10.97
   4  -8   2   69.46    9.51
   4  -8   4    5.74    2.75
   4  -8   6   21.56    5.89
   4  -8  12    5.46    4.63
  -4  -7  11  153.05    9.99
   4  -7 -11  175.62   17.11
  -4  -7  11  150.55    8.23
  -4  -7   9  200.90    8.01
   4  -7  -9  259.43   19.49
  -4  -7   9  221.21   11.63
   4  -7  -7   70.66    9.68
  -4  -7   7   47.60    5.86
   4  -7  -5   21.59    5.87
  -4  -7   5   27.36    4.79
   4  -7  -3  150.39   13.90
  -4  -7   3  118.40   11.20
  -4  -7   1  547.29   25.70
   4  -7  -1  641.48   28.20
   4  -7   1   64.00    8.81
  -4  -7  -1   66.54    9.96
  -4  -7  -3    4.00    3.56
   4  -7   3    1.31    1.92
   4  -7   5    3.83    3.11
   4  -7   7  349.23   25.49
   4  -7  11   21.48    8.59
   4  -7  13   16.34    8.63
  -4  -6  12    8.75    2.86
  -4  -6  10  106.98    5.30
   4  -6 -10  162.27   14.58
  -4  -6  10  146.78   10.39
  -4  -6   8  142.93    7.97
  -4  -6   8  142.37    8.14
   4  -6  -8  158.36   13.87
   4  -6  -6   31.97    6.12
  -4  -6   6   27.65    4.09
   4  -6  -6   27.40    6.26
   4  -6  -4    5.60    3.11
  -4  -6   4   12.06    3.23
  -4  -6   2   71.35    8.45
   4  -6  -2   89.52   10.32
   4  -6   0  192.89   15.55
  -4  -6   0  169.14   14.58
  -4  -6  -2    1.85    3.03
   4  -6   2    7.06    3.02
   4  -6   4   24.86    5.69
  -4  -6  -4   19.44    6.42
   4  -6   6    9.54    4.25
   4  -6  10    5.23    4.30
   4  -6  12    8.56    6.04
   4  -6  14   49.36   14.06
  -4  -5  13    2.24    2.45
   4  -5 -11   21.71    5.09
  -4  -5  11   25.67    5.10
  -4  -5   9  358.29   17.49
   4  -5  -9  267.19   17.33
   4  -5  -7   36.42    6.03
  -4  -5   7   61.16    5.52
  -4  -5   7   70.24    4.73
  -4  -5   5    1.24    0.95
   4  -5  -5    2.51    1.94
  -4  -5   5    0.53    0.59
  -4  -5   3  284.06   14.93
   4  -5  -3  241.29   16.98
   4  -5  -1  325.72   18.64
  -4  -5   1  339.98   18.91
   4  -5   1   71.34    8.97
  -4  -5  -1   88.76   10.69
  -4  -5  -3    1.81    2.28
   4  -5   3    0.77    1.52
  -4  -5  -5    2.28    2.38
   4  -5   5    3.74    2.56
   4  -5   7  112.21   14.66
   4  -5   9   89.39   15.14
   4  -5  11    1.65    1.97
   4  -5  13   84.33   16.89
  -4  -4  14    3.28    1.34
  -4  -4  12   12.40    3.96
   4  -4 -10  154.63   12.29
  -4  -4  10  180.78   13.92
  -4  -4   8  542.57   21.25
   4  -4  -8  529.42   21.57
   4  -4  -6  423.13   18.42
  -4  -4   6  432.33   15.82
   4  -4  -6  438.58   24.42
  -4  -4   6  439.69   10.53
   4  -4  -4  339.17   19.14
  -4  -4   4  249.84   11.64
  -4  -4   4  233.57   11.49
  -4  -4   2   74.98    7.77
   4  -4  -2   79.71    8.74
  -4  -4   0  565.94   24.41
   4  -4   0  560.05   23.75
   4  -4   2   59.07    8.13
  -4  -4  -2   56.76    8.89
  -4  -4  -4   16.54    5.45
   4  -4   4   20.41    5.41
   4  -4   6  196.61   18.02
  -4  -4  -6  170.67   18.74
   4  -4   8  284.94   25.29
   4  -4  10  140.64   19.53
   4  -4  12   13.94    6.24
   4  -4  14   23.60    8.94
  -4  -3  13    0.20    1.51
   4  -3 -11  123.88   10.12
  -4  -3  11  122.36   12.97
   4  -3  -9  148.48   10.31
  -4  -3   9  133.90   11.86
  -4  -3   7  334.32   17.27
   4  -3  -7  340.52   21.13
   4  -3  -7  337.61   14.71
   4  -3  -5   96.48   10.30
  -4  -3   5   79.46    6.93
  -4  -3   3  172.40   10.02
  -4  -3   3  177.60   10.30
   4  -3  -3  158.19   12.38
   4  -3  -1  134.53   11.16
  -4  -3   1   86.38    8.62
   4  -3   1   86.62    9.34
  -4  -3  -1   89.23   10.22
  -4  -3  -3    1.28    1.27
   4  -3   3    2.77    2.14
  -4  -3  -5    2.27    1.84
   4  -3   5    2.85    2.02
   4  -3   7  266.39   23.82
   4  -3   7  327.49   25.76
   4  -3   9   96.15   15.28
   4  -3  11    7.19    5.82
   4  -3  13   26.91    9.96
  -4  -2  14    7.76    4.16
  -4  -2  12   39.05    7.93
  -4  -2  10  190.43   15.79
   4  -2  -8  170.57    8.90
  -4  -2   8  184.31   13.57
   4  -2  -6    2.04    1.29
   4  -2  -6    1.75    1.50
  -4  -2   6   -0.49    1.38
  -4  -2   4 1139.38   27.15
   4  -2  -4 1152.88   33.41
   4  -2  -2 2299.77   45.90
  -4  -2   2 2295.51   39.02
   4  -2   0  190.59   13.14
  -4  -2   0  186.94   13.39
   4  -2   2   26.49    5.53
  -4  -2  -2   36.63    6.76
   4  -2   4  236.63   18.60
   4  -2   6  297.91   23.04
   4  -2   6  241.51   21.43
   4  -2   8  185.38   19.81
   4  -2  10    2.98    2.41
   4  -2  12   12.80    7.09
   4  -2  14   49.21   13.03
  -4  -1  15   15.22    5.89
  -4  -1  13   26.34    6.76
  -4  -1  11   86.37   11.54
  -4  -1   9  263.13   18.33
   4  -1  -7  155.95   13.22
   4  -1  -7  137.59    5.31
  -4  -1   7  188.60   13.44
  -4  -1   5   42.72    5.87
   4  -1  -5   68.85    7.93
  -4  -1   3 1244.09   29.24
   4  -1  -3 1175.73   29.87
   4  -1  -1  586.67   22.07
  -4  -1   1  648.84   22.25
   4  -1   1  503.59   21.89
   4  -1   3   43.05    7.57
   4  -1   3   52.30    8.50
   4  -1   5  331.58   22.95
   4  -1   7  786.78   38.91
   4  -1   9   26.79    7.38
   4  -1  11    3.26    3.40
   4  -1  13   11.90    7.18
   4  -1  15   54.50   13.85
  -4   0  16  112.03   17.48
  -4   0  14   28.74    8.41
  -4   0  12   67.67   11.34
  -4   0  10  208.38   17.90
  -4   0   8  324.10   19.93
   4   0  -6  758.93   27.00
  -4   0   6  697.58   24.58
  -4   0   4  202.22   12.63
   4   0  -4  206.24   12.95
   4   0  -2  451.90   18.61
  -4   0   2  474.45   19.14
   4   0   0  948.31   29.27
   4   0   0  916.37   28.01
  -4   0   0  958.97   28.93
   4   0   2    2.38    1.74
   4   0   2    1.45    1.70
   4   0   4   53.88    8.86
   4   0   6  748.07   36.35
   4   0   8   98.08   14.17
   4   0  10  134.17   18.43
   4   0  12    7.20    5.12
   4   0  14   38.65   11.84
  -4   1  17   36.45   10.99
  -4   1  15   16.52    6.85
  -4   1  13   30.42    7.92
  -4   1  11   77.86   11.81
  -4   1   9  203.52   17.50
  -4   1   7  168.51   13.95
  -4   1   5   80.96    8.78
   4   1  -5   40.88    5.67
   4   1  -3 1233.24   23.91
   4   1  -3 1303.17   31.04
  -4   1   3 1301.83   32.65
   4   1  -1  631.38   21.89
  -4   1   1  597.94   21.93
   4   1  -1  628.68   21.79
   4   1   1  532.81   23.53
   4   1   1  528.04   22.56
   4   1   3   31.35    6.56
   4   1   5  349.23   23.42
   4   1   7  796.15   39.26
   4   1   9   28.42    8.41
   4   1  11    6.98    4.67
   4   1  13   23.40    8.87
  -4   2  16   12.73    5.92
  -4   2  14    3.11    2.86
  -4   2  12   45.28    9.71
  -4   2  10  182.79   17.75
  -4   2   8  196.50   16.66
  -4   2   6    1.77    1.63
   4   2  -6    2.75    1.69
  -4   2   4 1157.59   32.77
   4   2  -4 1136.07   27.46
   4   2  -4 1129.59   19.38
   4   2  -2 2280.11   38.17
   4   2  -2 2258.06   39.05
  -4   2   2 2202.42   43.20
  -4   2   0  203.27   13.84
   4   2   0  181.31   12.26
   4   2   0  179.82   12.85
   4   2   2   35.82    6.64
   4   2   4  259.54   19.73
   4   2   6  243.42   21.07
   4   2   8  184.22   19.73
   4   2  10    5.32    3.56
   4   2  12    8.48    5.06
   4   2  14   53.99   13.81
  -4   3  17   28.90   10.05
  -4   3  15    7.03    5.06
  -4   3  13   -3.06    2.77
  -4   3  11  135.26   16.49
  -4   3   9  160.01   16.37
  -4   3   7  356.73   21.99
   4   3  -5   80.75    7.10
  -4   3   5   81.65    8.85
  -4   3   3  149.49   11.89
   4   3  -3  170.62   10.21
   4   3  -3  168.87    9.75
  -4   3   1  133.09   10.89
   4   3  -1   93.43    8.38
   4   3  -1   87.41    8.33
  -4   3  -1   90.58    9.51
   4   3   1   93.70   10.09
   4   3   3    3.31    2.32
   4   3   5    1.65    1.86
   4   3   7  272.64   23.35
   4   3   9  119.91   16.47
   4   3  11    9.47    5.07
   4   3  13   21.11    8.68
  -4   4  16   23.17    9.37
  -4   4  14    4.32    4.44
  -4   4  12   10.59    5.35
  -4   4  10  169.72   18.08
  -4   4   8  524.74   29.14
   4   4  -6  415.44   15.34
  -4   4   6  437.75   24.10
   4   4  -4  228.06   11.02
   4   4  -4  207.74   10.01
  -4   4   2   88.96    9.41
   4   4  -2   80.86    7.22
   4   4  -2   81.92    8.03
  -4   4   0  568.25   23.74
   4   4   0  582.87   24.61
  -4   4  -2   55.72    8.28
   4   4   2   55.53    8.46
   4   4   4   18.58    5.60
   4   4   6  169.95   17.45
   4   4   8  273.85   24.90
   4   4  10  141.60   19.30
   4   4  12   13.85    6.35
   4   4  14   18.59    8.39
  -4   5  15   13.32    6.49
  -4   5  13    4.29    3.70
  -4   5  11   21.80    7.05
  -4   5   9  263.19   22.27
  -4   5   7   39.80    8.02
   4   5  -5    1.08    0.99
  -4   5   5    1.83    1.24
   4   5  -3  280.03   14.50
   4   5  -3  276.14   12.01
  -4   5   3  223.76   15.73
  -4   5   1  313.79   17.87
   4   5  -1  354.74   16.48
   4   5  -1  344.69   18.47
  -4   5  -1   63.45    8.31
   4   5   1   91.33   10.71
   4   5   3    2.70    2.07
   4   5   5    3.87    3.30
   4   5   7  105.98   15.09
   4   5   9   81.42   14.15
   4   5  11    3.96    5.17
   4   5  13   96.80   17.96
  -4   6  14    5.60    4.89
  -4   6  12    4.19    3.89
  -4   6  10  169.20   18.91
  -4   6   8  168.02   17.52
  -4   6   6   31.10    7.06
  -4   6   4    6.11    3.21
   4   6  -4   10.35    2.03
   4   6  -2   79.75    8.89
  -4   6   2   79.08    9.41
   4   6  -2   77.55    7.19
  -4   6   0  179.74   13.93
   4   6   0  164.86   14.06
  -4   6  -2    7.41    2.91
   4   6   2    4.49    3.07
   4   6   4   17.10    5.96
   4   6   6    6.27    3.58
   4   6   8   74.74   13.63
   4   6  10    7.92    5.04
   4   6  12    3.11    4.52
  -4   7  15    6.44    5.89
  -4   7  13   15.21    6.40
  -4   7  11  170.66   20.65
  -4   7   9  267.83   23.70
  -4   7   7   71.64   11.12
  -4   7   5   19.27    5.34
  -4   7   3  156.38   14.05
   4   7  -3  119.18    7.75
   4   7  -3  119.99   10.99
  -4   7   1  629.31   27.22
   4   7  -1  599.95   27.12
  -4   7  -1   66.11    8.82
   4   7   1   64.53    9.48
   4   7   3    3.68    2.73
  -4   7  -3    0.85    1.46
   4   7   5    3.73    3.14
   4   7   7  296.67   26.23
   4   7   9  130.36   18.83
   4   7  11   34.84   10.09
   4   7  13    5.08    5.31
  -4   8  14   27.69    9.77
  -4   8  12    3.43    4.00
  -4   8  10  138.29   18.21
  -4   8   8  135.89   16.60
  -4   8   6  232.26   19.89
  -4   8   4    7.59    3.35
   4   8  -4    2.40    0.96
   4   8  -2   66.79    9.16
  -4   8   2   58.27    8.69
   4   8  -2   66.49    6.68
   4   8   0  741.47   32.74
  -4   8   0  717.49   29.73
  -4   8  -2   58.37    8.90
   4   8   2   65.60   10.30
   4   8   4    3.60    3.16
   4   8   6   35.73    8.65
   4   8   8  174.59   21.15
   4   8  10   42.41   11.17
   4   8  12    0.84    2.27
  -4   9  13    9.89    6.51
  -4   9  11  111.33   17.74
  -4   9   9  112.19   16.26
  -4   9   7   -0.50    1.73
  -4   9   5   77.19   11.02
  -4   9   3  458.33   26.09
   4   9  -3  435.51   14.91
  -4   9   1  104.18   11.95
   4   9  -1  103.64   12.42
   4   9   1  232.02   19.69
  -4   9  -1  228.65   17.52
   4   9   3   12.14    4.81
  -4   9  -3   16.91    5.24
   4   9   5  260.26   23.68
   4   9   7  115.32   16.92
   4   9   9   52.08   12.23
   4   9  11    7.36    4.81
  -4  10  12  144.51   21.48
  -4  10  10   80.94   14.68
  -4  10   8  117.45   16.15
  -4  10   6   20.85    6.51
  -4  10   4  370.44   24.55
  -4  10   2  351.34   22.92
   4  10   0  205.87   18.78
  -4  10   0  174.15   15.64
  -4  10  -2    0.83    2.36
   4  10   2    1.18    1.67
   4  10   4   35.69    8.86
  -4  10  -4   59.54   10.50
   4  10   6  100.28   16.14
   4  10   8  219.69   24.90
   4  10  10   24.59    9.12
  -4  11  11   75.62   15.24
  -4  11   9  179.14   21.61
  -4  11   7  140.64   17.59
  -4  11   5   12.18    4.59
  -4  11   3  302.48   22.31
   4  11  -3  236.39   10.70
   4  11  -3  244.16   11.35
  -4  11   1  348.70   23.44
   4  11   1   60.15   10.90
  -4  11  -1   80.29   11.10
   4  11   3   53.93   10.72
  -4  11  -3   34.75    7.68
   4  11   5   31.23    9.01
   4  11   7  323.24   30.32
   4  11   9   23.33    8.88
   4  11  11   12.52    6.78
  -4  12  12    9.09    6.37
  -4  12  10  112.43   18.49
  -4  12   8  173.20   20.71
  -4  12   6    0.00    2.34
  -4  12   4  274.62   22.68
  -4  12   2  260.27   20.96
   4  12  -2  250.94   13.88
   4  12   0  240.02   21.41
  -4  12   0  218.23   18.63
   4  12   2   46.65   10.34
  -4  12  -2   44.80    8.58
   4  12   4    4.59    2.83
  -4  12  -4   13.69    5.26
   4  12   6  213.21   24.09
   4  12   8  265.59   28.48
   4  12  10    7.94    6.25
  -4  13  11   54.39   13.49
  -4  13   9   34.29   10.05
  -4  13   7   90.76   14.73
  -4  13   5    3.90    3.51
  -4  13   3  489.50   30.34
   4  13  -3  476.09   15.67
   4  13  -3  466.51   16.92
  -4  13   1   62.43   10.50
   4  13  -1   76.99    9.06
   4  13   1    4.26    2.08
  -4  13  -1    2.60    3.00
   4  13   3    5.19    3.75
  -4  13  -3   12.34    4.62
   4  13   5   50.65   11.92
   4  13   7   93.46   17.04
   4  13   9   78.80   16.46
  -4  14  10   34.96   10.94
  -4  14   8   89.53   15.61
  -4  14   6   31.31    8.41
  -4  14   4  376.44   30.09
  -4  14   2   12.53    5.19
   4  14  -2    4.20    2.05
  -4  14   0   92.58   12.89
   4  14   0   82.48   10.56
  -4  14  -2   22.14    6.40
   4  14   2   28.47    8.22
   4  14   4   49.30   11.93
  -4  14  -4   58.31   11.14
   4  14   6   17.41    7.63
   4  14   8   54.15   13.39
  -4  15   9   61.57   13.89
  -4  15   7  133.42   18.53
  -4  15   5    5.46    3.89
  -4  15   3  133.06   16.72
  -4  15   1  138.80   16.81
   4  15  -1  121.02   12.15
  -4  15  -1  226.81   20.89
   4  15   1  189.08   17.27
  -4  15  -3    5.12    2.92
   4  15   5   29.21    9.62
   4  15   7   42.41   11.80
  -4  16   8   38.93   11.16
  -4  16   6    5.20    4.27
  -4  16   4    6.44    4.14
  -4  16   2   58.02   11.34
   4  16   0   87.94   11.76
  -4  16   0   84.73   12.95
  -4  16  -2    2.98    3.06
   4  16   2    5.03    2.99
  -4  16  -4   13.09    5.67
   4  16   4    3.82    3.19
   4  16   6   25.65    9.44
   4  16   6   17.06    6.76
   4  16   8   43.80   12.80
  -4  17   7    6.82    5.62
  -4  17   5    0.99    3.67
  -4  17   3   20.07    6.64
  -4  17   1   93.55   14.30
   4  17   1   16.21    5.42
  -4  17  -1    5.72    4.71
  -4  17  -3    6.10    2.80
   4  17   3    1.43    2.50
   4  17   5   26.99    8.63
   4  17   7   20.42    8.14
  -4  18   6    2.70    4.30
  -4  18   4   14.61    6.17
  -4  18   2   30.79    8.99
  -4  18   0  176.56   19.99
   4  18   2   14.65    6.05
  -4  18  -2    6.85    3.47
   4  18   4    6.26    5.04
   4  18   6    8.83    5.17
  -4  19   5   -2.96    2.30
  -4  19   3   22.59    7.66
  -4  19   1   37.72    9.66
  -4  19  -1   62.30   12.47
   4  19   5    3.70    3.06
  -4  20   4   12.48    6.75
  -4  20   2   32.69    8.27
  -4  20   0   21.70    8.17
  -4  21   3   62.67   13.26
  -5 -13   6   43.30    8.91
  -5 -12   7  121.03   14.23
  -5 -12   5   17.20    5.74
  -5 -12   3   71.15   12.00
  -5 -11   8   65.50    9.63
  -5 -11   6  159.98   15.83
  -5 -11   4  107.04   13.58
  -5 -11   2  108.59   14.27
   5 -10  -7  101.91   13.90
  -5 -10   7   76.30   10.17
  -5 -10   5   38.08    7.61
  -5 -10   3   37.08    7.70
  -5 -10   1  370.55   25.63
   5 -10  -1  422.07   27.16
   5 -10   1   80.28   11.50
   5 -10   3    0.11    2.34
   5  -9 -10   55.53   10.44
   5  -9  -8  131.33   15.18
  -5  -9   8  112.84   10.59
   5  -9  -6  142.88   15.28
  -5  -9   6  148.02   13.37
  -5  -9   4    2.04    2.30
   5  -9  -2  197.28   18.19
  -5  -9   2  145.50   14.90
  -5  -9   0  511.03   30.20
   5  -9   0  514.57   28.72
   5  -9   2  148.86   15.78
   5  -9   4   -0.48    2.15
  -5  -8   9    1.30    1.28
   5  -8  -9    1.50    1.48
   5  -8  -7  233.69   18.87
  -5  -8   7  219.78   14.09
  -5  -8   5  265.02   17.04
  -5  -8   3   66.68    9.37
   5  -8  -3   44.60    8.63
  -5  -8   1  202.43   17.81
   5  -8  -1  236.70   18.99
   5  -8   1  392.04   25.34
  -5  -8  -1  349.78   25.49
   5  -8   3   37.78    7.69
   5  -8   5   18.01    5.80
   5  -8  11   46.79   13.88
   5  -7 -10   25.69    6.36
  -5  -7  10   30.35    3.58
   5  -7  -8  188.24   16.26
  -5  -7   8  183.56   10.15
   5  -7  -6  526.42   25.63
  -5  -7   6  459.10   19.64
   5  -7  -4  323.58   22.41
  -5  -7   4  334.18   18.97
  -5  -7   2  352.01   21.82
   5  -7  -2  450.17   25.48
   5  -7   0  506.19   27.73
  -5  -7   0  429.22   26.22
   5  -7   2  443.45   25.86
  -5  -7  -2  437.01   28.38
   5  -7   4    2.55    1.90
   5  -7  10  222.34   27.44
   5  -7  12   20.55    9.42
  -5  -6  11   14.32    3.66
   5  -6 -11   32.89    6.64
  -5  -6   9  355.33   15.66
   5  -6  -9  387.49   21.98
   5  -6  -7  166.55   14.01
  -5  -6   7  150.16    9.17
  -5  -6   7  154.44    8.91
   5  -6  -5  203.94   17.74
  -5  -6   5  177.56   12.17
  -5  -6   3    1.02    0.92
   5  -6  -3   -0.20    1.44
   5  -6  -1  317.07   20.61
  -5  -6   1  335.55   21.15
   5  -6   1  452.49   25.06
  -5  -6  -1  431.40   26.12
   5  -6   3   37.40    7.44
  -5  -6  -3   44.09    9.41
   5  -6   5    4.22    3.17
   5  -6   9  102.28   17.40
   5  -6  11   60.88   14.41
   5  -6  13    1.07    2.53
  -5  -5  12   25.63    5.53
  -5  -5  10   96.52    9.62
   5  -5 -10  119.79   11.00
   5  -5  -8  224.49   15.10
  -5  -5   8  241.88   13.56
   5  -5  -6  287.81   21.45
  -5  -5   6  349.51   16.08
  -5  -5   6  321.77   12.86
  -5  -5   4  149.51   11.07
   5  -5  -4  117.74   12.79
  -5  -5   2  393.62   20.73
   5  -5  -2  421.36   22.20
   5  -5   0  821.98   32.58
  -5  -5   0  833.46   34.10
  -5  -5  -2  249.25   20.50
   5  -5   2  224.84   17.61
  -5  -5  -4   70.47   12.22
   5  -5   4   61.50   10.08
   5  -5   8  258.30   26.07
   5  -5  10  133.79   19.88
   5  -5  12    1.48    2.26
  -5  -4  13   31.90    6.87
   5  -4 -11    2.95    1.70
  -5  -4  11    2.13    1.14
  -5  -4   9  322.53   17.87
   5  -4  -9  293.71   15.75
   5  -4  -7  356.66   17.56
  -5  -4   7  365.07   17.26
   5  -4  -7  362.62   24.06
  -5  -4   5  243.78   13.61
  -5  -4   5  236.51   11.47
   5  -4  -5  238.00   17.89
  -5  -4   3  143.35   11.11
   5  -4  -3  108.53   11.60
   5  -4  -1  592.81   27.01
  -5  -4   1  598.60   26.24
   5  -4   1  429.27   23.26
  -5  -4  -1  446.24   25.36
   5  -4   3  291.15   20.82
  -5  -4  -3  306.93   23.54
   5  -4   5   77.30   11.85
   5  -4   7    7.12    4.78
   5  -4   9  260.88   26.66
   5  -4  11   25.79    9.39
   5  -4  13   10.56    6.99
  -5  -3  14   98.71   13.50
  -5  -3  12    8.79    4.08
   5  -3 -10    3.47    1.51
  -5  -3  10    4.10    2.85
  -5  -3   8  282.63   16.83
   5  -3  -8  305.14   21.92
   5  -3  -8  306.87   14.05
  -5  -3   6  107.72    9.51
   5  -3  -6  141.32   13.82
  -5  -3   4   55.24    6.71
   5  -3  -4   76.28    9.59
  -5  -3   2    1.32    1.91
   5  -3  -2    2.06    2.07
   5  -3   0  215.77   16.02
  -5  -3   0  184.09   15.18
  -5  -3  -2  444.99   26.55
   5  -3   2  473.98   25.12
   5  -3   4    2.46    2.18
   5  -3   6   15.04    5.50
   5  -3   8  139.57   18.41
   5  -3  10   52.07   12.43
   5  -3  12   17.48    6.99
  -5  -2  15   59.50   11.22
  -5  -2  13   -1.16    1.89
  -5  -2  11   35.56    7.20
  -5  -2   9  178.98   14.92
   5  -2  -9  143.23    6.28
  -5  -2   7  434.21   20.79
   5  -2  -7  430.12   24.48
   5  -2  -7  408.72   13.88
  -5  -2   5   32.44    5.31
   5  -2  -5   31.00    6.10
   5  -2  -3  479.17   22.60
  -5  -2   3  522.70   22.23
   5  -2  -1  549.16   24.85
   5  -2   1  331.45   20.13
   5  -2   3    5.45    3.09
   5  -2   5   40.61    8.99
   5  -2   5   32.19    8.02
   5  -2   7  224.83   22.24
   5  -2   9  113.88   17.41
   5  -2  11   26.45    8.03
   5  -2  13    2.82    3.64
  -5  -1  14   14.44    5.63
  -5  -1  12   12.44    4.85
  -5  -1  10    1.84    1.66
  -5  -1   8  150.58   13.78
   5  -1  -8  109.91   12.32
  -5  -1   6  186.36   13.66
   5  -1  -6  168.72   14.15
  -5  -1   4   38.08    5.85
   5  -1  -4   28.02    5.59
   5  -1  -2  418.86   20.73
  -5  -1   2  383.39   19.19
   5  -1   0  238.18   16.22
   5  -1   2  150.99   14.14
   5  -1   2  160.93   15.11
   5  -1   4    5.89    3.14
   5  -1   4    4.09    3.78
   5  -1   6   82.87   13.12
   5  -1   8  104.78   15.83
   5  -1  10   31.37    9.36
   5  -1  12   17.05    7.11
  -5   0  15   67.81   13.15
  -5   0  13   14.11    5.71
  -5   0  11   12.06    4.90
  -5   0   9  122.80   12.89
  -5   0   7   37.24    6.82
   5   0  -7   35.36    6.38
  -5   0   5   98.97   10.16
   5   0  -5   93.58    6.19
   5   0  -5  101.98   10.33
   5   0  -3   29.13    5.27
  -5   0   3   29.50    5.36
   5   0  -3   29.42    4.67
   5   0  -1  515.86   22.81
   5   0  -1  529.35   23.03
  -5   0   1  507.93   22.36
   5   0   1    3.98    2.41
   5   0   1    8.01    3.47
   5   0   3  169.33   16.04
   5   0   3  169.03   15.89
   5   0   5   40.60    8.80
   5   0   7   19.45    6.55
   5   0   9  123.52   17.58
   5   0  11   55.06   13.08
   5   0  13   11.78    6.47
  -5   1  16   64.03   13.50
  -5   1  14    7.94    5.04
  -5   1  12   34.21    8.36
  -5   1  10    6.98    3.44
  -5   1   8   98.94   10.94
  -5   1   6  164.56   13.80
   5   1  -6  188.69   13.76
  -5   1   4   25.13    5.05
   5   1  -4   40.21    4.61
   5   1  -4   37.19    5.52
   5   1  -2  367.22   18.71
  -5   1   2  422.13   20.60
   5   1  -2  368.16   17.84
   5   1   0  269.22   17.42
   5   1   0  275.32   17.10
  -5   1   0  248.87   16.68
   5   1   2  185.21   16.20
   5   1   2  180.06   15.53
   5   1   4    6.77    3.28
   5   1   6   89.22   13.42
   5   1   8  130.20   18.07
   5   1  10   33.47    9.79
   5   1  12    8.54    5.28
  -5   2  17   28.73    9.87
  -5   2  15   67.98   14.22
  -5   2  13   -0.47    1.66
  -5   2  11   39.34    8.96
  -5   2   9  176.05   16.90
  -5   2   7  421.29   23.69
   5   2  -7  436.17   21.25
  -5   2   5   31.14    6.10
   5   2  -5   33.59    5.44
   5   2  -5   30.59    3.24
   5   2  -3  486.59   20.75
  -5   2   3  473.63   22.37
   5   2  -3  484.75   18.65
   5   2  -1  610.40   24.79
  -5   2   1  539.37   24.01
   5   2  -1  589.85   24.30
   5   2   1  331.49   20.02
   5   2   1  337.74   20.75
  -5   2  -1  339.37   20.47
   5   2   3   11.74    4.47
   5   2   5   32.59    7.97
   5   2   7  229.56   22.80
   5   2   9  123.43   17.89
   5   2  11   31.54    9.94
   5   2  13   20.74    8.65
  -5   3  16   43.56   12.06
  -5   3  14  122.53   18.61
  -5   3  12    1.55    2.37
  -5   3  10    5.13    2.94
  -5   3   8  305.86   21.74
   5   3  -6  109.81    9.60
  -5   3   6  146.61   14.16
   5   3  -4   55.89    7.02
  -5   3   4   70.90    9.07
   5   3  -4   51.44    5.58
   5   3  -2   -0.15    0.78
   5   3  -2    1.56    2.07
  -5   3   2    0.43    1.48
   5   3   0  178.77   13.92
  -5   3   0  241.74   17.36
   5   3   0  196.92   15.24
   5   3   2  448.64   25.88
   5   3   4    3.36    1.92
   5   3   6    4.04    3.64
   5   3   8  115.75   16.75
   5   3  10   56.29   12.31
   5   3  12   19.18    8.13
  -5   4  15   63.60   13.98
  -5   4  13   33.05    9.61
  -5   4  11    1.73    2.40
  -5   4   9  279.17   22.69
   5   4  -7  321.43   15.71
  -5   4   7  306.91   20.27
   5   4  -5  223.57   10.96
  -5   4   5  236.10   17.53
   5   4  -5  236.67   13.30
  -5   4   3  102.74   11.15
   5   4  -3  140.57   10.62
   5   4  -3  149.08   11.09
  -5   4   1  582.56   26.10
   5   4  -1  619.70   24.61
   5   4  -1  612.05   25.93
  -5   4  -1  410.60   22.44
   5   4   1  434.45   24.04
   5   4   3  312.72   22.44
   5   4   5   73.24   12.07
   5   4   7    4.87    3.91
   5   4   9  268.26   26.92
   5   4  11   29.86   10.02
   5   4  13    9.76    6.86
  -5   5  16   32.10   10.86
  -5   5  14   25.01    8.85
  -5   5  12   21.18    8.10
  -5   5  10  132.50   16.71
  -5   5   8  219.37   19.67
  -5   5   6  270.66   20.01
   5   5  -6  301.93   13.98
   5   5  -4  149.92   10.79
   5   5  -4  144.13   10.18
  -5   5   4  111.53   12.20
  -5   5   2  433.62   23.02
   5   5  -2  395.13   18.52
   5   5  -2  398.45   20.36
  -5   5   0  812.32   31.73
   5   5   0  839.61   30.74
   5   5   0  784.34   31.27
  -5   5  -2  213.97   17.64
   5   5   2  248.21   19.87
   5   5   4   66.80   11.28
   5   5   6   23.64    7.17
   5   5   8  244.81   25.22
   5   5  10  144.05   20.74
   5   5  12    2.86    4.35
  -5   6  15   41.53   11.72
  -5   6  13   44.62   11.96
  -5   6  11   29.66    8.33
  -5   6   9  394.42   28.30
  -5   6   7  171.26   16.67
  -5   6   5  204.72   18.04
   5   6  -5  173.09   10.07
  -5   6   3    3.68    2.74
   5   6  -3    2.79    2.11
   5   6  -3    1.51    1.41
  -5   6   1  314.07   20.04
   5   6  -1  340.56   18.44
   5   6  -1  330.77   20.32
  -5   6  -1  443.97   24.68
   5   6   1  430.79   25.71
   5   6   3   40.67    8.60
   5   6   5    1.09    2.10
   5   6   7   15.59    6.16
   5   6   9   85.27   15.69
   5   6  11   62.16   14.26
  -5   7  14  135.55   21.40
  -5   7  12   13.28    6.79
  -5   7  10   27.63    7.92
  -5   7   8  198.92   19.69
  -5   7   6  542.79   29.96
   5   7  -6  414.65   13.12
   5   7  -4  324.48   18.18
  -5   7   4  330.83   22.37
   5   7  -4  331.72   14.49
   5   7  -2  363.07   21.61
  -5   7   2  445.16   24.81
   5   7  -2  373.57   18.89
  -5   7   0  451.36   25.27
   5   7   0  422.76   25.05
  -5   7  -2  407.18   24.27
   5   7   2  442.46   28.14
   5   7   4    1.78    3.48
   5   7   6    1.71    2.21
   5   7   8   58.24   12.48
   5   7  10  206.63   25.63
   5   7  12   27.39    9.79
  -5   8  13    4.78    4.13
  -5   8  11    9.22    5.15
  -5   8   9    3.77    4.26
  -5   8   7  223.52   20.17
  -5   8   5  251.93   21.46
   5   8  -5  257.42   10.15
   5   8  -3   66.57    9.38
  -5   8   3   42.16    7.98
   5   8  -3   68.84    7.24
   5   8  -1  201.55   17.49
  -5   8   1  226.43   17.97
  -5   8  -1  352.98   22.71
   5   8   1  331.69   23.63
  -5   8  -3   34.02    7.86
   5   8   3   41.41    8.96
   5   8   5   21.29    6.89
   5   8   7   -0.40    2.78
   5   8   9  193.94   24.20
   5   8  11   49.16   13.01
  -5   9  12    8.13    6.17
  -5   9  10   61.53   12.56
  -5   9   8  128.13   16.68
  -5   9   6  134.87   15.82
   5   9  -4    1.29    0.99
  -5   9   4    3.73    2.99
   5   9  -2  163.55   15.74
  -5   9   2  189.29   17.24
   5   9  -2  156.61   11.99
   5   9   0  518.23   30.02
  -5   9   0  499.28   27.50
  -5   9  -2  145.31   15.87
   5   9   2  162.03   17.80
   5   9   4   -0.66    2.33
   5   9   6   44.98   10.71
   5   9   8   63.54   14.02
   5   9  10   51.44   13.22
  -5  10  13    9.52    5.67
  -5  10  11    3.94    3.96
  -5  10   9  105.04   16.13
  -5  10   7   90.71   13.29
  -5  10   5   32.32    8.42
  -5  10   3   66.78   10.56
   5  10  -3   40.22    5.39
   5  10  -1  398.29   26.50
  -5  10   1  401.78   25.48
   5  10   1   81.99   12.66
  -5  10  -1   87.78   12.08
   5  10   3    0.42    2.40
  -5  10  -3    1.84    2.10
   5  10   5   41.41   10.22
   5  10   7   68.56   14.03
   5  10   9   84.68   16.54
  -5  11  12   12.38    6.17
  -5  11  10    2.40    4.01
  -5  11   8   85.35   14.03
  -5  11   6  173.41   18.99
  -5  11   4  118.20   15.06
   5  11  -4  116.04    7.13
   5  11  -2  110.78   13.96
  -5  11   2  142.42   15.84
   5  11  -2  115.42   10.71
   5  11   0   42.01    9.40
  -5  11   0   21.20    6.31
   5  11   2  249.77   23.38
  -5  11  -2  262.36   21.93
   5  11   4   33.35    9.73
   5  11   6   39.49   10.58
   5  11   8    5.34    4.22
   5  11  10   45.27   12.77
  -5  12  11    2.61    4.11
  -5  12   9   34.87    9.54
  -5  12   7  120.74   16.63
  -5  12   5    3.68    3.98
  -5  12   3  110.45   14.52
   5  12  -3   76.62    7.75
  -5  12   1   46.01    9.08
   5  12  -1   42.74    9.07
   5  12   1  190.58   20.75
  -5  12  -1  194.53   18.82
   5  12   3  259.49   25.38
  -5  12  -3  232.49   21.33
   5  12   5   22.43    8.07
   5  12   7   73.83   15.30
   5  12   9   30.30   10.09
  -5  13  10   99.77   17.37
  -5  13   8   54.70   11.80
  -5  13   6   45.06   10.53
   5  13  -4   18.88    1.96
   5  13  -4   16.18    1.70
  -5  13   2  142.18   16.72
   5  13   0   35.74    8.84
  -5  13   0   34.48    8.29
   5  13   2   58.11   12.06
  -5  13  -2   50.42   10.06
  -5  13  -4   -1.52    3.45
   5  13   4   -1.08    1.89
   5  13   6   74.00   15.36
   5  13   8   48.36   12.68
  -5  14   9  151.30   20.80
  -5  14   7  128.62   18.27
  -5  14   5    5.21    3.49
   5  14  -3   14.85    3.05
  -5  14   3   21.02    6.62
  -5  14   1   61.94   11.05
   5  14   1   85.92   14.51
  -5  14  -1  106.54   14.75
  -5  14  -3   16.73    5.72
   5  14   3   27.77    9.21
   5  14   5    1.91    3.60
   5  14   7   29.92   10.21
  -5  15   8  127.69   18.91
  -5  15   6   45.58   11.42
  -5  15   4   30.58    8.83
  -5  15   2   90.45   14.12
   5  15  -2   47.56    6.96
  -5  15   0   62.40   11.49
   5  15   2  162.12   20.97
  -5  15  -2  153.99   18.31
   5  15   4   32.52   10.28
  -5  15  -4   24.21    8.11
   5  15   6    6.00    5.43
  -5  16   7   17.08    8.13
  -5  16   5  100.84   16.36
  -5  16   3   -2.36    1.82
  -5  16   1  107.36   15.71
  -5  16  -1  131.85   17.42
   5  16   1  115.37   14.78
  -5  16  -3   29.02    8.34
   5  16   3   35.73    9.96
   5  16   5    8.35    5.28
  -5  17   6   61.20   13.33
  -5  17   4    6.34    4.43
  -5  17   2   81.00   13.86
  -5  17   0   67.49   12.74
  -5  17  -2   37.34   10.08
   5  17   2   48.95   10.45
   5  17   4   -2.70    4.81
  -5  17  -4    4.30    2.67
   5  17   6    7.04    5.74
  -5  18   5   57.04   13.17
  -5  18   3    5.78    4.53
  -5  18   1  135.50   18.39
  -5  18  -1   80.11   14.13
  -5  18  -3    0.46    2.06
   5  18   3    3.90    3.02
   5  18   5    1.56    2.78
  -5  19   4   25.36    8.13
  -5  19   2    9.33    5.40
  -5  19   0  103.72   16.57
  -5  20   3    1.96    2.85
  -5  20   1   54.97   12.53
  -6 -12   6   58.56   10.27
  -6 -12   4   31.63    7.86
  -6 -11   7   23.63    6.06
  -6 -11   5  170.52   16.85
  -6 -11   3   27.50    7.60
  -6 -10   8   22.80    5.24
  -6 -10   6  188.33   16.55
  -6 -10   4   92.57   12.44
  -6 -10   2    7.01    3.77
   6  -9  -9   26.64    7.00
   6  -9  -7  211.06   19.25
  -6  -9   7  206.99   15.53
  -6  -9   5  231.41   18.15
  -6  -9   3  116.11   14.04
  -6  -9   1  100.83   14.00
   6  -8 -10   10.69    5.03
  -6  -8   8    5.22    2.12
   6  -8  -8    1.03    2.11
  -6  -8   6   60.72    8.18
  -6  -8   4  336.47   21.78
  -6  -8   2   32.14    7.46
  -6  -8   0  297.32   23.68
   6  -8  10   63.97   15.53
   6  -7  -9   33.24    7.48
   6  -7  -7   51.84    8.55
  -6  -7   7   63.16    6.93
  -6  -7   5  291.81   17.88
  -6  -7   3  271.09   19.29
   6  -7  -3  272.53   21.59
  -6  -7   1   14.71    5.13
   6  -7  -1   23.93    6.18
   6  -7   1  457.78   28.14
  -6  -7  -1  436.34   29.49
   6  -7   9   59.50   13.95
   6  -7  11   68.86   16.38
  -6  -6  10  137.97   11.52
   6  -6 -10  154.49   13.97
   6  -6  -8  267.44   18.15
  -6  -6   8  251.08   14.53
  -6  -6   6  174.87   11.78
  -6  -6   4  159.18   13.52
   6  -6  -4  167.70   16.78
  -6  -6   2    4.58    2.56
   6  -6  -2    3.50    2.47
   6  -6   0  573.71   30.51
  -6  -6   0  534.27   30.29
   6  -6   2  663.00   33.86
  -6  -6  -2  601.94   34.76
   6  -6   8   56.62   13.31
   6  -6  10  120.14   20.33
  -6  -5  11   15.49    3.99
   6  -5  -9    4.18    2.42
  -6  -5   9    2.47    2.29
   6  -5  -7   58.30    7.63
  -6  -5   7   53.85    7.18
  -6  -5   5  362.00   17.65
   6  -5  -5  347.78   23.67
  -6  -5   3   94.27   10.42
   6  -5  -3   69.95   10.21
   6  -5  -1  287.11   20.55
  -6  -5   1  204.57   17.36
  -6  -5  -1  530.53   30.55
   6  -5   1  518.94   28.83
   6  -5   3  434.05   27.46
   6  -5   7    2.55    2.98
   6  -5   9  118.51   19.35
   6  -5  11   98.50   19.09
  -6  -4  12   82.61   10.92
  -6  -4  10  176.76   14.93
   6  -4 -10  176.92   11.19
   6  -4  -8   43.03    5.98
  -6  -4   8   55.32    7.58
   6  -4  -6   97.36   12.38
  -6  -4   6  107.44   10.29
  -6  -4   4  424.90   21.07
   6  -4  -4  410.84   24.73
   6  -4  -2  257.49   20.05
  -6  -4   2  249.83   17.73
   6  -4   0  188.94   16.71
  -6  -4   0  191.16   17.29
   6  -4   2  380.83   24.53
  -6  -4  -2  413.31   27.88
   6  -4   6    0.83    2.45
   6  -4   8    9.41    5.38
   6  -4  10   29.54    9.54
   6  -4  12   67.15   16.15
  -6  -3  13   63.18   10.58
  -6  -3  11   90.36   11.52
  -6  -3   9    4.52    2.95
   6  -3  -9    7.39    1.86
   6  -3  -7  417.63   26.14
  -6  -3   7  373.91   20.08
  -6  -3   5   54.85    7.52
   6  -3  -5   70.75   10.14
   6  -3  -3  201.76   16.48
  -6  -3   3  168.47   13.69
   6  -3  -1   18.71    5.34
   6  -3   1  382.43   23.82
   6  -3   3   99.59   13.23
   6  -3   5   56.46   11.29
   6  -3   7   25.27    8.08
   6  -3   9   27.53    9.33
   6  -3  11   58.93   14.26
  -6  -2  14   70.82   12.14
  -6  -2  12   33.63    8.37
  -6  -2  10    4.87    3.23
  -6  -2   8  155.68   14.13
   6  -2  -8  173.79   17.05
   6  -2  -8  171.53    8.40
  -6  -2   6  177.63   14.03
   6  -2  -6  189.57   16.27
  -6  -2   4  117.53   11.31
   6  -2  -4  100.79   11.46
   6  -2  -2   14.60    4.26
  -6  -2   2   12.01    3.95
   6  -2   0  534.01   27.16
   6  -2   2  333.18   23.08
   6  -2   4  209.99   20.63
   6  -2   6    7.53    4.82
   6  -2   8   24.14    8.09
   6  -2  10  114.03   18.48
   6  -2  12   14.59    7.04
  -6  -1  15   45.01   10.07
  -6  -1  13   60.98   11.13
  -6  -1  11    5.50    3.76
   6  -1  -9    9.47    3.74
  -6  -1   9   15.60    4.94
   6  -1  -7  490.57   13.72
  -6  -1   7  548.83   26.17
   6  -1  -7  509.52   13.91
   6  -1  -7  511.69   27.30
  -6  -1   5  297.31   18.32
   6  -1  -5  278.20   19.21
  -6  -1   3   28.35    5.96
   6  -1  -3   13.09    4.05
   6  -1  -1    5.57    2.78
   6  -1   1  361.79   23.01
   6  -1   1  361.65   23.62
   6  -1   3  242.90   20.28
   6  -1   3  235.71   20.60
   6  -1   5   15.80    5.90
   6  -1   7    5.77    4.37
   6  -1   9   10.41    5.24
   6  -1  11   56.91   13.88
  -6   0  14   54.10   10.78
  -6   0  12  221.28   20.81
  -6   0  10   94.42   13.06
  -6   0   8   46.08    7.97
   6   0  -8   50.37    8.62
  -6   0   6  642.54   28.35
   6   0  -6  666.63   17.48
   6   0  -6  650.40   28.89
   6   0  -4   35.43    6.41
  -6   0   4   34.67    6.26
   6   0  -4   35.35    5.24
   6   0  -2  200.06   15.83
  -6   0   2  211.62   16.26
   6   0  -2  198.20   14.64
   6   0   0  511.84   25.98
   6   0   0  507.55   26.10
   6   0   2   51.15    8.87
   6   0   2   52.19    9.00
   6   0   4  166.82   18.05
   6   0   4  156.09   16.98
   6   0   6    8.45    4.43
   6   0   8    3.31    2.89
   6   0  10   58.40   13.48
   6   0  12   62.92   15.15
  -6   1  15   49.80   11.59
  -6   1  13   36.49    8.87
  -6   1  11    3.28    2.79
  -6   1   9    6.18    3.72
  -6   1   7  518.18   26.88
   6   1  -7  528.29   25.83
  -6   1   5  249.20   17.61
   6   1  -5  312.50   13.86
   6   1  -5  309.49   19.08
   6   1  -3   24.62    5.31
  -6   1   3   13.54    4.24
   6   1  -3   22.99    4.50
   6   1  -1    8.87    3.11
  -6   1   1    2.82    2.10
   6   1  -1    6.64    2.79
   6   1   1  390.43   23.67
   6   1   1  374.85   23.85
   6   1   3  281.44   21.83
   6   1   3  265.81   21.75
   6   1   5   23.20    7.00
   6   1   7    3.39    3.47
   6   1   9   21.87    8.33
   6   1  11   62.92   14.67
  -6   2  16   31.19    9.53
  -6   2  14   67.94   13.58
  -6   2  12   27.88    7.83
  -6   2  10   10.63    4.43
  -6   2   8  162.84   16.21
   6   2  -8  142.15   13.49
  -6   2   6  193.51   16.45
   6   2  -6  177.47   14.29
   6   2  -6  164.97    7.68
   6   2  -4  118.85   11.74
  -6   2   4   93.41   11.00
   6   2  -4  112.96    9.42
  -6   2   2   14.56    4.36
   6   2  -2   13.48    3.94
   6   2  -2   10.47    3.44
   6   2   0  540.99   26.51
   6   2   0  558.75   27.64
  -6   2   0  520.24   26.72
   6   2   2  287.71   21.13
   6   2   2  285.48   21.75
   6   2   4  215.53   20.64
   6   2   6    6.82    4.11
   6   2   8   33.02    9.84
   6   2  10  101.80   17.99
   6   2  12   15.70    7.18
  -6   3  15   50.95   12.62
  -6   3  13   74.82   13.81
  -6   3  11   98.91   14.29
  -6   3   9   10.96    4.70
  -6   3   7  402.85   25.21
   6   3  -7  351.06   19.58
  -6   3   5   68.20    9.91
   6   3  -5   49.65    5.64
   6   3  -5   56.79    7.65
   6   3  -3  161.84   13.44
  -6   3   3  187.10   15.60
   6   3  -3  150.45   11.81
   6   3  -1   13.62    4.13
   6   3  -1   16.22    4.55
  -6   3   1   17.34    4.40
  -6   3  -1  366.84   23.69
   6   3   1  361.32   22.46
   6   3   1  390.47   24.79
   6   3   3   95.48   13.23
   6   3   3   88.06   12.73
   6   3   5   60.37   11.32
   6   3   7   23.23    7.76
   6   3   9   26.66    8.66
   6   3  11   41.21   11.48
  -6   4  16   14.23    6.93
  -6   4  14  106.04   17.51
  -6   4  12   70.83   13.27
  -6   4  10  169.32   17.60
  -6   4   8   48.26    9.36
   6   4  -8   45.90    6.67
  -6   4   6   97.62   12.51
   6   4  -6  110.05   10.54
   6   4  -4  411.78   20.71
  -6   4   4  399.44   23.92
   6   4  -4  403.18   18.82
   6   4  -2  243.23   16.51
  -6   4   2  233.35   18.00
   6   4  -2  254.48   17.28
   6   4   0  208.59   17.12
  -6   4   0  202.37   17.40
   6   4   0  189.62   16.35
   6   4   2  400.87   26.24
   6   4   2  409.85   26.02
   6   4   4  185.09   19.37
   6   4   6    2.50    2.33
   6   4   8   11.43    5.03
   6   4  10   33.95   10.61
  -6   5  15   31.21    9.91
  -6   5  13  158.65   21.22
  -6   5  11   26.18    7.58
  -6   5   9    5.32    3.90
  -6   5   7   64.14   10.62
   6   5  -7   44.99    6.31
   6   5  -5  376.10   17.57
  -6   5   5  314.57   22.09
   6   5  -5  327.68   16.80
   6   5  -3   86.70    9.49
  -6   5   3   65.19    9.84
   6   5  -3   94.91   10.11
   6   5  -1  205.41   16.38
  -6   5   1  282.81   20.29
   6   5  -1  214.78   16.28
  -6   5  -1  526.75   28.49
   6   5   1  527.06   28.37
   6   5   1  518.52   29.30
   6   5   3  473.50   30.50
   6   5   5    4.16    1.79
   6   5   7    0.86    2.36
   6   5   9  122.89   19.44
   6   5  11   90.82   17.32
  -6   6  14  170.34   23.28
  -6   6  12   24.36    8.13
  -6   6  10  141.33   17.37
  -6   6   8  267.29   22.95
  -6   6   6  211.24   19.18
   6   6  -6  171.68   11.80
   6   6  -4  157.54   12.90
   6   6  -4  152.15   12.01
  -6   6   4  173.98   16.69
   6   6  -2    2.12    1.53
   6   6  -2    2.84    2.34
  -6   6   2    4.07    2.83
  -6   6   0  576.36   29.95
   6   6   0  543.68   27.48
   6   6   0  548.11   29.76
  -6   6  -2  619.69   32.79
   6   6   2  603.36   33.37
   6   6   4  137.82   17.77
   6   6   6    8.76    4.39
   6   6   8   52.56   12.65
   6   6  10  100.86   18.29
  -6   7  13   73.40   14.76
  -6   7  11    7.10    4.13
  -6   7   9   26.61    7.74
  -6   7   7   62.34   11.55
   6   7  -7   60.47    6.12
   6   7  -5  280.46   16.76
  -6   7   5  340.23   24.27
   6   7  -5  273.61   14.57
   6   7  -3  291.20   19.81
  -6   7   3  263.95   20.52
   6   7  -3  273.92   16.66
   6   7  -1   13.60    4.20
   6   7  -1   15.36    5.22
  -6   7   1   25.37    6.13
  -6   7  -1  457.12   28.21
   6   7   1  429.84   28.21
   6   7   3   23.15    7.45
   6   7   5   51.93   11.64
   6   7   7    2.04    2.82
   6   7   9   42.36   11.69
  -6   8  14   15.99    7.41
  -6   8  12   22.08    7.63
  -6   8  10    5.15    4.19
  -6   8   8    3.88    3.17
  -6   8   6   65.63   11.23
   6   8  -6   56.85    5.59
   6   8  -4  336.07   21.13
   6   8  -4  340.80   17.55
  -6   8   4  312.88   23.40
   6   8  -2   27.22    5.86
   6   8  -2   33.21    7.30
  -6   8   2   15.58    5.39
  -6   8   0  367.11   24.74
   6   8   0  293.99   20.87
   6   8   0  292.91   22.64
   6   8   2    8.04    4.52
  -6   8  -2    6.74    3.58
   6   8   4  180.16   21.05
   6   8   6   59.24   12.93
   6   8   8   43.35   12.04
   6   8  10   61.72   14.63
  -6   9  13   44.26   12.08
  -6   9  11   -0.42    2.24
  -6   9   9   26.18    7.81
  -6   9   7  250.46   24.74
  -6   9   5  235.76   21.43
   6   9  -5  216.20   11.53
   6   9  -3  116.86   13.51
  -6   9   3   96.80   13.25
   6   9  -3  119.52   11.01
   6   9  -1  101.86   13.67
  -6   9   1  146.43   15.84
   6   9  -1   93.51   11.10
  -6   9  -1   75.05   11.72
   6   9   1   71.45   11.90
  -6   9  -3  368.01   27.78
   6   9   3  435.86   31.87
   6   9   5   30.00    8.96
   6   9   7   13.68    6.69
   6   9   9   12.52    6.81
  -6  10  12   21.02    8.10
  -6  10  10    3.90    2.89
  -6  10   8   17.49    6.17
  -6  10   6  215.17   21.39
  -6  10   4  116.89   15.18
   6  10  -4   90.01    8.60
  -6  10   2   12.22    4.06
   6  10  -2    7.87    4.06
   6  10  -2    9.35    3.74
   6  10   0   89.14   13.58
  -6  10   0  101.96   13.75
  -6  10  -2   34.44    8.17
   6  10   2   36.70    9.32
   6  10   4   57.22   12.08
   6  10   6    4.33    2.99
   6  10   8   30.10   10.18
  -6  11  11   35.43    9.95
  -6  11   9    9.52    5.43
  -6  11   7   30.77    8.75
  -6  11   5  193.64   20.54
   6  11  -5  137.17    7.05
   6  11  -3   20.15    4.56
  -6  11   3   28.34    7.73
   6  11  -1   88.33   13.57
  -6  11   1   92.91   13.31
   6  11  -1   97.42   11.85
   6  11   1   37.89    9.24
  -6  11  -1   56.97   10.85
   6  11   3  147.74   19.57
  -6  11  -3  137.91   17.95
   6  11   5   57.02   12.81
   6  11   7    5.42    3.98
  -6  12  10   25.61    8.48
  -6  12   8   63.14   12.91
  -6  12   6   75.62   13.41
  -6  12   4   23.51    7.02
   6  12  -4   32.03    4.74
   6  12  -2  160.57   18.04
  -6  12   2  153.11   17.68
   6  12  -2  142.09   12.99
  -6  12   0   22.42    6.68
   6  12   0   14.60    6.03
   6  12   2   96.94   15.78
  -6  12  -2  119.14   16.38
   6  12   4  152.81   21.16
   6  12   6    4.56    4.23
   6  12   8    0.45    3.23
  -6  13   9   38.92   11.16
  -6  13   7  182.14   21.97
  -6  13   5    6.36    4.48
  -6  13   3   11.87    5.24
  -6  13   1   59.35   11.30
   6  13  -1   30.67    8.50
   6  13   1   53.45   11.74
  -6  13  -1   63.44   11.91
   6  13   3  160.75   21.55
  -6  13  -3  148.56   19.13
   6  13   5    2.72    4.20
   6  13   7   21.59    9.12
  -6  14   8  107.85   19.39
  -6  14   6   44.55   10.85
  -6  14   4   95.33   15.31
  -6  14   2   41.39    9.79
   6  14   0   68.46   13.36
  -6  14   0   85.42   14.12
   6  14   2   69.43   14.43
  -6  14  -2   90.13   15.02
   6  14   4  121.78   20.06
   6  14   6    8.09    6.29
  -6  15   7   15.78    6.76
  -6  15   5   81.13   14.63
  -6  15   3   11.24    4.93
  -6  15   1   -3.26    2.05
  -6  15  -1   52.66   11.01
   6  15   1   29.33    9.28
   6  15   3   84.40   16.74
  -6  15  -3   77.43   14.40
   6  15   5   22.60    9.01
  -6  16   6   75.90   14.83
  -6  16   4   45.66   11.28
  -6  16   2    2.98    3.56
  -6  16   0  154.58   19.93
   6  16   2   69.30   14.38
  -6  16  -2   86.69   15.61
   6  16   4   22.22    8.99
  -6  17   5   33.77    9.77
  -6  17   3   12.88    6.19
  -6  17   1   18.57    6.54
  -6  17  -1  120.16   18.31
  -6  17  -3   34.40   10.27
  -6  18   4   59.67   13.22
  -6  18   2    4.70    4.15
  -6  18   0  103.12   16.45
  -6  18  -2   18.82    8.23
  -6  19   3   32.58    9.27
  -6  19   1    6.04    4.36
  -6  19  -1   26.78    8.38
  -7 -11   6   54.25    9.87
  -7 -11   4   26.91    7.22
  -7 -10   5  196.11   18.39
  -7 -10   3   75.50   12.34
   7  -9  -8   60.14   10.67
  -7  -9   6  196.37   16.69
  -7  -9   4   79.64   11.66
  -7  -9   2   46.79    9.34
   7  -8  -9    3.62    2.56
  -7  -8   7   -0.50    1.59
  -7  -8   5   48.61    8.36
  -7  -8   3  128.39   15.12
  -7  -8   1    2.06    1.45
   7  -8   9   -0.13    3.24
   7  -7  -8    1.11    1.78
  -7  -7   6   11.01    3.42
  -7  -7   4   76.29   10.53
  -7  -7   2   68.96   11.16
  -7  -7   0    1.18    1.87
   7  -7   8    3.26    3.87
  -7  -6   9   12.63    3.93
   7  -6  -9    7.88    3.73
  -7  -6   5  250.50   17.23
  -7  -6   3  104.79   12.48
  -7  -6   1   19.45    5.74
   7  -6   7    1.84    3.24
   7  -6   9   58.87   14.74
  -7  -5  10   14.40    4.02
   7  -5  -8    6.78    2.73
  -7  -5   8    0.36    1.51
  -7  -5   6   23.34    5.41
  -7  -5   2  237.71   19.36
  -7  -5   0   10.55    4.86
   7  -5   6  191.09   23.43
   7  -5   8    4.42    4.44
   7  -5  10   29.13   10.86
  -7  -4  11   46.67    8.24
   7  -4  -9    2.82    1.90
  -7  -4   9    1.89    1.95
  -7  -4   7   10.52    3.97
  -7  -4   5    5.30    3.06
   7  -4  -3  227.58   19.24
   7  -4  -1   88.95   12.25
   7  -4   5   13.61    6.25
   7  -4   7    8.09    5.52
   7  -4   9    2.55    3.50
  -7  -3  12  206.22   19.06
  -7  -3  10   67.87    9.95
   7  -3 -10   52.21    3.46
   7  -3  -8    2.05    1.40
  -7  -3   8    0.00    1.24
  -7  -3   6   73.82    9.81
   7  -3  -6   74.70   11.19
  -7  -3   4  370.64   22.26
   7  -3  -4  387.19   24.99
   7  -3  -2   43.19    8.28
   7  -3   0    3.46    2.46
   7  -3   4  321.84   27.51
   7  -3   6   26.19    7.92
   7  -3   8    2.98    2.06
   7  -3  10   14.30    6.72
  -7  -2  13   94.24   13.87
  -7  -2  11  163.24   16.69
  -7  -2   9   80.69   10.99
   7  -2  -7   14.20    5.52
  -7  -2   7   21.75    5.56
  -7  -2   5  779.29   32.18
   7  -2  -5  861.65   37.07
   7  -2  -3  372.59   24.52
  -7  -2   3  352.12   22.15
   7  -2  -1   73.98   10.87
   7  -2   1   11.23    4.70
   7  -2   1    9.43    4.22
   7  -2   3  541.42   33.97
   7  -2   5  279.01   25.91
   7  -2   7    1.14    1.85
   7  -2   9   -4.40    4.40
  -7  -1  14   30.59    8.33
  -7  -1  12  180.73   19.05
  -7  -1  10  147.59   15.81
   7  -1  -8   52.75    3.69
  -7  -1   8   39.23    7.68
   7  -1  -8   59.33   10.23
   7  -1  -8   52.00    3.72
  -7  -1   6  381.04   23.03
   7  -1  -6  392.31   17.62
   7  -1  -6  392.52   25.20
   7  -1  -4  189.44   16.79
  -7  -1   4  216.82   17.17
   7  -1  -4  190.98   14.62
   7  -1  -2  205.12   17.66
   7  -1  -2  198.36   16.59
  -7  -1   2  235.71   18.64
   7  -1   0   86.24   11.70
   7  -1   0   93.87   12.48
   7  -1   2  296.85   23.83
   7  -1   4  206.05   21.50
   7  -1   6  130.14   18.49
   7  -1   8    6.76    5.14
   7  -1  10    8.63    4.84
  -7   0  15    3.21    3.48
  -7   0  13   31.36    8.36
  -7   0  11  160.71   17.84
  -7   0   9  444.47   27.48
   7   0  -9  416.97   27.21
   7   0  -7    3.88    2.61
   7   0  -7    7.10    1.61
  -7   0   7    9.82    4.34
  -7   0   5  311.22   21.07
   7   0  -5  322.52   17.13
   7   0  -5  322.61   21.81
   7   0  -3   53.14    8.76
  -7   0   3   60.49    9.60
   7   0  -3   51.00    7.77
   7   0  -1  251.57   19.42
   7   0  -1  256.04   19.32
  -7   0   1  255.88   20.04
   7   0   1   59.50   10.35
   7   0   1   60.94   10.27
   7   0   3  270.12   23.64
   7   0   5  176.23   20.42
   7   0   7  106.48   17.04
   7   0   9    7.85    4.90
   7   0  11    9.50    5.66
  -7   1  14   55.40   12.17
  -7   1  12  167.21   19.24
  -7   1  10  122.60   15.52
   7   1  -8   38.86    7.72
  -7   1   8   68.33   10.75
  -7   1   6  373.84   23.79
   7   1  -6  391.62   15.81
   7   1  -6  403.06   24.53
   7   1  -4  230.77   18.65
  -7   1   4  193.63   16.91
   7   1  -4  223.82   15.10
   7   1  -2  246.46   18.92
  -7   1   2  204.05   17.58
   7   1  -2  244.27   17.90
   7   1   0  105.63   12.96
   7   1   0  110.48   13.36
   7   1   2  285.74   23.24
   7   1   4  219.81   21.93
   7   1   6  119.00   17.49
   7   1   8    2.75    2.44
   7   1  10   10.34    5.26
  -7   2  15    3.86    3.42
  -7   2  13  103.50   16.39
  -7   2  11  163.52   18.84
  -7   2   9   83.99   12.68
   7   2  -9   74.30   10.56
   7   2  -7   16.18    2.07
   7   2  -7   22.75    5.36
  -7   2   7   13.53    4.83
  -7   2   5  786.15   34.49
   7   2  -5  744.53   24.42
   7   2  -5  679.84   28.62
   7   2  -3  349.17   21.92
  -7   2   3  335.57   22.36
   7   2  -3  344.08   20.30
   7   2  -1   53.86    8.99
  -7   2   1   69.03   10.34
   7   2  -1   54.89    8.92
   7   2   1   14.27    5.24
   7   2   1   11.86    4.83
   7   2   3  464.38   31.14
   7   2   5  264.64   25.54
   7   2   7    0.67    2.70
   7   2   9   -0.44    2.34
  -7   3  16    7.38    5.31
  -7   3  14   16.98    7.02
  -7   3  12  211.11   23.44
  -7   3  10   80.82   12.90
  -7   3   8    5.65    3.72
   7   3  -8    0.03    1.31
  -7   3   6   68.77   10.67
   7   3  -6   83.53   10.53
   7   3  -6   70.34    6.75
   7   3  -4  364.19   22.11
  -7   3   4  381.19   24.22
   7   3  -4  381.18   19.94
   7   3  -2   30.92    6.30
   7   3  -2   28.03    6.56
  -7   3   2   44.05    8.23
   7   3   0    4.92    2.79
   7   3   0    4.08    2.14
  -7   3   0    7.81    3.65
   7   3   2   59.54   10.77
   7   3   4  292.45   26.08
   7   3   6   30.06    9.32
   7   3   8   -1.05    3.01
   7   3  10    4.12    3.80
  -7   4  15    1.44    2.33
  -7   4  13  126.31   18.59
  -7   4  11   38.19   10.37
   7   4  -9    0.83    2.02
  -7   4   9    4.02    3.41
  -7   4   7    3.96    3.22
   7   4  -7    6.81    2.57
   7   4  -5    4.19    2.14
  -7   4   5    4.60    3.28
   7   4  -5    1.98    1.78
   7   4  -3  228.13   17.41
  -7   4   3  213.59   18.55
   7   4  -3  238.32   17.39
   7   4  -1  106.01   12.74
  -7   4   1   95.93   12.98
   7   4  -1   96.14   11.86
   7   4   1    2.70    1.84
  -7   4  -1    4.92    3.35
   7   4   1    4.67    3.22
   7   4   3  146.52   17.78
   7   4   5   11.39    5.07
   7   4   7   10.30    5.85
   7   4   9    1.24    4.10
  -7   5  14   75.69   15.11
  -7   5  12   13.73    5.91
  -7   5  10    8.48    4.76
  -7   5   8    9.26    4.39
   7   5  -8    2.15    1.87
  -7   5   6   39.16    8.36
   7   5  -6   25.98    5.68
   7   5  -6   20.39    4.13
   7   5  -4   93.73   10.85
  -7   5   4   98.08   12.89
   7   5  -4   95.64   10.46
   7   5  -2  226.23   17.68
  -7   5   2  187.93   17.81
   7   5  -2  229.97   18.13
  -7   5   0   22.42    6.24
   7   5   0    9.89    4.48
   7   5   0   14.00    5.02
   7   5   2  341.68   26.18
   7   5   4    3.16    3.10
   7   5   6  181.60   22.38
   7   5   8   -5.29    4.37
   7   5  10   37.94   11.82
  -7   6  13   66.41   13.95
  -7   6  11   77.62   14.18
  -7   6   9    7.51    3.87
  -7   6   7   60.03   11.04
   7   6  -7   54.63    7.62
   7   6  -5  272.10   18.39
   7   6  -5  268.32   17.01
  -7   6   5  284.47   22.76
   7   6  -3  113.23   12.09
  -7   6   3  127.47   14.89
   7   6  -3  110.54   12.46
   7   6  -1   27.46    6.70
   7   6  -1   22.83    5.96
  -7   6   1   15.74    5.37
   7   6   1  197.39   18.83
  -7   6  -1  230.10   20.78
   7   6   1  206.48   20.10
   7   6   3  146.55   18.37
   7   6   5  190.22   22.48
   7   6   7    7.46    5.28
   7   6   9   52.28   13.08
  -7   7  14   26.23    9.43
  -7   7  12  121.17   18.88
  -7   7  10   30.05    8.79
   7   7  -8    0.69    1.38
  -7   7   8    0.79    1.92
  -7   7   6    4.91    3.15
   7   7  -6   10.60    3.39
   7   7  -4   77.44   10.23
   7   7  -4   63.71    8.71
  -7   7   4   87.12   12.71
  -7   7   2   91.36   12.87
   7   7  -2   69.27   10.04
   7   7  -2   68.06   10.57
   7   7   0    3.81    3.02
   7   7   0    3.05    3.25
  -7   7   0   -0.81    1.67
   7   7   2    2.35    1.77
  -7   7  -2    8.63    3.87
   7   7   4   55.04   12.17
   7   7   6   12.47    7.04
   7   7   8    4.79    5.35
  -7   8  13   49.88   12.68
  -7   8  11   88.96   16.04
  -7   8   9   -0.29    1.95
  -7   8   7    3.25    2.91
   7   8  -7    0.38    0.99
   7   8  -5   62.90    8.75
   7   8  -5   58.32    8.77
  -7   8   5   57.51   10.82
   7   8  -3  150.17   15.63
  -7   8   3  135.19   15.99
   7   8  -3  131.79   12.95
  -7   8   1    2.11    2.46
   7   8  -1    1.67    2.60
   7   8  -1    4.79    3.39
   7   8   1    8.21    4.20
  -7   8  -1    1.85    2.16
   7   8   1    3.65    3.20
   7   8   3   58.82   12.02
   7   8   5  221.25   24.91
   7   8   7   29.75   10.51
   7   8   9    0.59    3.77
  -7   9  12   86.69   16.75
  -7   9  10   63.87   13.67
  -7   9   8   72.52   13.27
  -7   9   6  225.30   22.22
   7   9  -6  189.61   12.43
   7   9  -4   87.30   12.02
   7   9  -4   87.92   10.11
  -7   9   4   85.93   13.05
   7   9  -2   46.57    9.57
   7   9  -2   45.75    8.06
  -7   9   2   35.82    8.37
  -7   9   0   70.18   12.07
   7   9   0   69.70   11.27
   7   9   0   79.04   12.92
  -7   9  -2  188.15   20.61
   7   9   2  176.28   20.59
   7   9   4  202.14   23.59
   7   9   6  140.24   20.99
   7   9   8    4.18    4.85
  -7  10  11  121.31   19.36
  -7  10   9   16.80    6.73
  -7  10   7  176.49   20.71
   7  10  -5  236.95   15.38
  -7  10   5  237.19   23.26
   7  10  -3   78.48   11.95
  -7  10   3  105.24   14.89
   7  10  -3   82.62   10.26
   7  10  -1   86.03   13.48
  -7  10   1  107.20   15.22
   7  10  -1   86.32   11.93
  -7  10  -1   70.35   12.83
   7  10   1   59.61   12.09
  -7  10  -3   61.26   12.61
   7  10   3   57.81   12.33
   7  10   5  108.00   18.07
   7  10   7   17.95    7.83
  -7  11  10  106.65   19.30
  -7  11   8    0.43    2.09
  -7  11   6   62.54   12.31
   7  11  -4   25.31    5.36
  -7  11   4   26.53    7.92
   7  11  -2  193.44   20.37
  -7  11   2  235.08   22.46
   7  11  -2  190.16   16.95
  -7  11   0   41.86    9.76
   7  11   0   43.40   10.12
   7  11   0   42.91    8.92
   7  11   2   52.76   12.21
  -7  11  -2   71.93   13.01
   7  11   4   77.44   15.20
   7  11   6   67.78   14.59
  -7  12   9    0.04    2.12
  -7  12   7    7.13    4.48
  -7  12   5   51.21   11.41
   7  12  -3   98.81   14.36
  -7  12   3  128.93   17.23
   7  12  -1  125.00   17.44
  -7  12   1  120.61   16.85
   7  12  -1  112.85   13.87
   7  12   1    3.60    3.62
  -7  12  -1    5.65    4.99
   7  12   3   95.76   16.98
  -7  12  -3   79.85   14.96
   7  12   5  146.11   21.86
  -7  13   8    9.75    6.03
  -7  13   6   67.56   13.37
  -7  13   4  242.92   24.54
   7  13  -2   39.38    9.54
  -7  13   2   39.95    9.65
  -7  13   0    2.27    2.11
   7  13   0    1.41    3.16
   7  13   2  241.54   26.67
  -7  13  -2  244.33   24.88
   7  13   4  104.76   18.21
  -7  14   7   24.97    7.97
  -7  14   5   55.74   12.41
  -7  14   3  123.72   17.84
   7  14  -1   56.02   12.02
  -7  14   1   58.09   12.35
   7  14   1   11.85    5.83
  -7  14  -1   19.59    7.26
   7  14   3   85.17   16.94
  -7  14  -3   90.61   16.86
  -7  15   6   18.01    7.32
  -7  15   4   37.79   10.21
  -7  15   2   70.75   13.61
  -7  15   0    8.85    5.70
   7  15   0    6.33    4.23
  -7  15  -2   43.09   11.14
   7  15   2   21.12    8.18
  -7  16   5   54.42   12.87
  -7  16   3   30.26    9.40
  -7  16   1    1.54    1.89
   7  16   1   41.74   11.60
  -7  16  -1   69.00   14.52
  -7  16  -3   19.78    8.05
  -7  17   4   66.08   14.00
  -7  17   2   24.70    8.26
  -7  17   0    2.04    4.07
  -7  17  -2   25.22    9.13
  -7  18   1    6.83    4.78
  -7  18  -1   -0.67    2.84
  -8 -10   4  100.06   14.49
  -8  -9   5   60.62   10.40
  -8  -9   3   68.57   12.04
   8  -8  -8   48.39    9.43
  -8  -8   6    6.16    2.78
  -8  -8   4   61.34   10.72
  -8  -7   3   12.48    5.02
   8  -7   7   55.74   14.16
  -8  -6  10  137.81   14.23
   8  -6   6  135.59   21.06
   8  -6   8   27.89   10.41
  -8  -5  11   69.68   10.40
  -8  -5   9   70.48   10.69
  -8  -5   7    1.91    1.29
   8  -5   5  190.78   23.93
   8  -5   7  141.75   21.86
  -8  -4  10   93.81   12.15
  -8  -4   8   92.26   12.35
  -8  -4   6   91.45   11.93
   8  -4   4   -0.81    2.87
   8  -4   6   28.09    9.18
   8  -4   8   13.08    6.14
  -8  -3  11   60.09   10.23
   8  -3  -9  164.79   10.64
  -8  -3   9  177.96   17.30
  -8  -3   7    5.77    1.94
  -8  -3   5   76.28   10.99
   8  -3   1   66.23   11.96
   8  -3   3   25.33    7.91
   8  -3   5   60.53   12.64
   8  -3   7  156.09   22.34
   8  -3   9    2.57    3.33
  -8  -2  12  111.51   15.17
  -8  -2  10  130.46   15.23
  -8  -2   8   57.01    9.73
   8  -2  -8   37.53    5.14
  -8  -2   6  103.69   12.87
   8  -2  -6  132.23   12.31
  -8  -2   4  142.15   15.27
   8  -2  -2  270.23   21.34
   8  -2   0  126.61   15.91
   8  -2   2   19.12    6.51
   8  -2   4  383.90   31.28
   8  -2   6   60.01   13.28
   8  -2   8  124.50   20.43
  -8  -1  13    0.00    2.00
  -8  -1  11  268.96   23.30
  -8  -1   9  121.78   14.66
  -8  -1   7  129.38   14.96
   8  -1  -7  142.60   10.89
   8  -1  -5   23.44    5.23
  -8  -1   5   27.53    6.69
   8  -1  -3  175.87   16.09
  -8  -1   3  169.98   16.97
   8  -1  -1  219.97   19.67
   8  -1   1   15.74    5.54
   8  -1   3   63.90   12.50
   8  -1   5  259.88   26.82
   8  -1   7   25.93    9.06
   8  -1   9   -3.15    3.04
  -8   0  14   -0.64    2.52
  -8   0  12   30.96    8.16
  -8   0  10  265.25   23.04
   8   0  -8   14.47    2.15
  -8   0   8   16.27    5.67
  -8   0   6    3.02    2.50
   8   0  -6    1.88    1.75
   8   0  -6    2.57    2.70
   8   0  -4  262.33   22.41
  -8   0   4  250.96   21.29
   8   0  -4  232.83   17.68
   8   0  -2  180.37   18.09
   8   0  -2  180.75   17.03
  -8   0   2  178.50   17.80
   8   0   0   95.65   13.51
   8   0   2   22.38    7.16
   8   0   4  125.39   17.45
   8   0   6  199.87   23.88
   8   0   8    4.37    4.42
  -8   1  15   -4.54    4.81
  -8   1  13   10.35    4.84
  -8   1  11  286.85   25.20
  -8   1   9  113.88   15.02
  -8   1   7  130.57   15.20
   8   1  -7  133.61   15.32
   8   1  -7  127.69    9.07
  -8   1   5   24.43    6.28
   8   1  -5   22.72    5.09
   8   1  -5   24.83    6.11
   8   1  -3  162.36   16.69
  -8   1   3  165.41   17.18
   8   1  -3  155.58   14.88
   8   1  -1  235.80   20.02
  -8   1   1  215.45   20.10
   8   1   1   31.64    7.70
   8   1   3   55.41   11.34
   8   1   5  248.33   25.77
   8   1   7   33.48   10.66
   8   1   9   -2.94    3.01
  -8   2  14   13.40    6.69
  -8   2  12  123.88   17.52
  -8   2  10  127.13   16.59
   8   2 -10  113.15   14.47
  -8   2   8   38.04    8.38
   8   2  -8   56.29    9.80
  -8   2   6  122.04   14.71
   8   2  -6  107.19    9.89
   8   2  -6  104.34   13.22
   8   2  -4  136.08   14.98
  -8   2   4  146.46   15.91
   8   2  -4  145.92   13.62
   8   2  -2  262.32   21.12
  -8   2   2  254.70   21.10
   8   2  -2  272.71   20.95
   8   2   0  116.70   14.89
   8   2   2   12.99    5.34
   8   2   4  389.47   31.71
   8   2   6   50.33   11.67
   8   2   8  131.56   20.91
  -8   3  15    1.42    3.41
  -8   3  13   17.71    6.78
  -8   3  11   51.33   11.28
  -8   3   9  171.42   19.44
   8   3  -9  163.60   16.56
   8   3  -7    5.38    3.12
  -8   3   7   20.44    6.54
   8   3  -7    7.22    2.04
   8   3  -5   70.46   10.51
  -8   3   5   41.94    8.90
   8   3  -5   80.01    9.35
   8   3  -3  221.32   19.24
  -8   3   3  232.16   20.61
   8   3  -3  217.89   17.62
   8   3  -1  135.70   15.49
  -8   3   1  162.58   17.48
   8   3  -1  145.04   16.02
   8   3   1   54.57   10.75
   8   3   3   18.39    6.48
   8   3   5   52.22   11.97
   8   3   7  135.51   20.80
   8   3   9    8.03    5.39
  -8   4  14    2.41    2.73
  -8   4  12   17.21    6.95
  -8   4  10   86.11   14.48
  -8   4   8   71.61   12.42
   8   4  -8   83.74   11.49
  -8   4   6   75.09   12.03
   8   4  -6   91.34   11.75
   8   4  -6   82.65    8.71
   8   4  -4   85.64   11.51
  -8   4   4   91.43   13.08
   8   4  -4   88.92   10.81
   8   4  -2   29.28    6.91
   8   4  -2   30.47    7.19
  -8   4   2   29.45    7.33
  -8   4   0   36.37    8.51
   8   4   0   42.46    8.98
   8   4   2   21.70    6.94
   8   4   4   -0.23    1.66
   8   4   6   12.87    6.31
   8   4   8   17.67    7.86
  -8   5  13   23.24    8.75
  -8   5  11   87.75   15.35
  -8   5   9   66.95   12.43
   8   5  -9   61.73    9.46
  -8   5   7    7.63    4.18
   8   5  -7    2.61    1.67
   8   5  -5    1.57    1.19
  -8   5   5    0.96    1.96
   8   5  -5   -4.60    4.20
   8   5  -3  455.48   27.17
  -8   5   3  478.16   30.47
   8   5  -3  462.07   26.80
   8   5  -1   63.26   11.01
  -8   5   1   60.44   11.41
   8   5  -1   56.11   10.15
   8   5   1   12.17    5.13
  -8   5  -1    2.29    1.77
   8   5   3   27.40    8.48
   8   5   5  187.04   22.76
   8   5   7  146.32   22.07
  -8   6  14   -1.83    4.97
  -8   6  12   44.56   10.91
  -8   6  10  177.01   21.46
  -8   6   8  214.04   22.19
   8   6  -8  165.45   14.61
  -8   6   6    2.00    2.18
   8   6  -6    6.91    2.96
   8   6  -6    1.80    1.58
   8   6  -4  238.00   19.14
  -8   6   4  250.49   22.41
   8   6  -4  255.97   19.10
   8   6  -2  214.51   18.95
  -8   6   2  220.98   20.90
   8   6  -2  211.00   19.26
   8   6   0   11.84    4.89
  -8   6   0   10.61    4.81
   8   6   2   45.67   10.59
   8   6   4  118.46   18.05
   8   6   6  127.56   20.15
   8   6   8   25.04    9.53
  -8   7  13   12.50    6.95
  -8   7  11   53.94   12.50
  -8   7   9  124.70   17.90
  -8   7   7   44.71   10.44
   8   7  -7   39.59    6.81
   8   7  -5   23.88    5.76
  -8   7   5   26.19    7.36
   8   7  -5   24.88    5.87
   8   7  -3   11.37    4.27
   8   7  -3   13.64    4.47
  -8   7   3   14.14    5.54
   8   7  -1   49.15    9.52
  -8   7   1   59.17   11.12
   8   7  -1   51.58   10.41
  -8   7  -1   88.81   14.47
   8   7   1   90.48   14.66
   8   7   3   -1.31    3.32
   8   7   5    5.34    4.43
   8   7   7   53.83   13.73
  -8   8  12   32.94   10.39
  -8   8  10   36.77   10.16
  -8   8   8   64.37   12.65
  -8   8   6   27.49    7.85
   8   8  -6   10.05    3.51
   8   8  -4   59.04    9.96
   8   8  -4   63.72    9.89
  -8   8   4   65.22   11.86
  -8   8   2    6.35    3.75
   8   8  -2    3.00    2.01
   8   8  -2    3.61    1.51
  -8   8   0  208.74   22.00
   8   8   0  212.37   21.81
   8   8   2    5.90    4.37
  -8   8  -2    3.10    1.73
   8   8   4   39.86   10.89
   8   8   6   56.95   10.11
  -8   9  11   92.08   16.47
  -8   9   9   99.82   16.61
  -8   9   7   19.51    7.36
   8   9  -5   68.16    9.41
   8   9  -5   81.97   11.82
  -8   9   5   90.64   14.42
   8   9  -3   73.05   11.82
   8   9  -3   71.76   10.52
  -8   9   3   79.08   13.29
   8   9  -1   64.04   11.07
  -8   9   1   75.98   12.92
   8   9  -1   67.58   11.87
  -8   9  -1   58.41   11.94
   8   9   1   85.60   14.77
   8   9   3   55.64   12.50
   8   9   5  149.15   22.08
   8   9   7   72.84   16.10
  -8  10  10  172.34   23.34
  -8  10   8   19.26    6.93
  -8  10   6   25.76    8.42
   8  10  -4  117.54   15.22
  -8  10   4  124.02   16.94
   8  10  -2  162.68   18.80
   8  10  -2  153.09   16.48
  -8  10   2  190.50   21.19
   8  10   0   44.14   10.50
  -8  10   0   62.22   12.67
  -8  10  -2    2.95    3.10
   8  10   2   -0.70    3.00
   8  10   4  143.46   21.21
   8  10   6   90.39   17.95
  -8  11   9   38.47   10.53
  -8  11   7    0.38    1.98
  -8  11   5    8.06    4.66
   8  11  -3   17.73    6.03
  -8  11   3   19.74    7.30
   8  11  -1   42.15    9.97
  -8  11   1   63.75   12.28
   8  11   1   10.37    5.56
  -8  11  -1    7.04    4.54
   8  11   3   34.69   10.64
   8  11   5   40.66   11.40
  -8  12   8    4.74    3.72
  -8  12   6   37.84   10.17
  -8  12   4   23.60    7.38
  -8  12   2   61.01   12.72
   8  12  -2   51.74   11.17
   8  12   0   79.46   14.80
  -8  12   0   80.89   14.91
   8  12   2   -0.25    2.19
  -8  12  -2   -0.82    3.73
   8  12   4   47.23   12.82
  -8  13   7    4.12    4.13
  -8  13   5   74.61   14.40
   8  13  -3  170.59   20.40
  -8  13   3  197.32   22.70
   8  13  -1  102.61   16.83
  -8  13   1  117.66   17.76
  -8  13  -1    1.05    2.81
   8  13   1    6.23    4.59
   8  13   3   84.85   17.00
  -8  14   6    2.21    3.22
  -8  14   4   60.06   12.59
  -8  14   2   66.77   13.74
   8  14  -2   50.26   11.53
   8  14   0   33.04   10.53
  -8  14   0   17.53    7.37
  -8  14  -2   19.20    7.83
   8  14   2   10.39    5.79
  -8  15   5    6.96    4.46
  -8  15   3   51.66   12.16
  -8  15   1   33.43    9.85
   8  15  -1   29.93    9.52
  -8  15  -1   13.61    6.64
   8  15   1    9.65    6.55
  -8  16   2   76.96   15.47
   8  16   0    6.60    6.13
  -8  16   0    3.46    4.22
  -8  16  -2    5.77    5.67
  -8  17  -1   13.56    7.02
   9  -7   6   57.16   14.97
   9  -6   5   41.51   12.07
  -9  -5  10   56.20   10.19
  -9  -5   8  159.89   17.31
   9  -5   4   -1.40    2.62
   9  -5   6   99.84   18.61
  -9  -4  11    6.49    4.40
  -9  -4   9  105.71   14.39
  -9  -4   7  261.79   21.93
   9  -4   1   22.33    7.95
   9  -4   3   58.77   12.95
   9  -4   5    2.48    3.22
   9  -4   7   21.71    9.85
  -9  -3  10   59.42   10.78
  -9  -3   8  255.11   22.65
   9  -3  -8  217.75   15.77
  -9  -3   6    7.72    4.04
   9  -3  -2  231.74   21.67
   9  -3   0   49.13   10.65
   9  -3   2   29.28    8.61
   9  -3   4   31.10    9.29
   9  -3   6  136.49   21.13
  -9  -2  11   41.71    9.83
  -9  -2   9  247.30   22.23
   9  -2  -7   26.96    5.58
  -9  -2   7   32.10    8.19
  -9  -2   5   37.58    8.42
   9  -2  -5   47.63    8.60
   9  -2  -3   31.60    7.55
   9  -2  -1  294.41   24.79
   9  -2   1   96.95   15.11
   9  -2   3    2.20    3.37
   9  -2   5    2.63    3.85
   9  -2   7  150.28   22.95
  -9  -1  12    3.06    1.80
  -9  -1  10   62.78   11.65
  -9  -1   8   64.22   11.40
   9  -1  -8   69.08    7.30
   9  -1  -6   22.71    5.30
  -9  -1   6   27.79    8.04
  -9  -1   4   40.40    9.07
   9  -1  -4   43.92    8.35
   9  -1  -2   76.72   12.02
   9  -1   0  170.77   19.33
   9  -1   2   15.67    6.45
   9  -1   4    6.64    4.24
   9  -1   6   31.77    9.95
  -9   0  13    5.01    3.47
  -9   0  11   16.78    6.38
  -9   0   9   41.17    8.91
  -9   0   7   47.66    9.71
   9   0  -7   46.17    6.72
  -9   0   5   70.91   12.13
   9   0  -5   80.43   10.58
   9   0  -3    5.32    3.78
  -9   0   3    1.18    2.07
   9   0  -1   31.45    8.09
   9   0   1   44.37    9.97
   9   0   3    4.83    4.29
   9   0   5   53.69   12.91
   9   0   7    4.76    2.87
  -9   1  14   32.80    9.75
  -9   1  12   -3.17    3.46
  -9   1  10   65.20   12.22
  -9   1   8   72.96   12.45
   9   1  -8   58.00    5.24
  -9   1   6   21.59    6.77
   9   1  -6   28.61    5.78
  -9   1   4   50.47   10.41
   9   1  -4   52.55    8.80
   9   1  -2   66.02   11.16
  -9   1   2   70.35   12.16
   9   1   0  178.46   19.56
   9   1   2   30.07    8.18
   9   1   4    6.13    4.57
   9   1   6   26.08    8.75
  -9   2  15   21.53    8.60
  -9   2  13   -1.63    2.07
  -9   2  11   37.51    9.56
  -9   2   9  253.08   24.09
   9   2  -7   28.72    5.14
  -9   2   7   28.43    7.89
  -9   2   5   44.88    9.53
   9   2  -5   39.69    7.22
   9   2  -3   40.38    8.32
  -9   2   3   30.55    7.71
   9   2  -1  294.47   24.66
  -9   2   1  298.58   25.63
   9   2   1   99.97   15.41
   9   2   3    2.94    3.23
   9   2   5    4.81    4.30
   9   2   7  175.81   24.88
  -9   3  14    7.98    5.90
  -9   3  12   -3.48    3.67
  -9   3  10   45.40   10.60
  -9   3   8  214.82   21.92
   9   3  -8  224.76   20.61
   9   3  -6    5.34    2.53
   9   3  -6    4.08    3.04
  -9   3   6    8.52    4.39
   9   3  -4    1.07    1.48
  -9   3   4    3.34    3.47
  -9   3   2  226.89   21.84
   9   3  -2  245.31   21.39
   9   3   0   46.70   10.16
   9   3   2   26.18    8.13
   9   3   4   28.62    9.13
   9   3   6  158.14   24.24
  -9   4  13    1.68    2.52
  -9   4  11   -0.02    2.36
  -9   4   9  118.64   16.76
   9   4  -7  252.36   15.24
  -9   4   7  259.96   24.17
   9   4  -7  270.17   22.75
  -9   4   5    0.77    1.56
   9   4  -5    3.97    3.02
   9   4  -5   -0.28    2.15
   9   4  -3   -0.43    1.69
  -9   4   3   -0.22    2.14
  -9   4   1   35.08    8.79
   9   4  -1   36.54    8.61
   9   4   1   24.31    7.24
   9   4   3   64.83   13.21
   9   4   5    0.55    3.46
   9   4   7   13.57    6.26
  -9   5  12   13.44    6.58
  -9   5  10   73.73   14.08
  -9   5   8  182.96   20.81
   9   5  -6   48.92    9.03
  -9   5   6   45.19   10.02
   9   5  -6   57.91    8.45
   9   5  -4  219.76   20.33
  -9   5   4  292.31   25.24
   9   5  -4  238.69   19.72
  -9   5   2  180.07   20.45
   9   5  -2  157.76   17.77
  -9   5   0   74.75   13.54
   9   5   0   79.58   13.53
   9   5   2  153.93   19.99
   9   5   4   -0.68    2.61
   9   5   6   97.72   18.52
  -9   6  13    0.96    3.14
  -9   6  11   35.98   10.25
  -9   6   9  145.09   19.74
   9   6  -7  356.55   19.58
  -9   6   7  361.01   29.60
   9   6  -5    0.05    1.27
   9   6  -5    3.46    2.46
  -9   6   5    0.32    2.66
  -9   6   3  217.83   22.18
   9   6  -3  236.21   21.15
  -9   6   1  121.90   16.61
   9   6  -1  134.79   17.15
   9   6   1  156.31   19.98
   9   6   3   47.93   11.77
   9   6   5   30.28    9.82
  -9   7  12    5.57    4.40
  -9   7  10   33.77    9.89
  -9   7   8  113.89   17.16
   9   7  -6   63.65    9.62
  -9   7   6   71.76   13.08
  -9   7   4    8.89    4.59
   9   7  -4    5.64    3.62
   9   7  -4    7.61    3.73
  -9   7   2  171.63   20.26
   9   7  -2  172.64   18.94
  -9   7   0   27.58    8.44
   9   7   0   20.68    7.30
   9   7   2   40.55   10.82
   9   7   4    2.60    3.54
   9   7   6   41.98   11.88
  -9   8  11    9.24    5.53
  -9   8   9   95.29   16.56
  -9   8   7   31.29    9.13
   9   8  -5    2.23    3.17
  -9   8   5    7.23    4.30
  -9   8   3   15.18    6.29
   9   8  -3    7.38    4.42
   9   8  -3    5.46    3.12
  -9   8   1  111.84   17.12
   9   8  -1  103.41   15.60
   9   8   1   32.50    9.76
  -9   8  -1   23.31    7.71
   9   8   3   28.60    9.46
   9   8   5    9.58    7.13
  -9   9  10   82.11   16.08
  -9   9   8   82.35   15.45
  -9   9   6   51.25   11.60
   9   9  -4   10.11    4.93
  -9   9   4   20.56    7.21
  -9   9   2   76.29   13.82
   9   9  -2   55.51   11.29
  -9   9   0  180.90   21.57
   9   9   0  179.95   21.62
   9   9   2   17.87    7.57
   9   9   4    9.16    5.55
  -9  10   9   34.15    9.97
  -9  10   7   69.97   13.81
   9  10  -5    1.10    2.95
  -9  10   5    2.44    2.38
  -9  10   3   22.66    7.57
   9  10  -3   12.11    5.42
   9  10  -1   93.49   15.40
  -9  10   1  115.80   17.99
  -9  10  -1  106.14   17.51
   9  10   1   92.57   16.27
   9  10   3    0.29    3.92
   9  10   5   42.37   12.46
  -9  11   8   28.48    9.63
  -9  11   6    0.84    2.89
   9  11  -4    1.12    1.50
  -9  11   4    0.93    2.45
  -9  11   2   31.68    9.01
   9  11  -2   30.30    8.68
  -9  11   0   18.24    7.01
   9  11   0   10.30    5.50
  -9  11  -2   22.93    8.68
   9  11   2   27.38    9.28
   9  11   4   19.43    8.58
  -9  12   7    8.39    4.92
  -9  12   5    2.81    3.86
  -9  12   3   11.72    5.97
   9  12  -3    6.60    5.11
   9  12  -1   22.07    8.13
  -9  12   1   25.92    8.70
  -9  12  -1    8.94    5.26
   9  12   1   10.96    5.78
   9  12   3    7.97    4.52
  -9  13   6    9.04    4.68
  -9  13   4   22.86    8.57
  -9  13   2   59.00   13.13
   9  13  -2   38.02   11.03
   9  13   0   86.56   16.70
  -9  13   0   92.22   17.09
  -9  13  -2    3.63    2.77
   9  13   2   12.96    6.75
  -9  14   3   16.67    7.63
   9  14  -1   74.68   15.47
  -9  14   1   83.27   16.05
   9  14   1   23.27    9.03
  -9  14  -1   17.01    8.03
   9  15   0   -4.05    4.97
  10  -6   4   24.15    9.57
  10  -5   1   89.02   16.18
  10  -5   3   58.42   13.76
  10  -5   5    7.02    6.02
 -10  -4  10   13.82    5.96
 -10  -4   8   13.53    6.24
  10  -4  -2    1.59    2.48
  10  -4   0   79.78   14.68
  10  -4   2   45.31   11.89
  10  -4   4   15.54    7.12
 -10  -3  11   -2.69    2.45
 -10  -3   9   32.91    8.82
  10  -3  -7   99.58   12.35
 -10  -3   7  104.21   15.24
  10  -3  -5  106.41   14.21
  10  -3  -3   53.00   10.77
  10  -3  -1   15.51    6.45
  10  -3   1   48.08   11.57
  10  -3   3   71.22   14.80
  10  -3   5    5.00    4.00
 -10  -2  10    3.27    2.60
 -10  -2   8  145.80   18.57
  10  -2  -6  267.06   20.85
 -10  -2   6  249.42   23.81
  10  -2  -4   31.64    8.09
  10  -2  -2    8.77    4.10
  10  -2   0  119.56   17.34
  10  -2   2  126.86   19.19
  10  -2   4   33.12   10.95
  10  -2   6    3.64    4.45
 -10  -1  11    6.06    4.42
 -10  -1   9    1.65    2.97
 -10  -1   7   91.48   14.86
  10  -1  -7  116.43   12.29
  10  -1  -5  213.07   19.25
 -10  -1   5  186.96   20.72
  10  -1  -3    3.49    2.46
  10  -1  -1   67.99   12.60
  10  -1   1   91.62   15.57
  10  -1   3    9.20    5.65
  10  -1   5   21.19    8.24
 -10   0  12   11.99    6.25
 -10   0  10    5.56    4.28
 -10   0   8   20.77    6.97
 -10   0   6  124.77   17.17
  10   0  -6  142.81   14.67
  10   0  -4    1.21    1.90
 -10   0   4   -4.62    4.32
  10   0  -2    1.91    2.55
  10   0   0  121.89   17.32
  10   0   2   -3.58    4.40
  10   0   4   11.82    6.25
  10   0   6   36.26   11.40
 -10   1  13   60.65   13.30
 -10   1  11    3.24    3.56
 -10   1   9   13.78    6.21
 -10   1   7  111.52   16.27
  10   1  -7   93.93   10.49
 -10   1   5  193.78   21.25
  10   1  -5  201.91   18.33
  10   1  -3    6.19    3.37
 -10   1   3    5.87    2.98
  10   1  -1   50.17   10.63
  10   1   1   81.95   14.86
  10   1   3    9.32    5.77
  10   1   5   17.46    8.00
 -10   2  14   68.37   14.57
 -10   2  12    2.52    3.23
 -10   2  10    3.26    3.54
 -10   2   8  156.23   20.16
 -10   2   6  267.64   25.43
  10   2  -6  252.43   19.02
  10   2  -4   35.13    7.93
 -10   2   4   27.08    7.71
  10   2  -2   11.68    5.51
 -10   2   2    8.38    3.94
  10   2   0  124.32   17.69
  10   2   2  114.68   17.93
  10   2   4   39.49   11.08
  10   2   6    2.96    2.12
 -10   3  13   19.94    8.02
 -10   3  11   -2.40    2.82
 -10   3   9   19.39    7.36
 -10   3   7   95.85   15.39
 -10   3   5  110.87   16.44
  10   3  -5  103.57   13.01
 -10   3   3   59.90   12.22
  10   3  -3   49.53    9.76
  10   3  -1   18.98    6.98
  10   3   1   42.72   10.29
  10   3   3   72.79   14.85
  10   3   5    3.24    3.97
 -10   4  12   20.56    8.26
 -10   4  10   11.96    6.30
 -10   4   8   17.39    6.37
 -10   4   6   30.70    8.82
  10   4  -6   30.58    6.64
  10   4  -4    2.90    1.77
 -10   4   4    5.57    4.41
 -10   4   2    4.96    4.47
  10   4  -2    4.32    3.05
  10   4   0   60.10   12.24
  10   4   2   30.74    9.33
  10   4   4   16.58    7.44
 -10   5  11    3.17    3.63
 -10   5   9   66.50   13.55
 -10   5   7  302.34   28.03
 -10   5   5    6.34    4.27
  10   5  -5    9.74    4.13
 -10   5   3   21.00    7.51
  10   5  -3   12.03    5.28
 -10   5   1   65.76   13.20
  10   5  -1   68.89   13.08
  10   5   1   62.27   13.17
  10   5   3   70.98   15.00
  10   5   5    1.00    1.90
 -10   6  10    5.05    4.92
 -10   6   8  132.94   19.12
  10   6  -6  112.14   13.47
 -10   6   6  110.90   17.41
  10   6  -4    0.42    1.97
 -10   6   4    0.05    3.04
  10   6  -2    4.06    3.52
 -10   6   2    8.52    4.59
 -10   6   0  146.53   20.44
  10   6   0  136.06   18.61
  10   6   2  126.37   19.58
  10   6   4   24.71    9.42
 -10   7  11    5.69    4.20
 -10   7   9    3.51    3.62
 -10   7   7   56.84   12.75
  10   7  -5   86.01   12.82
 -10   7   5  101.83   16.48
  10   7  -3    0.35    2.87
 -10   7   3    9.28    5.44
  10   7  -1    2.81    3.83
 -10   7   1   -0.63    3.30
  10   7   1  103.73   17.61
  10   7   3   11.08    6.50
 -10   8  10   10.25    5.67
 -10   8   8   31.03    9.64
 -10   8   6   51.81   12.00
 -10   8   4    0.83    3.40
  10   8  -4    2.27    3.45
 -10   8   2   35.20    9.84
  10   8  -2   21.58    7.44
 -10   8   0   28.92    9.37
  10   8   0   38.17   10.63
  10   8   2   15.46    7.29
  10   8   4   14.24    6.95
 -10   9   7   83.17   15.70
  10   9  -5   87.37   13.62
 -10   9   5  103.27   17.70
  10   9  -3    9.56    4.72
 -10   9   3    4.43    1.67
 -10   9   1  134.72   20.23
  10   9  -1  116.01   17.61
 -10   9  -1   63.38   13.93
  10   9   1   58.96   13.39
  10   9   3   43.79   12.09
 -10  10   6   61.61   13.60
  10  10  -4   81.68   14.05
 -10  10   4   83.17   15.37
  10  10  -2   -1.96    3.29
 -10  10   2   10.63    6.87
 -10  10   0   93.83   17.28
  10  10   0   76.16   15.03
  10  10   2   26.55    9.19
 -10  11   5   51.99   12.55
 -10  11   3    0.85    2.19
  10  11  -3   -5.04    4.97
 -10  11   1    0.88    2.60
  10  11  -1    5.57    4.97
  10  11   1   57.82   13.88
 -10  11  -1   68.40   15.26
  10  12  -4    7.20    4.10
  10  12  -2   -5.82    4.66
 -10  12   2    6.19    4.44
  10  12   0   14.18    7.09
 -10  12   0    8.88    5.22
  10  13  -3   -0.23    3.36
  10  13  -1   11.25    5.83
  10  14  -2   15.75    6.38
  11  -7   2   36.54   11.56
  11  -6   1   49.40   13.16
  11  -6   3   44.80   13.06
  11  -5  -6   81.38   13.81
  11  -5  -4   81.29   14.13
  11  -5  -2    9.46    4.91
  11  -5   0    1.28    4.16
  11  -5   2   91.48   17.56
 -11  -4   9    1.39    3.19
  11  -4  -5   14.93    5.71
  11  -4  -3   45.38   10.54
  11  -4  -1    3.33    3.98
  11  -4   1   30.97    9.66
  11  -4   3   63.18   15.02
 -11  -3  10    2.04    2.48
 -11  -3   8    7.29    4.90
  11  -3  -6   73.17   11.87
  11  -3  -4   62.28   12.03
  11  -3  -2   -5.83    4.41
  11  -3   0   -2.89    3.39
  11  -3   2   45.34   12.15
  11  -3   4   28.62   10.35
 -11  -2  11   97.15   17.21
 -11  -2   9    1.10    2.02
 -11  -2   7    7.66    4.46
  11  -2  -5  279.52   24.41
  11  -2  -3  116.10   16.67
  11  -2  -1   -1.90    3.05
  11  -2   1  139.47   21.11
  11  -2   3   59.15   14.04
 -11  -1  10    1.17    2.37
 -11  -1   8   16.72    6.81
 -11  -1   6   53.73   11.88
  11  -1  -6   76.46   11.65
  11  -1  -4  190.18   20.32
  11  -1  -2   -3.36    2.08
  11  -1   0   32.13    9.79
  11  -1   2   87.81   16.50
  11  -1   4   34.21   10.95
 -11   0  11   10.04    5.57
 -11   0   9    4.23    4.24
 -11   0   7   42.87   10.90
  11   0  -5  166.13   18.28
 -11   0   5  152.80   20.12
  11   0  -3  114.91   16.36
  11   0  -1   27.19    8.39
  11   0   1   -0.19    4.71
  11   0   3    8.62    5.41
 -11   1  12   32.53   10.23
 -11   1  10   -0.48    3.21
 -11   1   8   15.72    6.64
 -11   1   6   62.25   12.56
  11   1  -6   56.78    9.78
  11   1  -4  156.24   18.49
 -11   1   4  161.77   21.01
  11   1  -2   -1.50    1.78
  11   1   0   30.33    9.17
  11   1   2   76.92   15.80
  11   1   4   43.85   12.28
 -11   2  13   43.98   12.56
 -11   2  11   92.36   16.66
 -11   2   9    0.55    1.89
 -11   2   7   21.14    7.76
 -11   2   5  238.71   25.24
  11   2  -5  239.64   20.91
  11   2  -3  130.08   17.08
 -11   2   3  114.72   18.27
  11   2  -1   -4.84    4.53
  11   2   1  153.25   21.61
  11   2   3   53.57   13.56
 -11   3  12    2.76    5.13
 -11   3  10    0.27    4.29
 -11   3   8    4.67    4.67
 -11   3   6   78.34   15.08
 -11   3   4   52.82   12.23
  11   3  -4   70.55   12.26
  11   3  -2    3.68    3.35
  11   3   0    6.31    4.93
  11   3   2   48.01   12.51
  11   3   4   28.39   10.15
 -11   4  11    5.39    5.30
 -11   4   9    0.67    3.07
 -11   4   7   10.99    6.19
  11   4  -5    9.40    4.16
 -11   4   5   14.19    6.71
 -11   4   3   40.73   10.69
  11   4  -3   43.51   10.14
  11   4  -1    2.19    3.83
  11   4   1   25.47    8.75
  11   4   3   54.78   13.36
 -11   5  10   21.65    8.48
 -11   5   8    7.48    5.77
 -11   5   6   65.61   13.62
 -11   5   4   77.61   14.94
  11   5  -4   57.16   11.27
 -11   5   2    9.20    4.71
  11   5  -2    7.46    5.46
  11   5   0   -1.33    2.02
  11   5   2   81.73   16.68
 -11   6   9    2.28    2.46
 -11   6   7   16.89    7.50
 -11   6   5   63.60   13.74
  11   6  -3   39.24    9.98
 -11   6   3   21.17    7.74
 -11   6   1    0.15    3.44
  11   6  -1    8.09    5.48
  11   6   1   40.58   10.97
  11   6   3   49.93   13.29
 -11   7   8   13.02    6.60
 -11   7   6   24.07    9.00
  11   7  -4   12.71    5.68
 -11   7   4   16.04    7.91
  11   7  -2   26.65    8.82
 -11   7   2   33.58   10.55
  11   7   0    5.03    4.39
  11   7   2   30.54   10.06
 -11   8   7   36.63   11.68
 -11   8   5   47.93   12.01
 -11   8   3    4.06    4.48
  11   8  -3   11.55    5.75
  11   8  -1   -1.02    3.66
 -11   8   1   11.44    6.76
  11   8   1    0.84    3.51
  11   9  -4   90.06   15.02
 -11   9   4   81.88   16.40
  11   9  -2   -1.92    2.03
 -11   9   2    2.13    2.88
  11   9   0    0.21    2.82
  11   9   2   61.56   14.60
  11  10  -3   75.68   15.03
  11  10  -1   -0.47    2.10
  11  10   1   11.23    6.08
  11  11  -2    4.64    4.51
  11  11   0   52.51   14.01
  11  12  -1    6.37    5.38
  11  13  -2    9.97    6.77
  12  -7  -1   33.74   10.91
  12  -6  -4   79.73   15.39
  12  -6  -2   93.75   17.57
  12  -6   0    1.48    2.62
  12  -5  -5   13.17    5.73
  12  -5  -3  119.49   19.05
  12  -5  -1   83.95   16.80
  12  -5   1   -1.52    4.26
  12  -4  -4   32.51    9.38
  12  -4  -2   30.27    9.95
  12  -4   0   -5.85    2.96
  12  -3  -5   28.59    8.60
  12  -3  -3   50.45   12.75
  12  -3  -1   18.94    7.73
  12  -3   1    2.62    3.51
 -12  -2   8   24.13    8.88
  12  -2  -4   67.80   13.21
  12  -2  -2  132.64   19.83
  12  -2   0    5.85    3.38
  12  -2   2   -5.32    4.73
 -12  -1   9    2.90    3.00
 -12  -1   7   -1.54    3.08
  12  -1  -5   21.69    7.05
  12  -1  -3   75.16   14.13
  12  -1  -1   12.94    6.58
  12  -1   1    2.44    2.95
 -12   0  10    3.30    3.07
 -12   0   8   -1.37    3.43
 -12   0   6    8.50    5.25
  12   0  -4   43.33   10.31
  12   0  -2    4.41    4.68
  12   0   0   -3.35    3.73
  12   0   2   -0.88    3.39
 -12   1  11   17.73    8.67
 -12   1   9    0.67    3.15
 -12   1   7   -3.70    3.57
 -12   1   5   27.01    9.35
  12   1  -3   71.41   13.54
  12   1  -1   11.92    6.20
  12   1   1    0.17    2.64
 -12   2  10    9.53    5.98
 -12   2   8   17.96    8.04
 -12   2   6   26.32    9.24
  12   2  -4   66.51   12.60
 -12   2   4   71.76   15.00
  12   2  -2  147.29   20.13
  12   2   0    4.15    4.14
  12   2   2    4.63    3.80
 -12   3   9   10.76    6.30
 -12   3   7   -0.14    3.90
 -12   3   5   23.27    8.73
  12   3  -3   48.58   11.47
  12   3  -1   24.80    8.92
  12   3   1    0.66    3.31
 -12   4   8    2.63    3.12
 -12   4   6    4.25    4.84
  12   4  -4   23.83    7.78
 -12   4   4   38.39   11.07
  12   4  -2   29.25    9.39
  12   4   0   -1.24    3.62
  12   4   2   25.28    9.30
 -12   5   5    9.95    4.53
 -12   5   3  114.31   19.75
  12   5  -3  102.55   17.01
  12   5  -1   76.46   15.08
  12   5   1   -0.19    2.53
  12   6  -2   80.33   15.10
  12   6   0    9.58    6.72
  12   7  -3   19.17    7.33
  12   7  -1   27.81    9.82
  12   7   1   -0.70    2.23
  12   8  -2   23.42    8.83
  12   8   0    1.05    4.46
  12   9  -1   20.51    7.69
  12  10  -2   63.52   14.78
  13  -6  -3   33.74   10.89
  13  -5  -2   35.92   11.05
  13  -4  -3   37.48   11.52
  13  -4  -1   43.39   12.61
  13  -3  -2   62.62   14.76
  13  -2  -3   11.69    6.24
  13  -2  -1   62.10   14.66
  13  -1  -2   18.92    7.86
  13  -1   0   34.74   11.07
 -13   0   7   -5.29    4.24
  13   0  -3   -0.30    3.76
  13   0  -1    6.55    5.57
  13   1  -2   22.18    8.13
  13   1   0   38.17   11.59
  13   2  -1   49.52   12.57
  13   3  -2   60.03   13.89
  13   3   0   19.65    8.31
  13   4  -1   30.63   10.38
  13   5  -2   24.31    9.01
  13   6  -1   66.13   15.31
   0   0   0    0.00    0.00


TITL pvl1195_autored in I2
REM I2 (#5 in standard setting)
CELL 0.71073  10.099159  16.367674  12.779607  90.0000 102.6027  90.0000
ZERR   23.00   0.001211   0.002116   0.001560   0.0000   0.0135   0.0000
LATT -2
SYMM -x, y,-z
SFAC C H N O S Zn
UNIT 23.00 23.00 23.00 23.00 23.00 23.00
REM  CrysAlisPro recorded range (K): Min=150.0; max=150.0; aver:150.0
TEMP -123
TREF
HKLF 4
END
_computing_structure_solution     'SHELXT 2018/2 (Sheldrick, 2018)'
;
_shelx_hkl_checksum   74817

