 
data_pvl922_a
 
_audit_creation_method            'SHELXL-2018/3'
_shelx_SHELXL_version_number      '2018/3'
_chemical_name_systematic         ?
_chemical_name_common             ?
_chemical_melting_point           ?
_chemical_formula_moiety          ?
_chemical_formula_sum
 'C H N O S0 Zn' 
_chemical_formula_weight          108.40

loop_
 _atom_type_symbol
 _atom_type_description
 _atom_type_scat_dispersion_real
 _atom_type_scat_dispersion_imag
 _atom_type_scat_source
 'C'  'C'   0.0033   0.0016
 'International Tables Vol C Tables 4.2.6.8 and 6.1.1.4'
 'H'  'H'   0.0000   0.0000
 'International Tables Vol C Tables 4.2.6.8 and 6.1.1.4'
 'N'  'N'   0.0061   0.0033
 'International Tables Vol C Tables 4.2.6.8 and 6.1.1.4'
 'O'  'O'   0.0106   0.0060
 'International Tables Vol C Tables 4.2.6.8 and 6.1.1.4'
 'Zn'  'Zn'   0.2839   1.4301
 'International Tables Vol C Tables 4.2.6.8 and 6.1.1.4'
 'S'  'S'   0.1246   0.1234
 'International Tables Vol C Tables 4.2.6.8 and 6.1.1.4'
 
_space_group_crystal_system       triclinic
_space_group_IT_number            2
_space_group_name_H-M_alt         'P -1'
_space_group_name_Hall            '-P 1'
 
_shelx_space_group_comment
;
The symmetry employed for this shelxl refinement is uniquely defined
by the following loop, which should always be used as a source of
symmetry information in preference to the above space-group names.
They are only intended as comments.
;
 
loop_
 _space_group_symop_operation_xyz
 'x, y, z'
 '-x, -y, -z'
 
_cell_length_a                    9.489(2)
_cell_length_b                    13.149(3)
_cell_length_c                    14.011(3)
_cell_angle_alpha                 69.396(7)
_cell_angle_beta                  85.795(8)
_cell_angle_gamma                 71.299(8)
_cell_volume                      1548.4(6)
_cell_formula_units_Z             19
_cell_measurement_temperature     150(2)
_cell_measurement_reflns_used     ?
_cell_measurement_theta_min       ?
_cell_measurement_theta_max       ?
 
_exptl_crystal_description        ?
_exptl_crystal_colour             ?
_exptl_crystal_density_meas       ?
_exptl_crystal_density_method     ?
_exptl_crystal_density_diffrn     2.209          
_exptl_crystal_F_000              988
_exptl_transmission_factor_min    ?
_exptl_transmission_factor_max    ?
_exptl_crystal_size_max           ?
_exptl_crystal_size_mid           ?
_exptl_crystal_size_min           ?
_exptl_absorpt_coefficient_mu     7.270
_shelx_estimated_absorpt_T_min    ?
_shelx_estimated_absorpt_T_max    ?
_exptl_absorpt_correction_type    ?
_exptl_absorpt_correction_T_min   ?
_exptl_absorpt_correction_T_max   ?
_exptl_absorpt_process_details    ?
_exptl_absorpt_special_details    ?
_diffrn_ambient_temperature       150(2)
_diffrn_radiation_wavelength      0.71073
_diffrn_radiation_type            MoK\a
_diffrn_source                    ?
_diffrn_measurement_device_type   ?
_diffrn_measurement_method        ?
_diffrn_detector_area_resol_mean  ?
_diffrn_reflns_number             13218
_diffrn_reflns_av_unetI/netI      0.0566
_diffrn_reflns_av_R_equivalents   0.0596
_diffrn_reflns_limit_h_min        -9
_diffrn_reflns_limit_h_max        9
_diffrn_reflns_limit_k_min        -13
_diffrn_reflns_limit_k_max        13
_diffrn_reflns_limit_l_min        -14
_diffrn_reflns_limit_l_max        14
_diffrn_reflns_theta_min          1.554
_diffrn_reflns_theta_max          22.009
_diffrn_reflns_theta_full         22.009
_diffrn_measured_fraction_theta_max   0.997
_diffrn_measured_fraction_theta_full  0.997
_diffrn_reflns_Laue_measured_fraction_max    0.997
_diffrn_reflns_Laue_measured_fraction_full   0.997
_diffrn_reflns_point_group_measured_fraction_max   0.997
_diffrn_reflns_point_group_measured_fraction_full  0.997
_reflns_number_total              3781
_reflns_number_gt                 2926
_reflns_threshold_expression      'I > 2\s(I)'
_reflns_Friedel_coverage          0.000
_reflns_Friedel_fraction_max      .
_reflns_Friedel_fraction_full     .
 
_reflns_special_details
;
 Reflections were merged by SHELXL according to the crystal
 class for the calculation of statistics and refinement.
 
 _reflns_Friedel_fraction is defined as the number of unique
 Friedel pairs measured divided by the number that would be
 possible theoretically, ignoring centric projections and
 systematic absences.
;
 
_computing_data_collection        ?
_computing_cell_refinement        ?
_computing_data_reduction         ?
_computing_structure_solution     'SHELXT 2018/2 (Sheldrick, 2018)'
_computing_structure_refinement 'SHELXL-2018/3 (Sheldrick, 2018)'
_computing_molecular_graphics     ?
_computing_publication_material   ?
_refine_special_details           ?
_refine_ls_structure_factor_coef  Fsqd
_refine_ls_matrix_type            full
_refine_ls_weighting_scheme       calc
_refine_ls_weighting_details
'w=1/[\s^2^(Fo^2^)+(0.1595P)^2^+4.5465P] where P=(Fo^2^+2Fc^2^)/3'
_atom_sites_solution_primary      ?
_atom_sites_solution_secondary    ?
_atom_sites_solution_hydrogens    geom
_refine_ls_hydrogen_treatment     mixed
_refine_ls_extinction_method      none
_refine_ls_extinction_coef        .
_refine_ls_number_reflns          3781
_refine_ls_number_parameters      463
_refine_ls_number_restraints      0
_refine_ls_R_factor_all           0.0919
_refine_ls_R_factor_gt            0.0721
_refine_ls_wR_factor_ref          0.2407
_refine_ls_wR_factor_gt           0.2172
_refine_ls_goodness_of_fit_ref    1.070
_refine_ls_restrained_S_all       1.070
_refine_ls_shift/su_max           5.281
_refine_ls_shift/su_mean          0.022
 
loop_
 _atom_site_label
 _atom_site_type_symbol
 _atom_site_fract_x
 _atom_site_fract_y
 _atom_site_fract_z
 _atom_site_U_iso_or_equiv
 _atom_site_adp_type
 _atom_site_occupancy
 _atom_site_site_symmetry_order  
 _atom_site_calc_flag
 _atom_site_refinement_flags_posn
 _atom_site_refinement_flags_adp
 _atom_site_refinement_flags_occupancy
 _atom_site_disorder_assembly
 _atom_site_disorder_group
Zn1 Zn 0.20564(12) 0.47099(8) 0.46716(7) 0.0410(4) Uani 1 1 d . . . . .
S1 S 0.8127(2) 0.53155(17) 0.90567(15) 0.0296(6) Uani 1 1 d . . . . .
S2 S -0.0883(2) 0.77607(17) -0.03131(15) 0.0314(6) Uani 1 1 d . . . . .
O1 O 1.0613(7) 0.3872(5) 1.4678(4) 0.0407(15) Uani 1 1 d . . . . .
O2 O 0.4115(7) 0.3745(6) 0.4362(5) 0.0498(17) Uani 1 1 d . . . . .
H2 H 0.3970(17) 0.323(9) 0.399(8) 0.075 Uiso 1 1 calc R U . . .
O004 O 0.2391(6) 0.4104(4) 0.6157(4) 0.0333(13) Uani 1 1 d . . . . .
O005 O 0.3868(6) 0.5188(5) 0.5881(4) 0.0368(14) Uani 1 1 d . . . . .
N007 N 0.8137(7) 0.3228(5) 1.2411(5) 0.0263(15) Uani 1 1 d . . . . .
N8 N -0.0023(7) 0.7517(5) 0.0737(5) 0.0311(16) Uani 1 1 d . . . . .
N008 N 0.4805(7) 0.3494(5) 0.9053(5) 0.0234(15) Uani 1 1 d . . . . .
O009 O 1.1164(7) 0.4580(5) 1.3060(5) 0.0455(16) Uani 1 1 d . . . . .
N00B N 0.1951(7) 0.7626(5) 0.2230(5) 0.0280(15) Uani 1 1 d . . . . .
N00C N -0.0179(7) 0.8671(5) -0.1112(5) 0.0291(15) Uani 1 1 d . . . . .
N00E N 0.8168(8) 0.2380(5) 1.3348(5) 0.0328(16) Uani 1 1 d . . . . .
N00F N 0.8325(7) 0.4711(5) 1.0283(5) 0.0273(15) Uani 1 1 d . . . . .
N00G N 0.6928(7) 0.4795(5) 0.8823(5) 0.0271(15) Uani 1 1 d . . . . .
N2 N 0.3959(7) 0.2778(5) 0.9221(5) 0.0308(16) Uani 1 1 d . . . . .
N3 N 0.2052(7) 0.6261(5) 0.3686(5) 0.0300(16) Uani 1 1 d . . . . .
N4 N 0.2743(7) 0.7841(5) 0.2890(5) 0.0336(17) Uani 1 1 d . . . . .
N5 N 0.1527(7) 1.0273(5) -0.2002(5) 0.0281(15) Uani 1 1 d . . . . .
N6 N 0.1102(9) 1.1003(6) -0.3659(5) 0.0434(19) Uani 1 1 d . . . . .
N7 N 0.1882(8) 1.1265(5) -0.2313(5) 0.0349(17) Uani 1 1 d . . . . .
C00N C 0.0780(8) 0.8840(6) -0.0568(6) 0.0231(17) Uani 1 1 d . . . . .
C00O C 0.0868(8) 0.8180(6) 0.0494(6) 0.0255(18) Uani 1 1 d . . . . .
C00P C 0.1822(9) 0.8292(6) 0.1159(6) 0.0270(18) Uani 1 1 d . . . . .
C00Q C 0.1637(8) 0.9601(6) -0.0955(6) 0.0271(18) Uani 1 1 d . . . . .
C00R C 0.7443(8) 0.4049(6) 1.0572(6) 0.0237(17) Uani 1 1 d . . . . .
C00S C 0.2610(8) 0.9036(6) 0.0769(6) 0.0271(18) Uani 1 1 d . . . . .
H00S H 0.323596 0.912319 0.121366 0.033 Uiso 1 1 calc R U . . .
C00T C 0.6609(8) 0.4115(6) 0.9723(5) 0.0223(17) Uani 1 1 d . . . . .
C00U C 0.3331(8) 0.4446(6) 0.6455(6) 0.0282(19) Uani 1 1 d . . . . .
C00V C 0.3799(9) 0.3903(6) 0.7557(6) 0.0291(19) Uani 1 1 d . . . . .
C00W C 0.7282(8) 0.3313(6) 1.1577(5) 0.0237(17) Uani 1 1 d . . . . .
C00X C 0.8964(8) 0.3864(6) 1.2442(6) 0.0255(18) Uani 1 1 d . . . . .
H00X H 0.911750 0.448189 1.188543 0.031 Uiso 1 1 calc R U . . .
C00Y C 0.9015(9) 0.2561(7) 1.3941(6) 0.0307(19) Uani 1 1 d . . . . .
H00Y H 0.923503 0.212210 1.464542 0.037 Uiso 1 1 calc R U . . .
C00Z C 0.5610(8) 0.3460(6) 0.9878(6) 0.0241(18) Uani 1 1 d . . . . .
C010 C 0.5472(8) 0.2792(6) 1.0870(6) 0.0260(18) Uani 1 1 d . . . . .
H010 H 0.480425 0.235805 1.099823 0.031 Uiso 1 1 calc R U . . .
C011 C 0.4722(8) 0.4171(6) 0.8060(6) 0.0269(18) Uani 1 1 d . . . . .
H011 H 0.521566 0.472788 0.776901 0.032 Uiso 1 1 calc R U . . .
C012 C 0.2519(9) 0.9679(6) -0.0277(6) 0.0304(19) Uani 1 1 d . . . . .
H012 H 0.309186 1.018666 -0.052058 0.036 Uiso 1 1 calc R U . . .
C013 C 0.9550(9) 0.3481(6) 1.3406(6) 0.0278(18) Uani 1 1 d . . . . .
C014 C 0.3366(9) 0.3041(7) 0.8304(6) 0.0304(19) Uani 1 1 d . . . . .
H014 H 0.271683 0.268268 0.816932 0.036 Uiso 1 1 calc R U . . .
C015 C 0.1594(10) 1.1667(7) -0.3299(6) 0.037(2) Uani 1 1 d . . . . .
H015 H 0.171961 1.237022 -0.373032 0.044 Uiso 1 1 calc R U . . .
C016 C 0.6302(9) 0.2734(6) 1.1707(6) 0.0281(18) Uani 1 1 d . . . . .
H016 H 0.615741 0.227169 1.237659 0.034 Uiso 1 1 calc R U . . .
C017 C 0.1071(11) 1.0145(7) -0.2829(6) 0.042(2) Uani 1 1 d . . . . .
H017 H 0.076934 0.951638 -0.281352 0.051 Uiso 1 1 calc R U . . .
C018 C 0.1569(9) 0.6682(7) 0.2726(6) 0.0316(19) Uani 1 1 d . . . . .
H018 H 0.103020 0.636383 0.242748 0.038 Uiso 1 1 calc R U . . .
C019 C 0.2758(9) 0.6991(6) 0.3752(6) 0.034(2) Uani 1 1 d . . . . .
H019 H 0.322370 0.689690 0.436825 0.041 Uiso 1 1 calc R U . . .
C01A C 1.0495(9) 0.4012(7) 1.3736(6) 0.032(2) Uani 1 1 d . . . . .
O01B O 0.4210(11) 0.1996(8) 0.3684(10) 0.131(5) Uani 1 1 d . . . . .
N1 N 0.3316(12) 0.0418(10) 0.3713(10) 0.107(4) Uani 1 1 d . . . . .
C01D C 0.2443(14) -0.0224(10) 0.4372(9) 0.077(4) Uani 1 1 d . . . . .
H01A H 0.169948 -0.028524 0.396298 0.116 Uiso 1 1 calc R U . . .
H01B H 0.193829 0.016429 0.484304 0.116 Uiso 1 1 calc R U . . .
H01C H 0.309243 -0.099251 0.476196 0.116 Uiso 1 1 calc R U . . .
C01E C 0.3425(18) 0.1422(12) 0.4031(12) 0.094(4) Uani 1 1 d . . . . .
H01D H 0.240069 0.196473 0.394175 0.113 Uiso 1 1 calc R U . . .
H01E H 0.366646 0.108717 0.477461 0.113 Uiso 1 1 calc R U . . .
C01F C 0.424(5) 0.012(5) 0.299(3) 0.45(4) Uani 1 1 d . . . . .
H01F H 0.434646 -0.058298 0.289688 0.538 Uiso 1 1 calc R U . . .
H01G H 0.477374 0.060721 0.259319 0.538 Uiso 1 1 calc R U . . .
 
loop_
 _atom_site_aniso_label
 _atom_site_aniso_U_11
 _atom_site_aniso_U_22
 _atom_site_aniso_U_33
 _atom_site_aniso_U_23
 _atom_site_aniso_U_13
 _atom_site_aniso_U_12
Zn1 0.0595(8) 0.0442(7) 0.0295(7) -0.0007(5) -0.0094(5) -0.0406(6)
S1 0.0374(12) 0.0318(11) 0.0280(11) -0.0094(9) 0.0002(9) -0.0228(10)
S2 0.0373(12) 0.0294(11) 0.0330(12) -0.0094(9) -0.0004(9) -0.0191(9)
O1 0.055(4) 0.051(4) 0.027(3) -0.012(3) -0.008(3) -0.033(3)
O2 0.052(4) 0.068(4) 0.044(4) -0.018(3) 0.003(3) -0.040(3)
O004 0.038(3) 0.035(3) 0.035(3) -0.008(3) -0.007(3) -0.025(3)
O005 0.047(4) 0.040(3) 0.031(3) -0.005(3) -0.001(3) -0.031(3)
N007 0.036(4) 0.025(3) 0.021(4) -0.007(3) -0.001(3) -0.014(3)
N8 0.032(4) 0.029(4) 0.033(4) -0.009(3) -0.002(3) -0.012(3)
N008 0.027(3) 0.025(3) 0.029(4) -0.014(3) 0.000(3) -0.015(3)
O009 0.060(4) 0.052(4) 0.039(4) -0.010(3) 0.000(3) -0.042(3)
N00B 0.038(4) 0.028(4) 0.026(4) -0.012(3) 0.004(3) -0.017(3)
N00C 0.032(4) 0.024(3) 0.038(4) -0.015(3) 0.003(3) -0.014(3)
N00E 0.048(4) 0.030(4) 0.028(4) -0.008(3) 0.003(3) -0.024(3)
N00F 0.033(4) 0.031(4) 0.027(4) -0.011(3) 0.004(3) -0.021(3)
N00G 0.031(4) 0.025(3) 0.033(4) -0.013(3) 0.003(3) -0.018(3)
N2 0.035(4) 0.030(4) 0.036(4) -0.011(3) -0.001(3) -0.021(3)
N3 0.037(4) 0.033(4) 0.025(4) -0.007(3) -0.003(3) -0.020(3)
N4 0.044(4) 0.032(4) 0.035(4) -0.012(3) -0.003(3) -0.023(3)
N5 0.037(4) 0.025(4) 0.028(4) -0.009(3) 0.000(3) -0.019(3)
N6 0.068(5) 0.037(4) 0.029(4) -0.005(4) -0.003(4) -0.030(4)
N7 0.048(4) 0.025(4) 0.036(5) -0.008(3) -0.001(3) -0.021(3)
C00N 0.025(4) 0.019(4) 0.031(4) -0.013(4) 0.004(3) -0.009(3)
C00O 0.027(4) 0.019(4) 0.032(5) -0.008(3) 0.002(3) -0.010(3)
C00P 0.034(5) 0.021(4) 0.027(4) -0.010(3) -0.001(3) -0.008(4)
C00Q 0.028(4) 0.019(4) 0.033(5) -0.010(4) 0.002(3) -0.004(3)
C00R 0.022(4) 0.023(4) 0.035(5) -0.015(4) 0.004(3) -0.015(3)
C00S 0.034(5) 0.023(4) 0.029(5) -0.010(4) 0.003(3) -0.014(4)
C00T 0.023(4) 0.021(4) 0.027(4) -0.009(3) -0.001(3) -0.010(3)
C00U 0.029(4) 0.027(4) 0.034(5) -0.014(4) 0.003(4) -0.012(4)
C00V 0.032(5) 0.026(4) 0.038(5) -0.014(4) -0.002(4) -0.016(4)
C00W 0.032(4) 0.026(4) 0.021(4) -0.012(3) 0.003(3) -0.015(4)
C00X 0.033(4) 0.025(4) 0.029(5) -0.012(4) 0.003(3) -0.021(4)
C00Y 0.040(5) 0.032(5) 0.028(4) -0.008(4) -0.005(4) -0.023(4)
C00Z 0.022(4) 0.024(4) 0.031(5) -0.012(4) -0.001(3) -0.010(3)
C010 0.030(4) 0.021(4) 0.036(5) -0.013(4) 0.005(4) -0.016(3)
C011 0.027(4) 0.024(4) 0.031(5) -0.011(4) 0.005(3) -0.009(3)
C012 0.040(5) 0.019(4) 0.035(5) -0.009(4) 0.001(4) -0.014(4)
C013 0.033(5) 0.027(4) 0.028(5) -0.008(4) 0.001(4) -0.016(4)
C014 0.035(5) 0.035(5) 0.033(5) -0.016(4) -0.004(4) -0.020(4)
C015 0.054(6) 0.030(5) 0.030(5) -0.006(4) 0.001(4) -0.022(4)
C016 0.038(5) 0.029(4) 0.021(4) -0.010(3) -0.002(3) -0.014(4)
C017 0.067(6) 0.027(5) 0.036(5) -0.008(4) -0.004(4) -0.021(4)
C018 0.035(5) 0.032(5) 0.036(5) -0.011(4) 0.003(4) -0.023(4)
C019 0.048(5) 0.028(5) 0.030(5) -0.011(4) -0.002(4) -0.016(4)
C01A 0.033(5) 0.030(4) 0.039(5) -0.011(4) -0.005(4) -0.015(4)
O01B 0.098(8) 0.084(7) 0.229(14) -0.033(8) 0.032(8) -0.081(6)
N1 0.078(8) 0.084(8) 0.121(10) 0.007(7) 0.042(7) -0.031(6)
C01D 0.107(10) 0.077(8) 0.085(9) -0.040(7) 0.041(7) -0.073(8)
C01E 0.121(12) 0.069(9) 0.109(11) -0.042(8) -0.010(9) -0.036(9)
C01F 0.44(6) 0.73(10) 0.45(6) -0.40(7) 0.40(6) -0.40(7)
 
_geom_special_details
;
 All esds (except the esd in the dihedral angle between two l.s. planes)
 are estimated using the full covariance matrix.  The cell esds are taken
 into account individually in the estimation of esds in distances, angles
 and torsion angles; correlations between esds in cell parameters are only
 used when they are defined by crystal symmetry.  An approximate (isotropic)
 treatment of cell esds is used for estimating esds involving l.s. planes.
;
 
loop_
 _geom_bond_atom_site_label_1
 _geom_bond_atom_site_label_2
 _geom_bond_distance
 _geom_bond_site_symmetry_2
 _geom_bond_publ_flag
Zn1 O004 1.958(5) . ?
Zn1 O1 2.012(5) 1_454 ?
Zn1 N3 2.020(6) . ?
Zn1 O2 2.071(7) . ?
Zn1 C01A 2.600(8) 1_454 ?
S1 N00G 1.607(6) . ?
S1 N00F 1.616(6) . ?
S2 N00C 1.610(7) . ?
S2 N8 1.616(7) . ?
O1 C01A 1.275(10) . ?
O004 C00U 1.270(9) . ?
O005 C00U 1.251(9) . ?
N007 C00X 1.331(10) . ?
N007 N00E 1.386(9) . ?
N007 C00W 1.422(10) . ?
N8 C00O 1.345(10) . ?
N008 C011 1.354(10) . ?
N008 N2 1.374(9) . ?
N008 C00Z 1.412(9) . ?
O009 C01A 1.255(10) . ?
N00B C018 1.341(10) . ?
N00B N4 1.386(9) . ?
N00B C00P 1.438(10) . ?
N00C C00N 1.346(10) . ?
N00E C00Y 1.324(10) . ?
N00F C00R 1.339(9) . ?
N00G C00T 1.344(10) . ?
N2 C014 1.326(10) . ?
N3 C018 1.315(10) . ?
N3 C019 1.365(10) . ?
N4 C019 1.322(10) . ?
N5 C017 1.349(11) . ?
N5 N7 1.366(9) . ?
N5 C00Q 1.412(10) . ?
N6 C017 1.311(11) . ?
N6 C015 1.356(11) . ?
N7 C015 1.309(10) . ?
C00N C00Q 1.424(11) . ?
C00N C00O 1.427(11) . ?
C00O C00P 1.421(11) . ?
C00P C00S 1.359(11) . ?
C00Q C012 1.362(11) . ?
C00R C00W 1.431(11) . ?
C00R C00T 1.439(10) . ?
C00S C012 1.403(11) . ?
C00T C00Z 1.431(10) . ?
C00U C00V 1.487(11) . ?
C00V C011 1.361(11) . ?
C00V C014 1.397(11) . ?
C00W C016 1.345(11) . ?
C00X C013 1.355(11) . ?
C00Y C013 1.408(11) . ?
C00Z C010 1.381(11) . ?
C010 C016 1.426(11) . ?
C013 C01A 1.482(11) . ?
O01B C01E 1.187(16) . ?
N1 C01F 1.37(3) . ?
N1 C01D 1.428(14) . ?
N1 C01E 1.569(17) . ?
 
loop_
 _geom_angle_atom_site_label_1
 _geom_angle_atom_site_label_2
 _geom_angle_atom_site_label_3
 _geom_angle
 _geom_angle_site_symmetry_1
 _geom_angle_site_symmetry_3
 _geom_angle_publ_flag
O004 Zn1 O1 94.7(2) . 1_454 ?
O004 Zn1 N3 128.2(2) . . ?
O1 Zn1 N3 127.4(2) 1_454 . ?
O004 Zn1 O2 95.9(2) . . ?
O1 Zn1 O2 106.8(2) 1_454 . ?
N3 Zn1 O2 98.4(3) . . ?
O004 Zn1 C01A 122.6(2) . 1_454 ?
O1 Zn1 C01A 28.6(2) 1_454 1_454 ?
N3 Zn1 C01A 105.1(3) . 1_454 ?
O2 Zn1 C01A 95.9(2) . 1_454 ?
N00G S1 N00F 100.1(3) . . ?
N00C S2 N8 100.8(3) . . ?
C01A O1 Zn1 102.2(5) . 1_656 ?
C00U O004 Zn1 112.9(5) . . ?
C00X N007 N00E 111.6(6) . . ?
C00X N007 C00W 129.2(6) . . ?
N00E N007 C00W 119.2(6) . . ?
C00O N8 S2 106.3(5) . . ?
C011 N008 N2 111.9(6) . . ?
C011 N008 C00Z 128.5(6) . . ?
N2 N008 C00Z 119.6(6) . . ?
C018 N00B N4 110.0(6) . . ?
C018 N00B C00P 129.8(7) . . ?
N4 N00B C00P 119.7(6) . . ?
C00N N00C S2 106.5(5) . . ?
C00Y N00E N007 103.5(6) . . ?
C00R N00F S1 107.5(5) . . ?
C00T N00G S1 107.2(5) . . ?
C014 N2 N008 103.5(6) . . ?
C018 N3 C019 103.8(6) . . ?
C018 N3 Zn1 124.4(5) . . ?
C019 N3 Zn1 130.7(5) . . ?
C019 N4 N00B 101.5(6) . . ?
C017 N5 N7 108.4(6) . . ?
C017 N5 C00Q 131.4(7) . . ?
N7 N5 C00Q 120.1(6) . . ?
C017 N6 C015 102.8(7) . . ?
C015 N7 N5 102.9(6) . . ?
N00C C00N C00Q 126.2(7) . . ?
N00C C00N C00O 113.2(6) . . ?
C00Q C00N C00O 120.6(7) . . ?
N8 C00O C00P 127.8(7) . . ?
N8 C00O C00N 113.2(7) . . ?
C00P C00O C00N 119.0(7) . . ?
C00S C00P C00O 119.1(7) . . ?
C00S C00P N00B 120.6(7) . . ?
C00O C00P N00B 120.3(7) . . ?
C012 C00Q N5 121.7(7) . . ?
C012 C00Q C00N 117.7(7) . . ?
N5 C00Q C00N 120.6(7) . . ?
N00F C00R C00W 128.1(7) . . ?
N00F C00R C00T 112.2(7) . . ?
C00W C00R C00T 119.6(6) . . ?
C00P C00S C012 121.5(7) . . ?
N00G C00T C00Z 126.4(7) . . ?
N00G C00T C00R 113.0(6) . . ?
C00Z C00T C00R 120.6(7) . . ?
O005 C00U O004 124.0(7) . . ?
O005 C00U C00V 119.8(7) . . ?
O004 C00U C00V 116.2(7) . . ?
C011 C00V C014 105.0(7) . . ?
C011 C00V C00U 126.8(7) . . ?
C014 C00V C00U 128.2(7) . . ?
C016 C00W N007 121.9(7) . . ?
C016 C00W C00R 118.6(7) . . ?
N007 C00W C00R 119.4(6) . . ?
N007 C00X C013 108.3(7) . . ?
N00E C00Y C013 112.1(7) . . ?
C010 C00Z N008 121.5(7) . . ?
C010 C00Z C00T 117.0(7) . . ?
N008 C00Z C00T 121.5(7) . . ?
C00Z C010 C016 122.0(7) . . ?
N008 C011 C00V 107.0(7) . . ?
C00Q C012 C00S 122.2(7) . . ?
C00X C013 C00Y 104.6(7) . . ?
C00X C013 C01A 123.4(7) . . ?
C00Y C013 C01A 132.0(7) . . ?
N2 C014 C00V 112.6(7) . . ?
N7 C015 N6 115.0(7) . . ?
C00W C016 C010 122.1(7) . . ?
N6 C017 N5 110.8(7) . . ?
N3 C018 N00B 109.9(7) . . ?
N4 C019 N3 114.8(7) . . ?
O009 C01A O1 122.8(7) . . ?
O009 C01A C013 117.4(7) . . ?
O1 C01A C013 119.8(7) . . ?
O009 C01A Zn1 73.6(4) . 1_656 ?
O1 C01A Zn1 49.2(4) . 1_656 ?
C013 C01A Zn1 168.8(6) . 1_656 ?
C01F N1 C01D 127(2) . . ?
C01F N1 C01E 119(2) . . ?
C01D N1 C01E 113.4(12) . . ?
O01B C01E N1 126.6(14) . . ?
 
_refine_diff_density_max    2.234
_refine_diff_density_min   -0.842
_refine_diff_density_rms    0.175

_shelx_res_file
;
TITL pvl922_a.res in P-1
    pvl922_a.res
    created by SHELXL-2018/3 at 11:58:43 on 12-Apr-2022
REM Old TITL pvl922 in P-1
REM SHELXT solution in P-1: R1 0.260, Rweak 0.008, Alpha 0.037
REM <I/s>   0.000 for    0 systematic absences,  Orientation as input
REM Formula found by SHELXT:  C34 N9 O7 Br
CELL  0.71073   9.4887  13.1490  14.0112   69.396   85.795   71.299
ZERR   19.000   0.0020   0.0028   0.0030    0.007    0.008    0.008
LATT  1
SFAC C H N O Zn S
UNIT 19 19 19 19 19 0
ACTA
TEMP -123.150
L.S. 10
BOND
LIST 6
FMAP 2
PLAN 20
WGHT    0.159500    4.546500
FVAR       0.27471
ZN1   5    0.205644    0.470990    0.467162    11.00000    0.05948    0.04416 =
         0.02950   -0.00074   -0.00939   -0.04063
S1    6    0.812732    0.531553    0.905669    11.00000    0.03737    0.03180 =
         0.02804   -0.00937    0.00025   -0.02278
S2    6   -0.088259    0.776071   -0.031309    11.00000    0.03733    0.02943 =
         0.03304   -0.00937   -0.00040   -0.01908
O1    4    1.061304    0.387199    1.467794    11.00000    0.05508    0.05149 =
         0.02727   -0.01161   -0.00750   -0.03259
O2    4    0.411548    0.374467    0.436236    11.00000    0.05237    0.06776 =
         0.04391   -0.01799    0.00312   -0.03990
AFIX 148
H2    2    0.397017    0.323194    0.398915    11.00000   -1.50000
AFIX   0
O004  4    0.239130    0.410408    0.615702    11.00000    0.03758    0.03546 =
         0.03506   -0.00812   -0.00679   -0.02521
O005  4    0.386756    0.518799    0.588094    11.00000    0.04677    0.03974 =
         0.03123   -0.00468   -0.00114   -0.03109
N007  3    0.813726    0.322757    1.241060    11.00000    0.03646    0.02450 =
         0.02103   -0.00683   -0.00120   -0.01426
N8    3   -0.002269    0.751730    0.073702    11.00000    0.03223    0.02889 =
         0.03290   -0.00900   -0.00221   -0.01178
N008  3    0.480532    0.349413    0.905259    11.00000    0.02651    0.02455 =
         0.02871   -0.01400    0.00026   -0.01516
O009  4    1.116413    0.457951    1.305974    11.00000    0.06032    0.05164 =
         0.03876   -0.01038    0.00007   -0.04188
N00B  3    0.195143    0.762553    0.223049    11.00000    0.03812    0.02754 =
         0.02582   -0.01248    0.00430   -0.01721
N00C  3   -0.017914    0.867134   -0.111177    11.00000    0.03186    0.02425 =
         0.03842   -0.01502    0.00261   -0.01406
N00E  3    0.816820    0.238019    1.334760    11.00000    0.04758    0.02993 =
         0.02817   -0.00783    0.00259   -0.02440
N00F  3    0.832489    0.471124    1.028330    11.00000    0.03294    0.03074 =
         0.02733   -0.01116    0.00382   -0.02138
N00G  3    0.692769    0.479481    0.882311    11.00000    0.03150    0.02522 =
         0.03310   -0.01275    0.00254   -0.01756
N2    3    0.395871    0.277845    0.922143    11.00000    0.03515    0.02955 =
         0.03585   -0.01084   -0.00096   -0.02086
N3    3    0.205202    0.626098    0.368588    11.00000    0.03713    0.03278 =
         0.02504   -0.00705   -0.00338   -0.01971
N4    3    0.274335    0.784076    0.289004    11.00000    0.04428    0.03162 =
         0.03454   -0.01216   -0.00253   -0.02295
N5    3    0.152657    1.027349   -0.200166    11.00000    0.03738    0.02491 =
         0.02817   -0.00855    0.00047   -0.01863
N6    3    0.110150    1.100340   -0.365907    11.00000    0.06845    0.03747 =
         0.02948   -0.00491   -0.00305   -0.02981
N7    3    0.188249    1.126519   -0.231250    11.00000    0.04812    0.02548 =
         0.03620   -0.00751   -0.00086   -0.02108
C00N  1    0.078047    0.884046   -0.056763    11.00000    0.02483    0.01871 =
         0.03055   -0.01293    0.00418   -0.00895
C00O  1    0.086787    0.817959    0.049355    11.00000    0.02747    0.01875 =
         0.03168   -0.00826    0.00212   -0.00996
C00P  1    0.182233    0.829197    0.115930    11.00000    0.03444    0.02089 =
         0.02699   -0.00965   -0.00121   -0.00840
C00Q  1    0.163670    0.960052   -0.095530    11.00000    0.02763    0.01865 =
         0.03287   -0.00968    0.00196   -0.00366
C00R  1    0.744258    0.404935    1.057238    11.00000    0.02220    0.02313 =
         0.03539   -0.01473    0.00375   -0.01515
C00S  1    0.260995    0.903631    0.076872    11.00000    0.03359    0.02313 =
         0.02949   -0.01006    0.00267   -0.01446
AFIX  43
H00S  2    0.323596    0.912319    0.121366    11.00000   -1.20000
AFIX   0
C00T  1    0.660855    0.411511    0.972345    11.00000    0.02266    0.02091 =
         0.02662   -0.00948   -0.00096   -0.00954
C00U  1    0.333103    0.444560    0.645474    11.00000    0.02859    0.02720 =
         0.03410   -0.01433    0.00308   -0.01195
C00V  1    0.379905    0.390334    0.755672    11.00000    0.03195    0.02629 =
         0.03759   -0.01385   -0.00224   -0.01637
C00W  1    0.728168    0.331326    1.157744    11.00000    0.03193    0.02619 =
         0.02069   -0.01201    0.00278   -0.01546
C00X  1    0.896423    0.386442    1.244242    11.00000    0.03284    0.02510 =
         0.02949   -0.01174    0.00274   -0.02123
AFIX  43
H00X  2    0.911750    0.448189    1.188543    11.00000   -1.20000
AFIX   0
C00Y  1    0.901478    0.256114    1.394119    11.00000    0.03982    0.03203 =
         0.02808   -0.00791   -0.00473   -0.02315
AFIX  43
H00Y  2    0.923503    0.212210    1.464542    11.00000   -1.20000
AFIX   0
C00Z  1    0.560999    0.346018    0.987760    11.00000    0.02241    0.02388 =
         0.03051   -0.01195   -0.00136   -0.01004
C010  1    0.547204    0.279211    1.086957    11.00000    0.02972    0.02090 =
         0.03559   -0.01285    0.00463   -0.01594
AFIX  43
H010  2    0.480425    0.235805    1.099823    11.00000   -1.20000
AFIX   0
C011  1    0.472243    0.417123    0.805954    11.00000    0.02704    0.02434 =
         0.03106   -0.01131    0.00454   -0.00939
AFIX  43
H011  2    0.521566    0.472788    0.776901    11.00000   -1.20000
AFIX   0
C012  1    0.251879    0.967922   -0.027719    11.00000    0.03997    0.01895 =
         0.03539   -0.00905    0.00066   -0.01362
AFIX  43
H012  2    0.309186    1.018666   -0.052058    11.00000   -1.20000
AFIX   0
C013  1    0.955008    0.348062    1.340598    11.00000    0.03274    0.02676 =
         0.02833   -0.00810    0.00052   -0.01647
C014  1    0.336554    0.304132    0.830384    11.00000    0.03468    0.03495 =
         0.03263   -0.01589   -0.00401   -0.01979
AFIX  43
H014  2    0.271683    0.268268    0.816932    11.00000   -1.20000
AFIX   0
C015  1    0.159372    1.166654   -0.329880    11.00000    0.05426    0.02974 =
         0.02955   -0.00588    0.00111   -0.02177
AFIX  43
H015  2    0.171961    1.237022   -0.373032    11.00000   -1.20000
AFIX   0
C016  1    0.630158    0.273408    1.170655    11.00000    0.03815    0.02888 =
         0.02120   -0.00983   -0.00157   -0.01383
AFIX  43
H016  2    0.615741    0.227169    1.237659    11.00000   -1.20000
AFIX   0
C017  1    0.107119    1.014451   -0.282944    11.00000    0.06697    0.02710 =
         0.03588   -0.00820   -0.00429   -0.02116
AFIX  43
H017  2    0.076934    0.951638   -0.281352    11.00000   -1.20000
AFIX   0
C018  1    0.156944    0.668151    0.272591    11.00000    0.03546    0.03151 =
         0.03643   -0.01075    0.00304   -0.02349
AFIX  43
H018  2    0.103020    0.636383    0.242748    11.00000   -1.20000
AFIX   0
C019  1    0.275805    0.699146    0.375153    11.00000    0.04789    0.02825 =
         0.03022   -0.01077   -0.00190   -0.01622
AFIX  43
H019  2    0.322370    0.689690    0.436825    11.00000   -1.20000
AFIX   0
C01A  1    1.049540    0.401207    1.373596    11.00000    0.03326    0.02986 =
         0.03880   -0.01146   -0.00513   -0.01493
O01B  4    0.421036    0.199596    0.368378    11.00000    0.09799    0.08439 =
         0.22878   -0.03292    0.03243   -0.08054
N1    3    0.331604    0.041765    0.371281    11.00000    0.07819    0.08425 =
         0.12080    0.00657    0.04155   -0.03099
C01D  1    0.244311   -0.022429    0.437188    11.00000    0.10676    0.07726 =
         0.08539   -0.03983    0.04062   -0.07306
AFIX 137
H01A  2    0.169948   -0.028524    0.396298    11.00000   -1.50000
H01B  2    0.193829    0.016429    0.484304    11.00000   -1.50000
H01C  2    0.309243   -0.099251    0.476196    11.00000   -1.50000
AFIX   0
C01E  1    0.342524    0.142211    0.403067    11.00000    0.12112    0.06940 =
         0.10851   -0.04197   -0.01046   -0.03605
AFIX  23
H01D  2    0.240069    0.196473    0.394175    11.00000   -1.20000
H01E  2    0.366646    0.108717    0.477461    11.00000   -1.20000
AFIX   0
C01F  1    0.423901    0.011678    0.299481    11.00000    0.43611    0.72604 =
         0.45036   -0.40000    0.40093   -0.40000
AFIX  93
H01F  2    0.434646   -0.058298    0.289688    11.00000   -1.20000
H01G  2    0.477374    0.060721    0.259319    11.00000   -1.20000
REM #####
AFIX   0
HKLF 4




REM  pvl922_a.res in P-1
REM wR2 = 0.2407, GooF = S = 1.070, Restrained GooF = 1.070 for all data
REM R1 = 0.0721 for 2926 Fo > 4sig(Fo) and 0.0919 for all 3781 data
REM 463 parameters refined using 0 restraints

END

WGHT      0.1595      4.5464

REM Highest difference peak  2.234,  deepest hole -0.842,  1-sigma level  0.175
Q1    1   0.2967  0.1632  0.1991  11.00000  0.05    2.23
Q2    1   0.2410  0.1159  0.2801  11.00000  0.05    1.86
Q3    1   0.4715 -0.0397  0.3331  11.00000  0.05    1.61
Q4    1   0.4005  0.2071  0.4644  11.00000  0.05    1.01
Q5    1   0.4486  0.3079  0.3991  11.00000  0.05    0.93
Q6    1   0.3145 -0.0055  0.3417  11.00000  0.05    0.90
Q7    1   0.3024  0.0803  0.3797  11.00000  0.05    0.60
Q8    1   0.4638  0.2792  0.4570  11.00000  0.05    0.57
Q9    1   0.1350  1.0695 -0.3658  11.00000  0.05    0.39
Q10   1  -0.0844  0.9122 -0.2526  11.00000  0.05    0.38
Q11   1  -0.0762  0.9049 -0.1259  11.00000  0.05    0.38
Q12   1   0.1138  0.9491 -0.2764  11.00000  0.05    0.37
Q13   1   0.1280  0.0365  0.4724  11.00000  0.05    0.37
Q14   1   0.2623  0.9955 -0.3207  11.00000  0.05    0.37
Q15   1   0.0754  0.8606 -0.1745  11.00000  0.05    0.36
Q16   1   0.5304  0.9796 -0.1188  11.00000  0.05    0.36
Q17   1   0.3527 -0.0563  0.5163  11.00000  0.05    0.36
Q18   1  -0.1616  0.8737 -0.1862  11.00000  0.05    0.36
Q19   1   0.4780  0.0487  0.1813  11.00000  0.05    0.36
Q20   1   0.2955  1.1040 -0.2135  11.00000  0.05    0.36
;
_shelx_res_checksum   55252

_shelx_hkl_file
;
  -2   0   0  778.22   33.70
   2   0   0  788.52   32.80
   2   0   0  799.62   33.70
   2   0   0  781.32   32.70
  -3   0   0  492.25   21.60
   3   0   0  457.35   20.10
   3   0   0  474.85   21.50
   3   0   0  469.75   20.10
  -4   0   0   14.30    3.00
   4   0   0   12.60    1.50
   4   0   0   11.50    1.50
   4   0   0   12.60    2.90
  -5   0   0  100.89    7.30
   5   0   0   98.09    5.10
   5   0   0   98.99    5.10
   5   0   0  110.39    7.40
  -6   0   0    1.80    2.40
   6   0   0    1.40    0.80
   6   0   0    1.90    2.30
  -7   0   0   58.99    7.40
   7   0   0   70.09    7.90
  -8   0   0   34.40    6.20
   8   0   0   43.40    6.60
  -9   0   0   -2.10    3.20
   9   0   0    0.20    3.60
  -9   1   0    1.90    3.60
   8  -1   0    4.60    3.40
  -8   1   0    5.60    3.40
   7  -1   0   33.90    5.30
  -7   1   0   29.50    5.50
   6  -1   0    1.50    2.40
  -6   1   0   -0.10    2.10
   5  -1   0  163.98   10.00
  -5   1   0  163.48   10.00
   4  -1   0   -2.30    1.70
  -4   1   0    2.50    2.00
   3  -1   0  510.15   23.40
  -3   1   0  526.45   23.50
   2  -1   0    6.10    2.40
  -2   1   0    2.50    1.70
   1  -1   0    0.40    1.10
   1  -1   0    1.10    0.50
  -1   1   0    0.00    0.60
  -1   1   0    0.40    1.00
   0  -1   0   -0.10    0.40
  -1  -1   0  251.87   11.30
   1   1   0  255.67   11.20
  -2  -1   0  356.56   16.30
   2   1   0  339.07   16.30
   2   1   0  370.76   16.00
   2   1   0  379.86   15.90
  -3  -1   0   65.59    4.70
   3   1   0   56.69    3.80
   3   1   0   53.69    3.70
   3   1   0   57.49    4.60
  -4  -1   0   32.60    4.40
   4   1   0   33.10    2.90
   4   1   0   30.90    2.90
   4   1   0   38.80    4.50
  -5  -1   0  211.28   11.90
   5   1   0  214.08   11.90
   5   1   0  204.78   10.20
  -6  -1   0   21.00    4.20
   6   1   0   23.30    2.80
   6   1   0   29.40    4.70
   6   1   0   23.70    2.90
  -7  -1   0  107.99    8.80
   7   1   0  105.49    8.70
   7   1   0  117.29    6.40
   7   1   0  106.39    6.20
  -8  -1   0   57.79    7.70
   8   1   0   57.19    7.10
   8   1   0   52.69    3.80
  -9  -1   0    0.80    3.20
   9   1   0    1.40    3.20
   8  -2   0   -0.70    3.00
  -8   2   0   -1.20    2.90
   7  -2   0    7.90    3.30
  -7   2   0    5.10    3.10
   6  -2   0   -1.40    2.70
  -6   2   0   -0.70    2.50
   5  -2   0    2.80    2.30
  -5   2   0    1.50    2.10
   4  -2   0   15.70    3.10
  -4   2   0   15.50    3.20
   3  -2   0  116.89    7.10
  -3   2   0  106.89    7.00
   2  -2   0  351.66   16.10
  -2   2   0  335.47   16.60
   1  -2   0   27.80    3.00
   1  -2   0   17.50    1.90
  -1   2   0   26.90    2.80
  -1   2   0   19.00    2.00
   0  -2   0  157.18    7.90
   0   2   0  170.88    8.00
   0   2   0  170.48    8.00
   0   2   0  164.08    8.00
  -1  -2   0    2.40    1.30
  -1  -2   0    2.20    1.20
   1   2   0    0.30    1.20
   1   2   0    3.80    1.30
  -2  -2   0  954.00   41.30
   2   2   0  974.90   41.10
   2   2   0  963.00   41.20
   2   2   0  963.80   41.20
  -3  -2   0  172.18    9.40
   3   2   0  178.08    9.60
   3   2   0  182.38    9.20
   3   2   0  178.58    9.20
  -4  -2   0    0.40    1.60
   4   2   0    0.40    1.30
   4   2   0   -0.10    1.30
   4   2   0    0.90    2.00
  -5  -2   0  227.58   12.20
   5   2   0  198.98   10.80
   5   2   0  214.58   12.00
   5   2   0  210.18   10.90
  -6  -2   0  163.18   10.80
   6   2   0  170.88    9.50
   6   2   0  180.68   11.10
   6   2   0  176.78    9.40
  -7  -2   0   26.50    5.00
   7   2   0   28.70    3.80
   7   2   0   28.50    3.60
   7   2   0   31.10    5.00
  -8  -2   0   21.90    5.10
   8   2   0   12.40    3.80
   8   2   0   22.10    3.20
   8   2   0   21.30    3.30
  -9  -2   0    3.40    3.40
   9   2   0   -2.20    1.60
   9   2   0    0.50    3.30
   9   2   0   -1.00    1.60
   8  -3   0    2.60    3.70
  -8   3   0    6.50    3.70
   7  -3   0   65.99    7.70
  -7   3   0   86.69    7.70
   6  -3   0    0.80    2.60
   5  -3   0   43.40    5.60
  -5   3   0   52.29    6.00
   4  -3   0   60.59    5.70
  -4   3   0   65.69    5.60
   3  -3   0   17.30    3.20
  -3   3   0   13.20    1.40
  -3   3   0   14.70    2.90
  -3   3   0   12.70    1.50
   2  -3   0  349.47   16.70
  -2   3   0  355.06   15.60
  -2   3   0  343.37   16.60
   1  -3   0    1.10    1.20
   1  -3   0    3.60    2.00
  -1   3   0    2.60    1.40
  -1   3   0    8.00    2.50
   0  -3   0   52.79    3.80
   0   3   0   50.69    3.80
   0   3   0   45.40    3.80
  -1  -3   0 1442.86   61.39
  -1  -3   0 1467.75   61.29
   1   3   0 1460.75   61.49
   1   3   0 1431.46   61.29
  -2  -3   0   34.40    3.90
   2   3   0   38.00    4.00
   2   3   0   30.40    3.60
  -3  -3   0  141.99    8.40
   3   3   0  145.29    8.40
   3   3   0  153.48    8.50
   3   3   0  145.19    8.40
  -4  -3   0  237.38   12.60
   4   3   0  232.68   12.60
   4   3   0  245.08   12.30
   4   3   0  223.18   12.10
  -5  -3   0   88.89    6.90
   5   3   0   80.19    6.10
   5   3   0   96.99    6.40
   5   3   0   90.39    6.90
  -6  -3   0  146.99    9.80
   6   3   0  138.79    9.70
   6   3   0  139.69    8.80
   6   3   0  161.48    9.00
  -7  -3   0    2.80    2.60
   7   3   0    0.70    1.70
   7   3   0    1.40    1.70
   7   3   0   -2.10    2.20
  -8  -3   0   55.39    7.40
   8   3   0   65.59    5.50
   8   3   0   57.09    5.40
   8   3   0   52.29    7.30
  -9  -3   0   -0.20    3.00
   9   3   0   -2.20    2.50
   9   3   0    3.00    2.20
   9   3   0    3.10    2.20
   7  -4   0    5.80    3.80
  -7   4   0   10.70    4.10
   6  -4   0   -1.70    2.50
  -6   4   0   -1.60    2.30
   5  -4   0    1.50    2.60
  -5   4   0    2.40    2.30
   4  -4   0    7.80    2.90
  -4   4   0    6.30    2.60
  -4   4   0    5.70    1.10
   3  -4   0   21.30    3.70
  -3   4   0   19.40    2.20
  -3   4   0   21.50    2.40
  -3   4   0   15.50    3.30
   2  -4   0  489.65   23.20
  -2   4   0  460.55   23.00
  -2   4   0  587.74   24.80
  -2   4   0  482.05   22.20
   1  -4   0  269.57   13.20
  -1   4   0  269.27   12.70
  -1   4   0  244.48   12.90
   0  -4   0  224.48   11.30
   0   4   0  223.48   11.30
   0   4   0  225.68   11.30
   0   4   0  215.48   11.20
  -1  -4   0  552.94   25.00
  -1  -4   0  551.44   25.10
   1   4   0  547.35   24.90
   1   4   0  556.94   25.20
  -2  -4   0   13.70    3.00
   2   4   0   15.00    3.00
   2   4   0   21.70    3.40
   2   4   0   12.90    2.70
  -3  -4   0  312.27   15.50
   3   4   0  319.57   15.50
   3   4   0  281.17   15.30
   3   4   0  315.57   15.60
  -4  -4   0  324.37   16.80
   4   4   0  341.77   16.80
   4   4   0  331.87   16.80
   4   4   0  330.57   16.80
  -5  -4   0  359.26   18.70
   5   4   0  363.46   18.30
   5   4   0  357.06   18.20
   5   4   0  374.86   18.80
  -6  -4   0  120.39    8.80
   6   4   0  100.69    7.80
   6   4   0  122.29    8.90
   6   4   0  130.59    8.30
  -7  -4   0    0.00    2.00
   7   4   0    0.10    2.30
   7   4   0   -0.70    1.70
   7   4   0    2.70    2.10
  -8  -4   0   35.70    6.40
   8   4   0   28.10    4.40
   8   4   0   39.80    5.40
   8   4   0   32.40    5.70
  -9  -4   0    0.10    2.90
   9   4   0   -0.50    2.10
   9   4   0    3.00    3.20
   9   4   0    2.10    2.00
   7  -5   0   -0.80    3.00
  -7   5   0    0.90    3.00
   6  -5   0    0.10    2.50
  -6   5   0   -1.00    2.50
   5  -5   0   19.00    4.30
   4  -5   0   18.40    4.10
  -4   5   0   15.90    3.70
  -4   5   0   16.10    2.00
  -4   5   0   15.60    2.00
   3  -5   0    2.90    2.60
  -3   5   0    3.20    1.40
  -3   5   0    3.30    1.50
  -3   5   0    3.70    2.10
   2  -5   0  352.06   17.80
  -2   5   0  362.86   17.60
  -2   5   0  332.87   16.70
  -2   5   0  377.66   16.90
   1  -5   0  164.18    9.30
  -1   5   0  147.89    8.60
  -1   5   0  152.88    8.90
  -1   5   0  149.88    8.60
   0   5   0    2.30    1.60
   0   5   0    3.40    1.70
   0   5   0    2.90    1.80
   0   5   0    4.40    2.00
  -1  -5   0   58.79    5.90
   1   5   0   47.40    5.40
   1   5   0   45.10    5.00
   1   5   0   50.29    5.20
  -2  -5   0   54.99    5.70
   2   5   0   52.29    5.70
   2   5   0   44.60    5.30
   2   5   0   41.30    5.20
  -3  -5   0   26.70    4.20
   3   5   0   19.70    3.60
   3   5   0   19.70    3.50
   3   5   0   22.50    3.80
  -4  -5   0   14.80    3.40
   4   5   0   10.90    3.00
   4   5   0   19.50    3.80
   4   5   0   10.10    2.90
  -5  -5   0  128.49    8.70
   5   5   0  103.59    8.20
   5   5   0  113.09    8.30
   5   5   0  133.69    8.70
  -6  -5   0  252.57   15.10
   6   5   0  278.97   14.80
   6   5   0  245.58   14.50
   6   5   0  271.37   17.50
  -7  -5   0   -0.60    2.20
   7   5   0    0.90    2.10
   7   5   0    3.40    2.40
   7   5   0    0.70    2.30
  -8  -5   0  120.09   10.20
   8   5   0  128.99   10.20
   8   5   0  121.09    9.00
   8   5   0  111.19    8.80
  -9  -5   0   49.70    8.10
   9   5   0   42.70    6.10
   9   5   0   47.20    6.40
   6  -6   0   -2.80    2.70
  -6   6   0    2.10    3.10
   5  -6   0   22.70    4.90
  -5   6   0   16.40    4.40
   4  -6   0   53.09    6.90
  -4   6   0   65.29    4.70
  -4   6   0   65.09    4.40
  -4   6   0   55.09    6.60
   3  -6   0   21.70    4.40
  -3   6   0   32.30    3.60
  -3   6   0   21.70    3.10
  -3   6   0   27.40    4.30
   2  -6   0  198.38   12.10
  -2   6   0  202.68   11.20
  -2   6   0  211.58   11.90
  -2   6   0  227.88   11.40
   1  -6   0  191.28   11.00
  -1   6   0  182.38   10.30
  -1   6   0  177.68   10.30
  -1   6   0  186.78   10.70
   0   6   0   13.40    3.30
   0   6   0   16.90    3.10
   0   6   0   16.70    3.00
   0   6   0   16.00    3.40
   1   6   0  157.18   10.00
   1   6   0  179.98   10.10
   1   6   0  166.48   10.10
  -2  -6   0   31.50    4.70
   2   6   0   45.10    5.70
   2   6   0   36.10    5.10
   2   6   0   41.00    5.60
  -3  -6   0 1130.69   49.20
   3   6   0 1044.30   49.20
   3   6   0 1115.79   49.00
   3   6   0 1133.19   49.70
  -4  -6   0  238.48   13.40
   4   6   0  219.28   13.10
   4   6   0  242.58   13.70
   4   6   0  230.08   13.50
  -5  -6   0   41.80    6.00
   5   6   0   38.60    5.70
   5   6   0   37.60    5.50
   5   6   0   37.80    5.60
   6   6   0  352.66   18.60
   6   6   0  323.57   18.20
   6   6   0  333.77   18.50
  -7  -6   0   96.99    8.50
   7   6   0   79.69   10.00
   7   6   0   90.99    8.00
   7   6   0  100.29    8.50
  -8  -6   0  147.19   11.30
   8   6   0  154.88   10.80
   8   6   0  128.19   10.90
   8   6   0  142.09   10.50
  -9  -6   0   30.80    6.20
   9   6   0   30.20    5.50
   9   6   0   26.40    5.40
   6  -7   0   11.70    4.80
  -6   7   0   13.30    4.50
   5  -7   0    4.80    3.80
  -5   7   0    9.00    3.70
  -5   7   0    5.10    1.50
  -5   7   0    4.00    1.50
   4  -7   0   20.50    4.80
  -4   7   0   17.30    2.80
  -4   7   0   16.50    4.10
  -4   7   0   26.30    3.40
   3  -7   0    3.50    3.10
  -3   7   0    1.30    2.10
  -3   7   0   -0.40    1.40
  -3   7   0    0.70    1.50
   2  -7   0   13.90    3.90
  -2   7   0    5.70    2.30
  -2   7   0   12.90    3.60
  -2   7   0   12.10    2.80
  -1   7   0   15.80    3.90
  -1   7   0    6.30    2.70
  -1   7   0    6.00    2.20
  -1   7   0   11.50    2.90
   0   7   0   27.60    4.50
   0   7   0   27.70    4.60
   0   7   0   24.30    4.20
   0   7   0   21.80    3.90
   1   7   0  136.79    8.80
   1   7   0  125.19    8.70
   1   7   0  138.59    9.00
   1   7   0  119.99    8.70
  -2  -7   0   62.59    7.30
   2   7   0   48.00    6.10
   2   7   0   49.60    6.00
   2   7   0   47.90    6.30
  -3  -7   0  283.27   15.50
   3   7   0  271.37   15.10
   3   7   0  276.97   15.60
   3   7   0  274.37   15.60
  -4  -7   0  141.69   10.10
   4   7   0  142.69   10.30
   4   7   0  145.29   10.00
   4   7   0  176.48   10.90
  -5  -7   0   28.60    5.20
   5   7   0   26.70    5.10
   5   7   0   34.60    5.60
   5   7   0   27.70    5.10
  -6  -7   0    3.10    3.10
   6   7   0    2.10    2.40
   6   7   0    2.40    2.50
   6   7   0   -0.80    1.80
  -7  -7   0   11.70    4.30
   7   7   0   14.10    4.00
   7   7   0    8.30    3.40
   7   7   0    6.80    3.20
  -8  -7   0  199.68   14.00
   8   7   0  210.28   13.50
   8   7   0  184.68   13.10
  -9  -7   0   49.40    8.10
   9   7   0   63.39    8.10
   9   7   0   60.09    7.90
   5  -8   0    3.30    3.70
  -5   8   0    1.60    3.30
  -5   8   0    4.90    1.70
   4  -8   0    1.70    3.10
  -4   8   0    7.80    3.20
  -4   8   0    3.90    1.90
  -4   8   0    4.40    2.10
   3  -8   0    7.10    3.70
  -3   8   0    0.70    2.20
  -3   8   0    4.10    2.00
  -3   8   0    0.30    1.80
  -2   8   0   18.10    3.60
  -2   8   0   12.10    3.00
  -2   8   0   14.70    3.80
  -1   8   0    3.00    2.50
  -1   8   0   -1.80    1.90
  -1   8   0    2.80    2.10
  -1   8   0   -0.70    1.60
   0   8   0   76.19    6.60
   0   8   0   81.49    6.80
   0   8   0   82.49    7.00
   0   8   0   75.49    6.90
   1   8   0  132.79    9.20
   1   8   0  129.09    8.90
   1   8   0  125.39    9.10
   1   8   0  114.79    8.70
  -2  -8   0  185.58   12.40
   2   8   0  214.68   13.00
   2   8   0  220.98   13.10
   2   8   0  211.98   12.60
  -3  -8   0   23.90    4.80
   3   8   0   31.10    5.50
   3   8   0   22.00    4.40
  -4  -8   0   77.79    8.90
   4   8   0   93.89    9.70
   4   8   0   83.59    7.40
   4   8   0   76.59    8.90
  -5  -8   0   61.09    8.00
   5   8   0   55.39    7.30
   5   8   0   52.79    7.40
   5   8   0   59.49    7.70
  -6  -8   0    7.80    3.60
   6   8   0   -1.10    2.10
   6   8   0    5.10    2.90
   6   8   0    3.40    2.40
  -7  -8   0   17.40    4.80
   7   8   0   19.50    5.20
   7   8   0   28.20    5.70
   7   8   0   11.30    4.20
  -8  -8   0  172.58   13.50
   8   8   0  183.38   13.10
   8   8   0  192.88   13.30
   9   8   0   41.20    7.20
   9   8   0   43.60    7.40
   9   8   0   66.39    8.70
   4  -9   0    0.90    3.20
  -4   9   0   -1.50    1.80
  -4   9   0    1.90    2.10
  -4   9   0    1.50    3.20
   3  -9   0   32.10    6.10
  -3   9   0   24.80    4.90
  -3   9   0   36.10    4.90
  -3   9   0   28.30    4.30
  -2   9   0   10.10    2.90
  -2   9   0    9.80    4.00
  -2   9   0   12.60    3.40
  -2   9   0   10.70    3.90
  -1   9   0   99.49    8.80
  -1   9   0  112.39    8.50
  -1   9   0  116.99    8.60
  -1   9   0  115.39    9.00
   0   9   0   14.10    4.30
   0   9   0   13.60    3.90
   0   9   0   15.30    3.70
   0   9   0   16.20    4.00
   1   9   0    2.00    2.40
   1   9   0    1.90    2.60
   1   9   0    0.40    2.20
   1   9   0    5.00    2.60
   2   9   0   75.79    7.10
   2   9   0   70.89    8.10
   2   9   0   72.49    8.30
   3   9   0    2.40    2.90
   3   9   0    1.60    2.60
   3   9   0    7.30    3.10
  -4  -9   0   95.49    8.40
   4   9   0   85.79    8.20
   4   9   0   90.09    8.00
   4   9   0   86.39    8.20
  -5  -9   0   12.50    4.00
   5   9   0   13.20    4.10
   5   9   0   14.20    4.50
   5   9   0    7.50    3.40
  -6  -9   0   50.29    7.90
   6   9   0   56.79    7.90
   6   9   0   60.69    8.20
   6   9   0   66.39    8.70
  -7  -9   0   31.60    6.80
   7   9   0   29.20    6.10
   7   9   0   30.70    6.10
  -8  -9   0    2.10    3.00
   8   9   0    1.00    2.90
   8   9   0    1.60    3.00
   9   9   0    0.20    3.20
  -3  10   0   95.99   11.00
  -3  10   0   92.29    7.60
  -3  10   0   97.09    7.60
  -3  10   0   60.79    8.00
  -2  10   0   -0.20    2.20
  -2  10   0    2.80    3.30
  -2  10   0    1.50    3.20
  -1  10   0   28.10    5.80
  -1  10   0   31.30    5.50
  -1  10   0   33.30    5.50
   0  10   0    1.20    2.00
   0  10   0    2.20    2.30
   0  10   0   -0.10    2.90
   0  10   0    3.30    3.10
   1  10   0   11.00    3.70
   1  10   0   11.30    4.10
   1  10   0    8.80    3.40
   1  10   0   18.00    4.70
   2  10   0   11.20    4.00
   2  10   0    5.50    3.20
   2  10   0    4.00    3.20
   2  10   0   13.70    4.20
  -3 -10   0   30.10    6.10
   3  10   0   23.70    5.20
   3  10   0   24.50    5.20
   3  10   0   15.70    4.50
  -4 -10   0  173.48   12.30
   4  10   0  152.78   11.50
   4  10   0  164.58   12.30
   4  10   0  165.98   12.30
  -5 -10   0   27.10    6.00
   5  10   0   25.10    5.70
   5  10   0   27.10    6.00
   5  10   0   19.50    5.20
  -6 -10   0   -1.40    2.90
   6  10   0    0.50    2.50
   6  10   0    1.80    3.00
   6  10   0    0.90    2.90
  -7 -10   0   12.80    4.90
   7  10   0   21.00    5.90
   7  10   0   14.30    4.80
  -8 -10   0   34.10    9.70
   8  10   0   28.20    6.70
  -2  11   0   17.00    4.20
  -2  11   0   19.10    4.40
  -2  11   0   21.20    5.60
  -2  11   0   14.80    5.00
  -1  11   0    5.90    3.00
  -1  11   0   13.90    4.50
  -1  11   0    8.70    3.50
  -1  11   0    3.80    3.60
   0  11   0    1.00    3.20
   0  11   0    1.90    2.70
   0  11   0    2.90    2.50
   0  11   0    0.90    2.90
   1  11   0   99.69   10.50
   1  11   0   78.59    9.50
   1  11   0   72.59    9.40
   1  11   0   90.89    8.60
   2  11   0   44.50    7.20
   2  11   0   37.90    6.60
   2  11   0   46.80    7.50
   2  11   0   44.70    7.00
   3  11   0   32.90    6.40
   3  11   0   38.50    6.80
   3  11   0   26.80    5.80
   3  11   0   36.00    6.90
  -4 -11   0   58.29    9.20
   4  11   0   39.40    7.00
   4  11   0   64.19    9.30
   4  11   0   48.00    7.50
  -5 -11   0   36.00    7.30
   5  11   0   22.70    6.00
   5  11   0   32.40    6.40
  -6 -11   0  126.79   11.30
   6  11   0  130.19   11.10
   6  11   0  113.29   12.80
  -7 -11   0   31.60    8.90
   7  11   0   30.40    8.00
   7  11   0   18.60    5.60
   7  11   0   36.30    7.20
   0  12   0   19.40    5.50
   0  12   0   19.60    5.60
   0  12   0   21.10    5.00
   0  12   0   20.30    4.90
   1  12   0    3.10    3.70
   1  12   0    7.10    4.20
   1  12   0    0.80    2.70
   1  12   0    5.30    3.10
   2  12   0   67.89    9.20
   2  12   0   61.59    9.00
   2  12   0   70.19   10.00
   2  12   0   70.49    9.80
   3  12   0   10.60    4.20
   3  12   0    6.70    3.90
   3  12   0    5.80    3.60
   3  12   0    3.50    3.80
  -4 -12   0    1.40    3.20
   4  12   0   -1.50    2.80
   4  12   0    0.80    3.00
   4  12   0   -1.20    3.10
  -5 -12   0    0.40    3.60
   5  12   0   -1.20    2.90
   5  12   0    0.10    3.50
   6  12   0  127.59   14.00
   6  12   0  106.29   12.40
   6  12   0   76.69   10.50
   5  12  -1    3.90    3.50
   5  12  -1    2.70    3.20
   4  12  -1   92.69   11.30
   4  12  -1   48.40    8.50
   3  12  -1  159.58   17.50
   3  12  -1  138.89   12.30
   3  12  -1  141.19   12.00
   3  12  -1  160.18   12.80
   2  12  -1    9.80    4.50
   2  12  -1    5.00    3.70
   2  12  -1    0.00    2.90
   2  12  -1    1.20    3.00
   1  12  -1   49.30    7.50
   1  12  -1   65.89    9.30
   1  12  -1   40.60    7.10
   1  12  -1   39.70    7.00
   7  11  -1    2.20    3.50
   7  11  -1    3.60    3.70
  -7 -11   1    6.80    4.60
   6  11  -1   74.49   10.00
  -6 -11   1   63.89    9.70
   5  11  -1   85.79   10.60
   5  11  -1   76.89   10.50
  -5 -11   1   96.49   11.90
   4  11  -1   53.79    8.50
   4  11  -1   40.60    7.60
  -4 -11   1   51.99    8.50
   3  11  -1   83.69   10.30
   3  11  -1   74.89    9.50
   3  11  -1   72.39    9.80
   3  11  -1   84.39   10.70
   2  11  -1   88.19   10.70
   2  11  -1   81.69    9.40
   2  11  -1   88.79   10.90
   2  11  -1   77.69   10.30
   1  11  -1    3.30    3.00
   1  11  -1   -0.60    3.30
   1  11  -1    6.70    3.90
   1  11  -1    0.90    2.50
   0  11  -1    1.50    3.30
   0  11  -1    3.40    2.80
   0  11  -1    4.50    3.80
   0  11  -1    2.20    2.60
  -1  11  -1   31.70    6.40
  -1  11  -1   29.20    5.50
  -1  11  -1   37.10    7.00
  -1  11  -1   32.90    6.00
   8  10  -1   62.99    9.50
  -8 -10   1   64.79    9.90
   7  10  -1    6.30    3.70
  -7 -10   1    9.20    4.40
   6  10  -1   17.10    5.20
   6  10  -1   18.10    5.40
  -6 -10   1    7.70    4.20
   5  10  -1   12.40    4.50
   5  10  -1   21.00    5.50
  -5 -10   1   23.70    6.20
   4  10  -1    6.90    3.70
   4  10  -1    7.80    3.50
   4  10  -1    8.20    4.00
  -4 -10   1    7.60    3.90
   3  10  -1   25.70    5.90
   3  10  -1    8.20    3.80
   3  10  -1    7.40    3.60
  -3 -10   1   21.90    5.50
   2  10  -1  105.69    9.10
   2  10  -1  103.69    9.20
   2  10  -1   88.39    8.70
   2  10  -1  102.69    9.10
   1  10  -1   36.90    6.50
   1  10  -1   30.30    6.00
   1  10  -1   33.40    6.00
   1  10  -1   45.40    7.30
   0  10  -1   12.20    4.20
   0  10  -1   21.00    4.80
   0  10  -1   13.00    4.00
   0  10  -1   17.90    5.00
  -1  10  -1   14.60    4.70
  -1  10  -1   16.10    4.10
  -1  10  -1   14.40    4.00
  -1  10  -1   13.50    4.60
  -2  10  -1    7.90    3.10
  -2  10  -1    7.30    4.00
  -2  10  -1    9.20    4.20
  -2  10  -1    3.80    3.20
  -3  10  -1   26.50    4.60
  -3  10  -1   21.80    5.20
  -3  10  -1   31.20    7.20
   8   9  -1    7.80    4.10
   8   9  -1   17.70    5.50
  -8  -9   1   18.10    5.50
   7   9  -1   52.89    8.00
   7   9  -1   62.49    8.70
  -7  -9   1   61.89    9.00
   6   9  -1    5.70    3.40
   6   9  -1   10.10    4.40
   6   9  -1   14.20    4.60
  -6  -9   1    9.80    4.50
   5   9  -1   32.30    6.30
   5   9  -1   15.90    4.70
   5   9  -1   18.80    4.90
  -5  -9   1   23.60    5.60
   4   9  -1   47.40    7.00
   4   9  -1   48.60    7.20
   4   9  -1   59.59    8.00
  -4  -9   1   56.19    8.10
   3   9  -1    5.30    2.90
   3   9  -1    3.90    2.60
   3   9  -1    1.90    2.40
  -3  -9   1    8.90    3.70
   2   9  -1    0.30    2.30
   2   9  -1    0.50    2.70
   2   9  -1    4.30    3.10
   2   9  -1    2.20    2.60
   1   9  -1   84.99    9.50
   1   9  -1   68.09    9.20
   1   9  -1   82.09    8.80
   1   9  -1   60.49    7.70
   0   9  -1   72.59    8.30
   0   9  -1   73.59    8.20
   0   9  -1   74.39    8.40
   0   9  -1   70.39    8.80
  -1   9  -1   -1.20    1.60
  -1   9  -1    2.20    2.50
  -1   9  -1   -2.20    2.50
  -1   9  -1   -0.60    2.60
  -2   9  -1    5.00    2.60
  -2   9  -1    2.60    3.20
  -2   9  -1    7.70    3.60
  -2   9  -1    7.00    2.90
  -3   9  -1    1.40    2.30
  -3   9  -1    4.10    2.60
  -3   9  -1   -0.30    3.10
   3  -9   1   -0.60    3.10
  -4   9  -1    7.20    3.60
  -4   9  -1    7.80    2.90
  -4   9  -1    2.10    2.40
   4  -9   1    5.10    4.20
   9   8  -1   17.10    5.40
   9   8  -1   17.90    5.60
   9   8  -1   30.20    6.20
  -9  -8   1   14.80    5.50
   8   8  -1    3.50    3.10
   8   8  -1    2.70    3.20
  -8  -8   1    2.60    3.50
   7   8  -1   95.19    9.10
   7   8  -1  110.19    9.70
  -7  -8   1   98.69    9.30
   6   8  -1    1.10    2.20
   6   8  -1    3.10    2.60
   6   8  -1    3.10    3.00
  -6  -8   1    8.40    3.60
   5   8  -1   41.00    6.40
   5   8  -1   47.90    6.80
   5   8  -1   46.30    6.90
  -5  -8   1   52.49    7.50
   4   8  -1  181.38   12.30
   4   8  -1  180.18   11.90
   4   8  -1  183.18   12.30
  -4  -8   1  176.28   13.10
   3   8  -1  149.88   10.30
   3   8  -1  147.19   10.50
   3   8  -1  135.79   10.30
  -3  -8   1  144.39   10.40
   2   8  -1   21.20    4.70
   1   8  -1   28.40    5.90
   1   8  -1   30.20    5.10
   1   8  -1   19.90    4.10
   1   8  -1   22.30    4.40
   0   8  -1   40.10    6.00
   0   8  -1   34.90    5.10
   0   8  -1   51.19    6.40
   0   8  -1   40.80    8.90
  -1   8  -1    1.70    1.80
  -1   8  -1   -0.20    2.40
  -1   8  -1    4.40    2.50
  -2   8  -1   12.10    3.10
  -2   8  -1   16.20    4.10
  -2   8  -1   11.20    3.00
  -3   8  -1   31.80    4.50
  -3   8  -1   16.00    4.30
  -3   8  -1   17.60    3.40
   3  -8   1   19.70    4.90
  -4   8  -1    2.10    2.00
  -4   8  -1    0.10    1.90
  -4   8  -1   -1.50    2.60
   4  -8   1    0.30    3.00
  -5   8  -1    8.80    4.10
  -5   8  -1    6.70    2.20
  -5   8  -1   13.40    2.70
   5  -8   1    0.40    3.20
   9   7  -1    9.50    4.10
   9   7  -1   12.90    5.10
   9   7  -1   14.50    4.70
  -9  -7   1    7.60    4.40
   8   7  -1   17.50    5.40
   8   7  -1   14.10    4.30
   8   7  -1   10.70    4.00
  -8  -7   1   16.10    4.80
   7   7  -1   -1.50    2.10
   7   7  -1   -0.60    2.00
   7   7  -1   -0.70    2.20
  -7  -7   1    1.70    2.80
   6   7  -1   25.10    5.30
   6   7  -1   20.40    4.40
   6   7  -1   19.40    4.90
  -6  -7   1   13.30    4.30
   5   7  -1  343.37   19.40
   5   7  -1  360.96   19.40
   5   7  -1  358.66   19.60
   4   7  -1    5.00    2.70
   4   7  -1    4.80    2.60
   4   7  -1    5.90    2.80
  -4  -7   1   10.00    3.40
   3   7  -1   40.60    5.80
   3   7  -1   29.00    5.00
  -3  -7   1   41.00    6.00
   2   7  -1    2.90    2.40
   2   7  -1    1.30    1.80
  -2  -7   1    1.60    2.20
  -2  -7   1    2.80    2.10
   1   7  -1   32.10    4.90
   1   7  -1   39.40    5.40
  -1  -7   1   24.60    4.30
   0   7  -1   41.40    5.80
   0   7  -1   33.30    4.90
   0   7  -1   47.00    5.90
   0  -7   1   37.30    5.10
  -1   7  -1    6.60    3.00
  -1   7  -1    4.70    2.20
  -1   7  -1    7.20    3.00
  -2   7  -1   96.49    7.00
  -2   7  -1   90.29    6.80
  -2   7  -1  102.99    8.00
  -3   7  -1   -0.20    2.20
  -3   7  -1   -1.70    1.30
  -3   7  -1   -0.40    1.60
   3  -7   1   -0.70    2.20
  -4   7  -1   11.90    3.90
  -4   7  -1    9.00    2.40
  -4   7  -1   13.80    2.80
   4  -7   1   14.30    4.20
  -5   7  -1   92.09    9.70
  -5   7  -1   88.99    5.50
   5  -7   1   63.69    8.60
   9   6  -1   -1.10    2.30
   9   6  -1   -0.20    2.30
  -9  -6   1   -1.30    2.50
   8   6  -1   17.50    4.90
   8   6  -1   12.80    3.80
   8   6  -1   14.20    4.20
  -8  -6   1   13.30    4.50
   7   6  -1    1.90    2.80
   7   6  -1    6.50    3.00
   7   6  -1    1.10    2.40
  -7  -6   1    6.70    3.30
   6   6  -1   -0.10    2.10
   6   6  -1    5.00    2.70
   6   6  -1    2.90    2.50
  -6  -6   1    2.80    2.60
   5   6  -1  152.38   10.50
   5   6  -1  157.28   10.60
   5   6  -1  153.18   10.40
  -5  -6   1  144.49   10.30
   4   6  -1   10.50    2.90
   4   6  -1   11.80    3.40
   4   6  -1   13.60    3.50
  -4  -6   1    9.80    3.20
   3   6  -1  110.19    8.50
   3   6  -1  130.49    8.70
  -3  -6   1  120.19    8.70
  -3  -6   1  132.69    8.80
   2   6  -1   81.49    6.70
   2   6  -1  101.69    7.30
  -2  -6   1   91.69    7.10
  -2  -6   1   88.59    7.10
   1   6  -1   12.70    3.10
   1   6  -1   21.60    4.20
   1   6  -1   23.20    4.00
  -1  -6   1   16.00    3.30
   0   6  -1   62.59    5.50
   0   6  -1   71.19    6.10
   0   6  -1   67.69    5.90
   0  -6   1   68.79    5.80
  -1   6  -1    1.30    1.50
  -1   6  -1   -2.30    2.00
   1  -6   1   -0.10    1.40
   1  -6   1   -2.10    1.90
  -2   6  -1  122.99    8.70
  -2   6  -1  124.59    7.90
   2  -6   1  135.89    9.20
  -3   6  -1   -1.30    1.30
  -3   6  -1   -1.10    1.40
  -3   6  -1   -0.10    2.10
   3  -6   1   -0.80    2.20
  -4   6  -1    0.30    1.30
  -4   6  -1    1.90    1.40
  -4   6  -1   -0.80    2.20
   4  -6   1   -2.30    2.20
  -5   6  -1   11.30    1.80
  -5   6  -1   13.20    4.30
  -5   6  -1    9.90    2.00
   5  -6   1    3.50    3.10
  -6   6  -1    2.20    3.50
   6  -6   1    5.20    3.90
   9   5  -1   11.10    3.50
   9   5  -1   13.10    3.70
  -9  -5   1    6.40    4.00
   8   5  -1    4.00    2.50
   8   5  -1    2.70    2.80
   8   5  -1   12.60    4.20
  -8  -5   1    8.80    3.90
   7   5  -1    7.60    2.80
   7   5  -1   12.50    3.40
   7   5  -1    2.90    2.60
  -7  -5   1    8.10    3.40
   6   5  -1  103.09    8.00
   6   5  -1   96.29    8.10
   6   5  -1   84.59    7.40
  -6  -5   1  109.69    8.30
   5   5  -1    2.30    2.20
   5   5  -1    4.10    2.40
   5   5  -1    2.30    1.90
  -5  -5   1   -1.20    1.60
   4   5  -1  212.18   12.20
   4   5  -1  210.98   12.20
  -4  -5   1  196.08   12.00
  -4  -5   1  210.68   12.10
   3   5  -1  782.72   35.90
  -3  -5   1  801.42   35.90
  -3  -5   1  773.42   35.70
   2   5  -1  159.58    9.90
   2   5  -1  170.38   10.00
  -2  -5   1  165.48   10.00
  -2  -5   1  175.28   10.10
   1   5  -1   99.99    7.20
   1   5  -1  104.79    7.20
  -1  -5   1  116.19    7.40
   0   5  -1    9.10    2.80
   0   5  -1    6.90    2.20
   0   5  -1    6.70    2.70
   0  -5   1    8.10    2.40
  -1   5  -1    0.90    1.30
  -1   5  -1    0.30    2.00
   1  -5   1   -1.90    1.80
   1  -5   1    1.20    1.50
  -2   5  -1    5.70    1.90
  -2   5  -1    2.90    2.20
   2  -5   1    5.50    1.80
   2  -5   1    7.30    2.80
  -3   5  -1   22.50    4.10
  -3   5  -1   19.00    2.80
   3  -5   1   21.70    4.10
  -4   5  -1   18.80    2.40
  -4   5  -1   17.80    4.00
  -4   5  -1   17.10    2.40
  -5   5  -1    0.40    0.80
  -5   5  -1    1.50    2.70
   5  -5   1   -2.50    2.60
  -6   5  -1    6.70    3.50
   6  -5   1   11.20    4.00
  -7   5  -1   40.30    6.80
   7  -5   1   16.60    5.10
   9   4  -1   21.50    4.20
   9   4  -1   25.20    5.50
   9   4  -1   27.40    4.80
  -9  -4   1   31.10    6.40
   8   4  -1   19.00    4.60
   8   4  -1    8.80    3.00
   8   4  -1    8.40    2.80
  -8  -4   1   12.40    4.20
   7   4  -1   -0.10    2.50
   7   4  -1   -0.10    1.80
   7   4  -1    0.70    1.80
  -7  -4   1    1.10    2.60
   6   4  -1   28.00    4.50
   6   4  -1   45.80    6.20
   6   4  -1   42.00    5.10
  -6  -4   1   37.10    5.70
   5   4  -1    6.70    2.60
   5   4  -1    1.70    1.70
   5   4  -1    3.50    2.20
  -5  -4   1    2.10    2.30
   4   4  -1    1.70    1.80
   4   4  -1    0.40    1.70
  -4  -4   1    1.20    1.80
  -4  -4   1   -0.90    1.30
   3   4  -1   78.79    6.10
   3   4  -1   79.59    6.10
  -3  -4   1   78.69    6.10
  -3  -4   1   82.59    6.10
   2   4  -1   64.99    5.40
   2   4  -1   70.79    5.40
  -2  -4   1   62.69    5.30
  -2  -4   1   69.09    5.50
   1   4  -1   16.60    3.00
   1   4  -1   16.00    3.10
  -1  -4   1   14.00    2.90
  -1  -4   1   13.40    3.00
   0   4  -1    0.40    1.80
   0   4  -1    0.60    1.40
   0   4  -1   -0.90    1.70
   0  -4   1    0.20    1.50
  -1   4  -1   45.50    4.90
  -1   4  -1   41.00    3.70
   1  -4   1   47.40    5.00
   1  -4   1   30.10    3.70
  -2   4  -1    3.80    2.40
   2  -4   1    1.00    1.40
   2  -4   1    5.70    2.70
  -3   4  -1   19.90    2.50
  -3   4  -1   22.10    3.70
  -3   4  -1   20.30    2.60
   3  -4   1   19.70    3.90
   3  -4   1   13.30    2.40
  -4   4  -1    0.90    2.20
  -4   4  -1    1.30    1.10
   4  -4   1    1.10    2.20
  -5   4  -1   13.70    4.60
   5  -4   1   18.40    4.30
  -6   4  -1   14.60    4.20
   6  -4   1   10.50    3.90
  -7   4  -1    0.80    2.80
   7  -4   1    1.80    3.20
   9   3  -1    0.10    2.00
   9   3  -1    0.80    1.80
   9   3  -1   -0.70    3.00
  -9  -3   1    2.20    3.30
   8   3  -1    2.80    2.80
   8   3  -1    0.50    1.90
   8   3  -1    0.30    1.90
  -8  -3   1    4.00    2.90
   7   3  -1   30.80    4.30
   7   3  -1   32.10    4.50
   7   3  -1   33.60    5.40
  -7  -3   1   28.20    5.30
   6   3  -1    8.00    2.90
   6   3  -1    6.90    2.20
   6   3  -1    2.30    2.00
  -6  -3   1    9.00    3.20
   5   3  -1  152.48    9.10
   5   3  -1  144.89    9.50
   5   3  -1  146.09    8.90
  -5  -3   1  165.58    9.90
   4   3  -1  175.18   10.00
   4   3  -1  167.28    9.60
  -4  -3   1  165.48    9.90
  -4  -3   1  165.88    9.40
   3   3  -1   11.80    2.70
   3   3  -1   16.10    3.00
  -3  -3   1   12.30    2.80
  -3  -3   1   12.90    2.70
   2   3  -1   10.40    2.40
   2   3  -1   12.50    2.60
  -2  -3   1   11.60    2.50
  -2  -3   1   16.50    2.90
   1   3  -1   51.49    4.20
   1   3  -1   42.20    4.00
  -1  -3   1   42.80    4.10
  -1  -3   1   43.30    4.10
   0   3  -1    2.10    1.40
   0   3  -1    1.50    1.80
   0   3  -1    0.70    1.70
   0  -3   1    3.50    1.80
  -1   3  -1  280.07   13.60
  -1   3  -1  267.47   13.00
   1  -3   1  280.67   13.70
  -2   3  -1   91.49    5.40
  -2   3  -1   98.59    6.60
   2  -3   1   91.29    5.50
   2  -3   1  106.39    6.80
  -3   3  -1    6.30    2.50
  -3   3  -1    3.40    1.30
   3  -3   1    4.40    1.20
   3  -3   1    5.10    2.40
  -4   3  -1    6.10    2.60
  -4   3  -1   10.50    1.30
   4  -3   1    5.30    2.50
  -5   3  -1    9.30    3.10
   5  -3   1   11.20    3.50
  -6   3  -1   -0.90    2.30
   6  -3   1    1.00    2.70
  -7   3  -1   22.70    5.30
   7  -3   1   26.10    5.20
  -8   3  -1   11.50    4.50
   8  -3   1   -2.60    5.50
   9   2  -1   20.10    3.20
   9   2  -1   17.90    4.90
   9   2  -1   19.10    3.30
  -9  -2   1   16.50    5.00
   8   2  -1   -1.40    1.50
   8   2  -1    2.50    1.80
   8   2  -1   -1.70    2.40
  -8  -2   1   -0.40    2.40
   7   2  -1  155.98    9.10
   7   2  -1  157.88   10.90
   7   2  -1  168.18    9.40
   6   2  -1   96.09    6.50
   6   2  -1  103.39    7.70
   6   2  -1   96.59    6.50
  -6  -2   1  106.09    7.80
   5   2  -1  209.18   10.90
   5   2  -1  226.08   12.10
   5   2  -1  187.18   10.70
  -5  -2   1  214.08   11.90
   4   2  -1    1.40    1.80
   4   2  -1   -0.50    1.40
  -4  -2   1    0.90    1.30
  -4  -2   1   -1.40    1.60
   3   2  -1   53.59    4.50
   3   2  -1   52.19    4.70
  -3  -2   1   50.69    4.10
  -3  -2   1   50.09    4.40
   2   2  -1   22.70    2.90
   2   2  -1   22.10    3.00
  -2  -2   1   20.60    2.80
  -2  -2   1   21.40    2.90
   1   2  -1  316.77   14.50
   1   2  -1  319.67   14.60
  -1  -2   1  316.17   14.60
  -1  -2   1  306.97   14.50
   0   2  -1  733.23   30.30
   0   2  -1  693.03   30.20
   0  -2   1  690.23   30.20
   0  -2   1  685.43   30.20
  -1   2  -1  300.37   14.40
   1  -2   1  309.97   14.50
   1  -2   1  308.07   13.90
  -2   2  -1   16.20    1.90
  -2   2  -1   30.00    3.70
   2  -2   1   19.30    3.20
   2  -2   1   21.70    2.40
  -3   2  -1   63.89    5.10
  -3   2  -1   57.39    3.30
   3  -2   1   51.19    4.90
   3  -2   1   59.99    3.40
  -4   2  -1   17.40    3.50
   4  -2   1   13.60    2.80
  -5   2  -1    2.60    2.50
   5  -2   1    3.40    2.50
   6  -2   1   18.90    4.10
  -7   2  -1    5.10    3.30
   7  -2   1   -1.00    2.50
  -8   2  -1    1.00    3.10
   8  -2   1   -1.30    2.90
   9   1  -1   33.70    4.80
   9   1  -1   18.10    4.70
  -9  -1   1   24.70    5.60
   8   1  -1    2.80    3.00
   8   1  -1   -0.10    1.50
   8   1  -1    4.10    1.60
  -8  -1   1    1.30    2.80
   7   1  -1   41.70    6.10
   7   1  -1   72.49    4.70
   6   1  -1  133.39    7.20
   6   1  -1  106.29    6.90
   6   1  -1  144.59    9.10
  -6  -1   1  132.09    8.90
   5   1  -1  289.07   14.90
   5   1  -1  273.47   13.40
   5   1  -1  277.57   13.40
  -5  -1   1  294.97   15.00
   4   1  -1    0.30    1.20
   4   1  -1    1.10    1.60
  -4  -1   1   -0.20    1.60
   3   1  -1    3.70    1.70
   3   1  -1    2.50    1.30
  -3  -1   1    2.80    1.40
  -3  -1   1    3.00    1.70
   2   1  -1  640.84   26.40
   2   1  -1  620.44   26.60
  -2  -1   1  574.94   26.40
  -2  -1   1  600.34   26.30
   1   1  -1  685.33   29.50
   1   1  -1  716.13   29.60
  -1  -1   1  657.13   29.50
  -1  -1   1  714.73   29.60
   0   1  -1  163.98    7.60
   0   1  -1  155.08    7.60
   0  -1   1  158.68    7.60
   0  -1   1  173.58    7.70
  -1   1  -1  200.08    9.30
  -1   1  -1  182.08    8.60
   1  -1   1  180.58    9.20
   1  -1   1  203.88    8.70
  -2   1  -1 1391.66   57.39
   2  -1   1 1406.86   57.39
   2  -1   1 1341.87   58.49
  -3   1  -1   16.10    3.00
  -3   1  -1   11.60    1.40
   3  -1   1   12.60    1.40
   3  -1   1   12.40    1.40
   3  -1   1   15.20    2.90
  -4   1  -1    0.30    1.80
  -4   1  -1   -0.60    0.70
   4  -1   1   -1.20    1.70
   4  -1   1    1.10    0.80
  -5   1  -1    1.20    2.10
   5  -1   1    0.70    2.00
  -6   1  -1   90.49    7.30
   6  -1   1   77.89    9.10
  -7   1  -1   21.20    4.70
   7  -1   1   17.40    4.20
  -8   1  -1    0.00    2.80
   8  -1   1    1.40    3.10
  -9   1  -1    5.40    4.00
   9   0  -1   24.40    5.70
  -9   0   1   26.30    5.90
   8   0  -1    3.00    3.00
  -8   0   1    4.60    3.40
   7   0  -1   47.00    6.00
  -7   0   1   67.59   11.50
   6   0  -1   20.00    4.00
   6   0  -1   12.30    1.70
   6   0  -1   15.70    2.00
  -6   0   1   17.00    3.90
   5   0  -1   25.10    4.00
   5   0  -1   23.20    2.30
   5   0  -1   18.70    2.10
  -5   0   1   19.00    3.60
   4   0  -1    0.60    1.80
   4   0  -1    2.40    1.10
   4   0  -1    1.90    1.00
  -4   0   1    1.60    1.80
   3   0  -1   80.49    4.30
   3   0  -1   81.39    5.40
  -3   0   1   85.49    4.30
  -3   0   1   77.29    5.30
   2   0  -1   58.29    4.00
   2   0  -1   62.59    3.40
  -2   0   1   59.19    4.00
  -2   0   1   62.09    3.40
   1   0  -1    5.30    1.00
   1   0  -1    7.00    1.00
  -1   0   1    5.00    1.20
  -1   0   1    5.00    1.00
   0   0  -1   10.00    0.90
  -1   0  -1   10.00    1.60
  -1   0  -1    9.30    1.20
   1   0   1   10.60    1.60
   1   0   1   11.30    1.20
  -2   0  -1  170.68    8.50
  -2   0  -1  197.08    9.50
   2   0   1  190.68    8.50
   2   0   1  208.48    9.80
  -3   0  -1  189.48    8.50
  -3   0  -1  188.98    9.90
   3   0   1  176.98    8.40
   3   0   1  182.98    9.80
  -4   0  -1    1.10    2.00
  -4   0  -1    0.20    0.90
   4   0   1    0.70    2.00
   4   0   1    0.70    0.90
  -5   0  -1  231.58   12.80
   5   0   1  235.18   12.80
   5   0   1  211.28   10.10
  -6   0  -1    6.50    3.10
   6   0   1    5.50    1.20
   6   0   1    5.10    1.10
   6   0   1    9.00    3.30
  -7   0  -1    3.00    2.70
   7   0   1    3.10    2.80
  -8   0  -1   -0.80    2.40
   8   0   1   -1.30    2.80
  -9   0  -1    2.40    3.70
   9  -1  -1    3.40    3.70
  -9   1   1    5.50    3.90
   8  -1  -1   -2.40    2.70
  -8   1   1   -1.60    2.60
   7  -1  -1   50.39    6.50
  -7   1   1   56.39    7.30
   6  -1  -1   12.70    3.40
  -6   1   1    2.60    2.20
   5  -1  -1  137.49    8.80
  -5   1   1  135.19    8.70
   4  -1  -1  340.37   16.40
  -4   1   1  326.37   16.30
   3  -1  -1   38.80    4.00
  -3   1   1   33.10    3.60
   2  -1  -1 1000.80   42.50
   2  -1  -1  999.80   41.60
  -2   1   1 1016.50   42.60
  -2   1   1 1001.60   41.60
   1  -1  -1   -0.30    0.90
   1  -1  -1    0.50    0.60
  -1   1   1   -0.50    0.50
  -1   1   1    0.90    0.80
   0  -1  -1  308.87   13.30
  -1  -1  -1  669.83   29.40
  -1  -1  -1  719.73   29.40
   1   1   1  703.93   29.40
   1   1   1  687.83   29.40
  -2  -1  -1   23.50    2.30
  -2  -1  -1   22.10    2.80
   2   1   1   21.20    2.20
   2   1   1   19.60    3.10
  -3  -1  -1   36.30    4.00
  -3  -1  -1   34.40    2.90
   3   1   1   36.10    2.90
   3   1   1   39.10    4.20
  -4  -1  -1   29.40    3.90
  -4  -1  -1   20.30    2.40
   4   1   1   21.60    2.50
   4   1   1   23.10    3.70
  -5  -1  -1   48.40    5.70
   5   1   1   49.80    5.50
   5   1   1   43.60    3.40
  -6  -1  -1    2.20    2.40
   6   1   1    8.40    3.20
   6   1   1    5.40    1.60
   6   1   1    2.90    1.40
  -7  -1  -1    2.00    2.40
   7   1   1    1.60    1.30
   7   1   1    5.50    3.10
   7   1   1    3.10    1.40
  -8  -1  -1   14.00    4.60
   8   1   1   14.20    4.20
   8   1   1   13.10    2.10
  -9  -1  -1    5.90    4.10
   8  -2  -1   15.00    4.50
  -8   2   1   11.30    4.20
   7  -2  -1   97.99    8.50
  -7   2   1  112.69    8.90
   6  -2  -1   48.70    5.80
  -6   2   1   49.40    6.10
   5  -2  -1   -0.90    1.90
  -5   2   1   -1.40    1.60
   4  -2  -1   16.20    3.00
  -4   2   1   11.20    2.90
   3  -2  -1  134.69    7.60
  -3   2   1  134.39    7.70
   2  -2  -1  257.47   12.50
  -2   2   1  248.28   11.70
  -2   2   1  241.08   10.70
   1  -2  -1  537.35   21.70
   1  -2  -1  489.15   21.40
  -1   2   1  507.65   21.60
  -1   2   1  475.55   21.40
   0  -2  -1  227.88   10.20
   0   2   1  219.08    9.90
   0   2   1  219.88   10.20
  -1  -2  -1   73.99    4.50
  -1  -2  -1   83.19    4.40
   1   2   1   78.19    4.50
   1   2   1   71.89    4.20
  -2  -2  -1   16.20    2.30
  -2  -2  -1   20.90    2.80
   2   2   1   15.30    2.30
  -3  -2  -1  150.38    8.70
  -3  -2  -1  162.98    8.40
   3   2   1  171.88    9.10
   3   2   1  153.38    8.70
  -4  -2  -1    7.60    2.50
  -4  -2  -1    6.50    1.90
   4   2   1    7.80    1.90
   4   2   1   10.70    2.80
  -5  -2  -1   82.59    6.60
   5   2   1   87.89    6.70
   5   2   1   83.59    5.40
   5   2   1   82.89    5.50
  -6  -2  -1    6.30    3.00
   6   2   1    8.00    2.10
   6   2   1    6.30    2.00
   6   2   1    9.30    3.10
  -7  -2  -1   53.19    7.30
   7   2   1   46.90    4.20
   7   2   1   44.90    4.10
   7   2   1   41.80    6.20
  -8  -2  -1   -0.80    2.40
   8   2   1    1.10    2.80
   8   2   1    1.70    1.70
   8   2   1    2.30    1.70
  -9  -2  -1   24.40    5.80
   9   2   1    5.40    3.50
   9   2   1   28.90    3.70
   9   2   1   22.60    3.20
   8  -3  -1   31.40    6.00
  -8   3   1   34.40    6.30
   7  -3  -1   -0.70    2.40
  -7   3   1    2.40    2.50
  -6   3   1   -0.20    2.20
   5  -3  -1    1.10    2.10
  -5   3   1    1.30    2.10
   4  -3  -1   62.89    5.50
  -4   3   1   64.89    5.40
   3  -3  -1  119.49    7.30
  -3   3   1  111.19    7.10
  -3   3   1  118.69    5.40
   2  -3  -1  302.57   13.90
  -2   3   1  283.97   13.70
  -2   3   1  279.07   12.80
  -2   3   1  292.27   12.90
   1  -3  -1 4387.96  187.28
  -1   3   1 4147.29  186.18
   0  -3  -1    3.60    1.50
   0   3   1    3.70    1.50
   0   3   1    2.20    1.30
   0   3   1    1.70    1.30
  -1  -3  -1  241.98   12.20
  -1  -3  -1  261.57   12.00
   1   3   1  253.07   11.90
   1   3   1  262.17   13.10
  -2  -3  -1  133.09    7.30
  -2  -3  -1  132.29    7.50
   2   3   1  130.89    7.50
   2   3   1  125.49    7.20
  -3  -3  -1   98.19    6.40
  -3  -3  -1   96.79    6.30
   3   3   1   96.39    6.40
  -4  -3  -1  148.49    9.00
   4   3   1  150.58    9.10
   4   3   1  152.88    8.70
  -5  -3  -1  149.09    9.50
   5   3   1  152.38    8.60
   5   3   1  145.39    8.70
   5   3   1  149.88    9.50
  -6  -3  -1   12.00    3.50
   6   3   1   12.00    3.50
   6   3   1   13.70    3.00
   6   3   1   12.50    2.80
  -7  -3  -1   56.29    7.10
   7   3   1   56.39    5.00
   7   3   1   49.50    6.50
   7   3   1   55.19    5.00
  -8  -3  -1   -0.80    2.50
   8   3   1    1.60    1.90
   8   3   1    4.00    3.40
   8   3   1    2.20    2.10
  -9  -3  -1   -3.10    2.50
   9   3   1    0.80    2.60
   9   3   1    0.00    2.00
   9   3   1   -0.20    1.70
   8  -4  -1    5.70    4.00
  -8   4   1    7.40    3.80
   7  -4  -1    5.20    3.30
  -7   4   1    4.60    3.10
   6  -4  -1    0.40    2.90
   5  -4  -1    1.40    2.40
  -5   4   1   -1.40    1.70
   4  -4  -1   88.39    6.70
  -4   4   1   86.79    6.50
   3  -4  -1   92.49    6.20
  -3   4   1   90.79    6.00
  -3   4   1   73.79    4.40
  -3   4   1   80.49    4.50
   2  -4  -1  166.08    9.00
  -2   4   1  164.78    8.80
  -2   4   1  155.38    8.00
  -2   4   1  152.08    8.00
   1  -4  -1  741.63   31.40
  -1   4   1  688.63   31.00
  -1   4   1  761.42   31.60
  -1   4   1  675.53   31.20
   0   4   1   22.80    3.30
   0   4   1   32.50    3.50
   0   4   1   26.00    3.20
   0   4   1   31.50    3.50
  -1  -4  -1   36.40    4.10
  -1  -4  -1   40.40    4.10
   1   4   1   47.80    4.50
   1   4   1   33.40    4.10
  -2  -4  -1   42.20    4.10
  -2  -4  -1   46.70    4.70
   2   4   1   53.79    5.10
   2   4   1   45.90    4.10
  -3  -4  -1  185.98   10.10
   3   4   1  177.88   10.10
   3   4   1  178.28   10.00
   3   4   1  176.08    9.90
  -4  -4  -1  100.99    7.00
   4   4   1  100.09    6.80
   4   4   1   96.19    6.90
   4   4   1   88.09    6.50
  -5  -4  -1   54.29    6.40
   5   4   1   53.89    5.70
   5   4   1   43.70    5.60
   5   4   1   44.90    5.00
  -6  -4  -1   53.39    6.70
   6   4   1   59.89    5.30
   6   4   1   53.69    6.60
   6   4   1   56.19    5.20
  -7  -4  -1    3.10    2.60
   7   4   1   -2.00    1.80
   7   4   1   -1.20    1.70
   7   4   1    1.50    2.10
  -8  -4  -1   15.00    4.80
   8   4   1   16.00    4.40
   8   4   1   12.70    3.20
   8   4   1    9.80    3.00
  -9  -4  -1    1.20    3.10
   9   4   1   -1.70    1.90
   9   4   1   -1.00    1.90
   9   4   1   -0.90    2.50
   7  -5  -1    4.50    3.50
  -7   5   1    3.20    3.30
   6  -5  -1    1.70    2.80
  -6   5   1    4.40    3.00
   5  -5  -1   14.10    4.30
  -5   5   1   13.60    3.50
   4  -5  -1   55.19    6.30
  -4   5   1   38.50    2.80
  -4   5   1   49.90    5.70
  -4   5   1   43.60    2.70
   3  -5  -1  347.37   17.40
  -3   5   1  354.36   16.20
  -3   5   1  325.17   15.70
  -3   5   1  350.26   17.10
   2  -5  -1   14.00    3.10
  -2   5   1    7.50    2.30
  -2   5   1    9.40    2.10
   1  -5  -1    2.20    2.00
  -1   5   1    1.40    1.70
  -1   5   1    4.60    1.70
  -1   5   1    2.20    1.50
   0   5   1   46.50    4.10
   0   5   1   49.80    4.20
   0   5   1   43.10    4.00
   0   5   1   45.20    4.10
  -1  -5  -1   50.29    4.50
   1   5   1   55.29    4.80
   1   5   1   55.09    4.40
   1   5   1   51.49    4.60
  -2  -5  -1   29.80    4.10
   2   5   1   30.60    4.20
   2   5   1   28.50    4.00
   2   5   1   25.00    3.80
  -3  -5  -1  157.78    9.50
   3   5   1  167.98    9.90
   3   5   1  158.78    9.60
   3   5   1  157.08    9.40
  -4  -5  -1    2.70    2.20
   4   5   1    2.60    1.90
   4   5   1    1.70    1.80
   4   5   1    3.00    2.10
  -5  -5  -1  109.19    7.80
   5   5   1   98.49    7.40
   5   5   1   97.69    7.30
   5   5   1   99.69    7.70
  -6  -5  -1    4.60    2.60
   6   5   1    2.10    2.10
   6   5   1    1.90    2.00
  -7  -5  -1   14.10    4.00
   7   5   1   17.40    3.80
   7   5   1   12.30    3.80
   7   5   1   12.20    3.40
  -8  -5  -1    0.00    2.70
   8   5   1   -0.60    2.10
   8   5   1    3.50    3.30
   8   5   1    1.90    2.30
  -9  -5  -1  109.39   10.30
   9   5   1  112.09    8.70
   9   5   1  109.29    8.60
   7  -6  -1   -3.40    3.20
   6  -6  -1    2.00    3.20
  -6   6   1   -1.40    2.70
   5  -6  -1   -0.90    2.50
  -5   6   1    1.00    2.90
   4  -6  -1    0.20    2.60
  -4   6   1   -0.10    1.10
  -4   6   1    0.60    2.20
  -4   6   1    0.20    1.20
   3  -6  -1   79.29    6.70
  -3   6   1   81.09    5.40
  -3   6   1   78.49    5.30
  -3   6   1   77.59    6.30
   2  -6  -1   17.40    3.60
  -2   6   1   17.80    2.90
  -2   6   1   16.10    2.70
  -2   6   1   14.70    3.20
  -1   6   1  133.59    8.00
  -1   6   1  125.79    7.80
  -1   6   1  125.29    7.90
   0   6   1    4.10    2.10
   0   6   1    2.80    1.60
   0   6   1    0.90    1.80
   0   6   1    2.90    1.80
  -1  -6  -1   34.70    4.80
   1   6   1   33.60    4.40
   1   6   1   21.20    3.80
   1   6   1   26.20    4.00
  -2  -6  -1  144.29    9.00
   2   6   1  148.69    8.90
   2   6   1  140.79    9.10
   2   6   1  144.09    9.30
  -3  -6  -1   67.09    5.80
   3   6   1   60.89    5.70
   3   6   1   68.79    5.60
   3   6   1   65.19    5.90
  -4  -6  -1   70.69    7.50
   4   6   1   67.39    7.10
   4   6   1   62.29    7.00
   4   6   1   55.29    6.40
  -5  -6  -1   -0.30    1.70
   5   6   1    3.10    2.50
   5   6   1    2.20    2.30
   5   6   1    0.40    1.80
  -6  -6  -1   21.30    4.60
   6   6   1   22.30    4.80
   6   6   1   18.50    3.90
   6   6   1   18.10    4.00
  -7  -6  -1    0.60    2.20
   7   6   1   -0.80    2.00
   7   6   1    2.90    2.50
   7   6   1    1.40    2.00
  -8  -6  -1  149.59   12.00
   8   6   1  181.28   11.60
   8   6   1  166.98   12.20
   8   6   1  162.08   11.50
  -9  -6  -1    1.80    3.00
   9   6   1    6.10    3.30
   9   6   1    2.90    3.20
   6  -7  -1    2.80    3.40
  -6   7   1    1.10    3.00
   5  -7  -1    1.40    2.90
  -5   7   1    2.30    2.90
   4  -7  -1    6.10    3.30
  -4   7   1   13.60    3.70
  -4   7   1    9.60    2.10
  -4   7   1    6.30    2.00
   3  -7  -1   36.70    5.50
  -3   7   1   34.00    4.80
  -3   7   1   42.70    3.90
  -3   7   1   37.90    4.40
   2  -7  -1   -1.30    1.90
  -2   7   1   -0.40    1.40
  -2   7   1    0.20    1.90
  -2   7   1    4.50    1.90
  -1   7   1  210.38   11.40
  -1   7   1  189.28   11.50
  -1   7   1  195.38   11.20
  -1   7   1  204.58   11.50
   0   7   1    5.30    2.30
   0   7   1    7.40    2.40
   0   7   1    7.00    2.40
   0   7   1   11.30    2.90
   1   7   1  184.88   11.00
   1   7   1  201.08   11.60
   1   7   1  187.38   11.00
   1   7   1  201.68   11.60
  -2  -7  -1  201.98   11.80
   2   7   1  207.68   12.20
   2   7   1  208.18   12.30
   2   7   1  198.48   11.60
  -3  -7  -1    5.20    2.50
   3   7   1    0.50    2.00
   3   7   1    3.10    2.10
   3   7   1    2.70    2.60
  -4  -7  -1  363.06   18.90
   4   7   1  361.06   19.10
   4   7   1  366.26   18.80
   4   7   1  340.37   19.00
  -5  -7  -1    1.60    2.10
   5   7   1    2.80    2.40
   5   7   1    0.70    2.30
   5   7   1    0.30    2.10
  -6  -7  -1   17.70    4.30
   6   7   1   12.90    4.20
   6   7   1   13.00    3.80
   6   7   1   24.60    4.90
  -7  -7  -1   23.00    5.20
   7   7   1   23.30    5.10
   7   7   1   20.80    7.40
   7   7   1   35.10    5.90
  -8  -7  -1   24.00    5.50
   8   7   1   35.40    5.80
   8   7   1   50.09    6.80
  -9  -7  -1   69.29    9.70
   9   7   1   71.99    8.60
   9   7   1   74.79    9.20
   5  -8  -1    3.30    3.60
  -5   8   1    2.50    1.50
  -5   8   1    5.30    3.10
   4  -8  -1    4.80    3.10
  -4   8   1    1.30    1.60
  -4   8   1    3.60    2.00
  -4   8   1    5.10    3.00
   3  -8  -1   67.19    8.00
  -3   8   1   79.59    7.00
  -3   8   1   71.99    5.80
  -3   8   1   72.89    5.80
  -2   8   1   12.10    3.20
  -2   8   1   18.60    3.80
  -2   8   1   16.40    3.20
  -1   8   1    3.10    2.60
  -1   8   1    1.10    1.80
  -1   8   1    5.50    2.80
  -1   8   1    3.60    2.00
   0   8   1   21.00    4.00
   0   8   1   24.90    4.30
   0   8   1   19.60    3.80
   0   8   1   20.20    3.80
   1   8   1    5.00    2.50
   1   8   1    7.20    2.60
   1   8   1    5.70    2.60
   1   8   1    6.60    2.60
  -2  -8  -1   22.00    4.50
   2   8   1   16.70    3.80
   2   8   1   10.70    3.50
   2   8   1   21.60    4.30
  -3  -8  -1  106.99    8.40
   3   8   1  124.29    8.50
   3   8   1  106.89    8.70
   3   8   1  118.19    9.00
  -4  -8  -1   83.19    7.40
   4   8   1   84.09    7.70
   4   8   1   82.89    7.30
   4   8   1   97.49   10.60
   5   8   1   10.70    3.60
   5   8   1   10.10    3.60
  -6  -8  -1    2.50    2.70
   6   8   1    9.70    3.30
   6   8   1    7.10    3.40
   6   8   1    4.60    3.10
  -7  -8  -1   15.10    4.60
   7   8   1   11.20    3.80
   7   8   1   10.90    4.00
   7   8   1   15.60    4.60
  -8  -8  -1    1.00    2.90
   8   8   1    4.40    3.10
   8   8   1   -0.80    2.90
  -9  -8  -1    8.30    6.30
   9   8   1    4.00    3.80
   9   8   1    6.90    3.70
   4  -9  -1   -0.10    3.00
  -4   9   1    2.20    3.20
  -4   9   1    3.20    2.00
  -4   9   1    2.00    1.90
   3  -9  -1    9.00    3.70
  -3   9   1    5.40    2.40
  -3   9   1    7.00    2.60
  -3   9   1    8.90    3.60
  -2   9   1   12.90    4.00
  -2   9   1   12.70    6.40
  -2   9   1   13.70    3.50
  -2   9   1   14.90    3.50
  -1   9   1    6.70    2.80
  -1   9   1    9.90    2.90
  -1   9   1   11.50    3.50
   0   9   1    2.90    2.60
   0   9   1    2.60    2.30
   0   9   1    3.30    2.60
   0   9   1    0.70    2.00
   1   9   1   25.10    5.00
   1   9   1   26.90    4.80
   1   9   1   35.60    5.60
   1   9   1   21.50    4.70
  -2  -9  -1   83.69    9.10
   2   9   1   71.19    8.00
   2   9   1   61.69    7.70
   2   9   1   77.19    8.40
  -3  -9  -1   93.09    9.60
   3   9   1   81.19    9.20
   3   9   1  106.49   12.30
   4   9   1    2.90    2.60
   4   9   1    5.30    2.90
   4   9   1    1.10    2.10
  -5  -9  -1   20.10    5.00
   5   9   1   25.50    5.30
   5   9   1   19.30    4.80
   5   9   1    9.40    3.60
  -6  -9  -1    0.40    2.30
   6   9   1    0.00    2.00
   6   9   1    2.60    2.60
   6   9   1   -0.60    1.90
  -7  -9  -1   59.19    8.70
   7   9   1   56.19    8.20
   7   9   1   44.00    7.30
   7   9   1   42.50    7.30
  -8  -9  -1   37.20    7.70
   8   9   1   30.40    6.40
   8   9   1   41.10    7.10
  -9  -9  -1   49.20    8.60
   9   9   1   42.50    7.50
   9   9   1   45.10    7.90
  -3  10   1   -2.10    1.90
  -3  10   1   -0.80    2.70
  -3  10   1   -0.50    2.00
  -3  10   1   -1.80    2.30
  -2  10   1   -1.80    1.80
  -2  10   1   -0.10    2.40
  -2  10   1   -0.40    1.90
  -2  10   1   -1.30    2.60
  -1  10   1    7.60    3.50
  -1  10   1    2.10    2.60
  -1  10   1    4.10    2.90
  -1  10   1    3.80    2.70
   0  10   1    4.90    3.00
   0  10   1    7.00    3.00
   0  10   1    6.50    3.40
   1  10   1   19.50    4.70
   1  10   1   24.60    5.60
   1  10   1   23.20    5.00
   1  10   1   23.80    4.90
   2  10   1  145.19   10.70
   2  10   1  126.69    9.90
   2  10   1  133.99   10.40
   2  10   1  141.89   10.20
  -3 -10  -1   14.00    4.50
   3  10   1   17.50    4.40
   3  10   1   13.80    4.30
   3  10   1    9.00    3.70
  -4 -10  -1   20.20    5.40
   4  10   1   19.00    4.90
   4  10   1   21.80    5.40
   4  10   1   17.10    4.60
  -5 -10  -1   82.29   10.00
   5  10   1   75.29    9.90
   5  10   1   76.09    9.70
   5  10   1   81.19   10.00
  -6 -10  -1   -2.80    2.20
   6  10   1    3.20    3.00
   6  10   1    0.30    2.50
   6  10   1   -0.10    2.70
  -7 -10  -1  103.29   12.00
   7  10   1   82.49   10.30
   7  10   1  109.49   11.70
   7  10   1   81.09   10.10
  -8 -10  -1    0.70    3.20
   8  10   1    6.40    4.60
  -2  11   1    0.30    3.00
  -2  11   1    0.60    2.50
  -2  11   1    4.20    2.80
  -2  11   1   -1.30    2.90
  -1  11   1   16.10    4.20
  -1  11   1   11.70    3.80
  -1  11   1   13.70    4.30
  -1  11   1   10.90    3.90
   0  11   1   17.50    4.70
   0  11   1   16.30    4.30
   0  11   1   15.10    4.20
   0  11   1   19.90    4.80
   1  11   1   15.80    4.40
   1  11   1   13.50    4.40
   1  11   1   13.70    4.10
   1  11   1   19.00    4.80
   2  11   1    0.30    2.50
   2  11   1   -1.20    2.10
   2  11   1   -0.60    2.20
   2  11   1   -2.10    1.90
  -3 -11  -1   67.19    9.10
   3  11   1   56.79    7.80
   3  11   1   55.59    8.20
   3  11   1   53.79    7.90
  -4 -11  -1   23.30    5.70
   4  11   1   23.80    5.50
   4  11   1   20.70    5.20
   4  11   1   22.60    5.40
  -5 -11  -1    4.10    3.50
   5  11   1    4.80    3.60
   5  11   1    1.10    2.90
  -6 -11  -1    9.70    4.60
   6  11   1    7.60    4.30
   6  11   1   -0.50    2.40
   6  11   1    8.90    4.00
  -7 -11  -1   15.20    5.50
   7  11   1   29.00    6.50
  -1  12   1    2.00    2.70
  -1  12   1    1.40    3.30
  -1  12   1    1.20    3.30
  -1  12   1    6.30    3.40
   0  12   1   16.60    4.70
   0  12   1   11.20    4.10
   0  12   1   11.70    4.40
   0  12   1   12.90    4.60
   1  12   1    3.30    2.90
   1  12   1    8.90    3.70
   1  12   1    5.20    3.60
   1  12   1    6.70    3.90
   2  12   1    1.50    3.10
   2  12   1   -0.90    2.30
   2  12   1    0.70    3.00
   2  12   1   -1.10    2.30
   3  12   1    5.40    3.70
   3  12   1    5.60    3.30
   3  12   1    7.40    3.90
   3  12   1    2.00    2.90
  -4 -12  -1   23.20    6.10
   4  12   1   28.40    6.30
   4  12   1   18.60    5.30
   4  12   1   24.80    6.10
  -5 -12  -1   42.90    7.90
   5  12   1   37.10    7.60
   5  12   1   32.90    6.90
  -6 -12  -1   36.70    7.70
   6  12   1   24.00    6.60
   6  12   1   18.00    9.20
   2  13   1   32.50    6.70
   2  13   1   21.40    5.90
   2  13   1   31.30    6.70
   2  13   1   23.50    5.70
   3  13   1   -0.70    3.40
   3  13   1   -2.70    2.70
   3  13   1    3.80    3.70
   3  13   1    1.90    3.20
   4  13   1    2.70    3.70
   4  13   1    8.70    5.40
   4  13   1    4.90    4.20
  -5 -13  -1   11.80    6.10
   5  13   1   11.50    4.90
   5  13   1   15.60    5.60
   5  13   1   11.40    5.20
   4  12  -2   53.29    8.70
   4  12  -2   42.40    7.70
   4  12  -2   42.00    8.00
   4  12  -2   31.70    7.20
   3  12  -2   45.10    8.10
   3  12  -2   38.70    7.90
   2  12  -2  106.09   14.10
   2  12  -2   95.39   11.60
   2  12  -2   78.99   10.00
   6  11  -2   -0.50    3.40
   6  11  -2    4.30    3.60
  -6 -11   2    1.20    4.10
   5  11  -2    1.20    3.40
  -5 -11   2    7.20    4.10
   4  11  -2  118.89   13.50
   4  11  -2  104.79   12.30
  -4 -11   2  126.89   13.70
   3  11  -2   96.69   11.50
   3  11  -2   85.79   11.30
   3  11  -2   79.69   10.60
   3  11  -2   95.39   11.00
   2  11  -2    1.30    3.30
   2  11  -2   -0.40    2.90
   2  11  -2    2.10    3.70
   2  11  -2    2.30    3.20
   1  11  -2    2.70    3.30
   1  11  -2    3.50    4.00
   1  11  -2    5.30    3.70
   1  11  -2    1.60    2.90
   0  11  -2   17.30    4.40
   0  11  -2   11.90    4.20
   0  11  -2   13.00    5.20
   0  11  -2   11.00    4.70
  -1  11  -2    1.10    2.60
  -1  11  -2   -2.30    3.20
  -1  11  -2   -2.10    2.20
   7  10  -2    2.90    3.90
   6  10  -2    7.10    4.00
  -6 -10   2   13.00    5.00
   5  10  -2   11.70    4.60
  -5 -10   2   20.10    5.70
   4  10  -2   50.89    7.90
   4  10  -2   70.79    9.20
  -4 -10   2   61.29    9.20
   3  10  -2    1.70    3.30
   3  10  -2    4.10    3.10
   3  10  -2   -0.50    2.80
   3  10  -2   -1.60    2.10
   2  10  -2    2.00    2.90
   2  10  -2    0.70    2.50
   2  10  -2    2.10    2.60
   2  10  -2    0.30    2.90
   1  10  -2   37.40    6.50
   1  10  -2   36.90    6.70
   1  10  -2   45.10    6.70
   1  10  -2   30.10    6.00
   0  10  -2    5.60    4.10
   0  10  -2   10.70    4.10
   0  10  -2    9.80    3.40
   0  10  -2   10.10    3.40
  -1  10  -2    1.80    3.70
  -1  10  -2    0.10    2.20
  -1  10  -2    4.10    3.50
  -1  10  -2   -0.90    2.10
  -2  10  -2    0.70    2.50
  -2  10  -2    0.70    3.40
  -2  10  -2    0.00    2.10
  -2  10  -2    0.80    3.60
   8   9  -2   10.70    4.70
   8   9  -2    3.90    3.90
   7   9  -2   43.20    7.50
   7   9  -2   25.60    5.90
  -7  -9   2   41.20    7.30
   6   9  -2   30.10    6.00
   6   9  -2   19.30    4.90
  -6  -9   2   26.20    6.20
   5   9  -2    9.00    3.90
   5   9  -2   10.10    4.10
   5   9  -2   15.20    4.60
  -5  -9   2    7.00    3.70
   4   9  -2    4.80    3.00
   4   9  -2    9.20    3.70
   4   9  -2    5.80    3.10
  -4  -9   2    5.60    3.80
   3   9  -2   59.89    8.30
   3   9  -2   74.79    9.30
  -3  -9   2   57.39    8.00
  -3  -9   2   67.99    9.00
   2   9  -2   22.40    5.00
   2   9  -2   22.10    5.00
   2   9  -2   29.30    5.70
  -2  -9   2   12.80    4.10
   1   9  -2    8.70    3.40
   1   9  -2    1.50    2.70
   1   9  -2    0.60    2.60
  -1  -9   2    3.00    2.50
   0   9  -2   14.20    4.40
   0   9  -2   16.70    4.70
   0   9  -2   15.80    4.00
  -1   9  -2    8.10    4.20
  -1   9  -2   14.50    4.10
  -1   9  -2   12.70    3.60
  -2   9  -2   13.90    4.70
  -2   9  -2   18.50    4.10
  -2   9  -2   16.80    5.10
  -2   9  -2   22.70    4.40
  -3   9  -2   14.40    4.90
  -3   9  -2   15.00    3.40
  -3   9  -2   14.60    3.90
   3  -9   2    9.40    4.30
   8   8  -2   -2.00    2.50
   8   8  -2   -0.90    2.80
  -8  -8   2    2.00    3.60
   7   8  -2   23.10    5.50
   7   8  -2   15.00    5.20
   7   8  -2   11.10    4.10
  -7  -8   2   10.90    4.50
   6   8  -2   -1.10    2.20
   6   8  -2   -1.50    2.60
   6   8  -2    1.60    2.50
  -6  -8   2   -0.10    2.50
   5   8  -2   17.00    4.40
   5   8  -2   20.30    4.80
   5   8  -2   16.20    4.30
  -5  -8   2   11.70    4.20
   4   8  -2    5.20    2.70
   4   8  -2   13.80    4.20
  -4  -8   2   11.90    4.00
  -4  -8   2    7.20    3.10
   3   8  -2   23.10    4.80
   3   8  -2   23.90    5.20
  -3  -8   2   16.20    4.20
  -3  -8   2   17.00    4.60
   2   8  -2   71.99    8.10
   2   8  -2   67.19   12.40
   2   8  -2   68.59    8.90
  -2  -8   2   56.19    7.40
   1   8  -2  130.59    9.90
   1   8  -2  130.59   10.10
   1   8  -2  159.18   12.90
  -1  -8   2  153.08   10.60
   0   8  -2   29.70    5.20
   0   8  -2   24.00    4.90
   0   8  -2   29.70    5.90
   0  -8   2   27.00    4.60
  -1   8  -2  216.18   13.30
  -1   8  -2  220.78   14.40
  -1   8  -2  241.88   14.50
   1  -8   2  244.48   14.10
  -2   8  -2   28.30    5.40
  -2   8  -2   20.40    4.10
  -3   8  -2    7.40    2.70
  -3   8  -2   12.00    4.30
  -3   8  -2   18.30    3.60
   3  -8   2   12.20    4.30
  -4   8  -2   37.80    4.80
  -4   8  -2   33.90    4.30
  -4   8  -2   22.70    5.30
   4  -8   2   20.30    5.40
   9   7  -2   16.40    4.80
   9   7  -2    6.10    3.80
   9   7  -2   14.80    4.50
   8   7  -2   12.80    4.30
   8   7  -2   16.40    4.90
   8   7  -2   17.20    5.40
  -8  -7   2   16.50    5.10
   7   7  -2    3.20    2.70
   7   7  -2    0.40    2.30
   7   7  -2    7.50    3.90
  -7  -7   2    0.70    2.60
   6   7  -2    0.50    2.40
   6   7  -2    7.70    3.40
   6   7  -2    4.50    2.90
  -6  -7   2    7.70    3.40
   5   7  -2    0.30    2.00
   5   7  -2    1.20    2.20
  -5  -7   2    1.40    2.60
  -5  -7   2    2.90    2.30
   4   7  -2  155.38   10.80
   4   7  -2  163.08   11.40
  -4  -7   2  165.98   11.40
  -4  -7   2  162.58   11.20
   3   7  -2  135.49   10.00
   3   7  -2  132.29    9.90
  -3  -7   2  145.29   10.50
  -3  -7   2  136.69    9.90
   2   7  -2    0.30    2.00
   2   7  -2    2.00    2.30
  -2  -7   2    3.30    2.70
  -2  -7   2    1.20    2.00
   1   7  -2   47.70    6.30
   1   7  -2   39.60    5.80
   1   7  -2   40.60    5.80
  -1  -7   2   38.00    5.50
   0   7  -2   56.79    6.70
   0   7  -2   67.29    7.30
   0   7  -2   65.49    7.60
   0  -7   2   58.19    6.60
  -1   7  -2   27.60    5.00
  -1   7  -2   27.50    4.30
  -1   7  -2   26.60    5.20
   1  -7   2   16.60    3.60
  -2   7  -2   15.10    4.00
  -2   7  -2   20.00    3.50
   2  -7   2   15.00    3.40
   2  -7   2   28.40    5.60
  -3   7  -2    1.10    2.00
  -3   7  -2    1.50    2.90
   3  -7   2    3.90    3.20
  -4   7  -2   -0.30    1.80
  -4   7  -2    0.20    1.80
  -4   7  -2    1.10    3.10
   4  -7   2    1.60    3.20
  -5   7  -2   11.10    2.50
  -5   7  -2    5.90    4.00
  -5   7  -2    7.70    2.30
   5  -7   2    3.00    3.70
   9   6  -2   18.40    4.80
   9   6  -2   11.70    4.00
  -9  -6   2   14.40    4.90
   8   6  -2   20.10    4.70
   8   6  -2   22.90    5.10
   8   6  -2   31.80    6.20
  -8  -6   2   29.30    6.10
   7   6  -2    0.90    2.50
   7   6  -2   -2.00    2.20
   7   6  -2   -1.40    1.70
  -7  -6   2   -1.00    2.50
   6   6  -2   55.69    7.10
   6   6  -2   70.39    7.70
   6   6  -2   66.39    7.90
  -6  -6   2   73.49    8.80
   5   6  -2   14.30    3.90
   5   6  -2   14.90    4.00
  -5  -6   2   13.80    3.90
  -5  -6   2    8.90    3.00
   4   6  -2   54.69    7.00
   4   6  -2   40.00    5.80
  -4  -6   2   53.39    6.70
  -4  -6   2   53.39    6.50
   3   6  -2  172.68   11.00
   3   6  -2  175.98   11.20
  -3  -6   2  162.78   10.90
  -3  -6   2  178.38   11.20
   2   6  -2  297.67   16.50
   2   6  -2  315.27   16.40
  -2  -6   2  301.87   16.50
  -2  -6   2  299.07   16.50
   1   6  -2   64.19    7.00
   1   6  -2   64.49    5.90
   1   6  -2   67.59    6.00
  -1  -6   2   67.19    6.20
   0   6  -2    5.00    3.10
   0   6  -2    5.60    2.20
   0   6  -2    4.00    2.60
   0  -6   2    3.90    2.40
  -1   6  -2   32.30    5.00
  -1   6  -2   25.50    3.90
   1  -6   2   29.00    5.10
   1  -6   2   22.80    3.90
  -2   6  -2   19.60    3.50
  -2   6  -2   24.90    4.70
   2  -6   2   17.10    3.40
   2  -6   2   23.60    4.70
  -3   6  -2    1.30    2.80
  -3   6  -2    0.00    1.60
   3  -6   2   -2.50    2.50
   3  -6   2    2.50    1.70
  -4   6  -2   66.89    7.60
   4  -6   2   51.19    7.10
  -5   6  -2    9.90    2.10
  -5   6  -2    6.70    2.00
  -5   6  -2   10.10    4.20
   5  -6   2    4.10    3.60
  -6   6  -2   37.10    6.40
   6  -6   2    4.50    4.70
   9   5  -2   15.60    4.40
  -9  -5   2   17.40    5.20
   8   5  -2    0.60    2.30
   8   5  -2   -0.20    2.10
   8   5  -2    3.70    2.70
  -8  -5   2   -1.60    2.20
   7   5  -2   26.30    4.80
   7   5  -2   26.10    4.70
   7   5  -2   25.70    5.20
  -7  -5   2   38.70    6.30
   6   5  -2  152.58   10.50
   6   5  -2  137.29   10.00
   6   5  -2  145.09   10.10
   5   5  -2  195.68   12.40
   5   5  -2  214.88   12.80
  -5  -5   2  208.98   12.70
  -5  -5   2  207.88   12.40
   4   5  -2   38.30    5.50
   4   5  -2   43.40    5.80
  -4  -5   2   42.30    5.60
  -4  -5   2   35.40    5.00
   3   5  -2   32.50    4.90
   3   5  -2   46.20    5.90
  -3  -5   2   38.20    5.30
  -3  -5   2   32.60    4.80
   2   5  -2   29.70    4.30
   2   5  -2   29.60    4.30
  -2  -5   2   27.70    4.50
  -2  -5   2   32.50    4.70
   1   5  -2   54.69    5.40
   1   5  -2   70.89    5.90
   1   5  -2   80.19    6.10
  -1  -5   2   67.09    5.90
   0   5  -2   51.79    5.60
   0   5  -2   45.80    5.10
   0   5  -2   43.30    5.60
   0  -5   2   40.90    5.00
  -1   5  -2   12.50    2.70
  -1   5  -2   17.70    3.60
   1  -5   2   11.40    3.20
   1  -5   2   12.80    2.90
  -2   5  -2   46.80    5.60
  -2   5  -2   50.09    4.30
   2  -5   2   36.30    4.30
   2  -5   2   48.70    5.80
  -3   5  -2    0.10    1.40
  -3   5  -2    0.00    2.20
   3  -5   2   -1.80    2.10
   3  -5   2   -1.80    1.40
  -4   5  -2   25.70    4.70
  -4   5  -2   25.40    3.20
   4  -5   2   22.60    3.10
   4  -5   2   20.50    4.70
  -5   5  -2    5.00    1.60
  -5   5  -2    2.40    3.40
  -5   5  -2    3.10    1.50
   5  -5   2    3.50    3.40
  -6   5  -2    9.40    4.20
   6  -5   2    0.20    2.90
  -7   5  -2   -2.30    3.10
   9   4  -2   52.69    7.90
   9   4  -2   73.09    6.80
  -9  -4   2   55.89    8.40
   8   4  -2   56.79    7.60
   8   4  -2   51.09    6.10
   8   4  -2   51.39    6.30
  -8  -4   2   66.09    8.60
   7   4  -2    8.20    2.70
   7   4  -2   18.40    3.70
   7   4  -2    8.20    3.40
  -7  -4   2    8.10    3.40
   6   4  -2   10.20    3.10
   6   4  -2    7.20    2.50
  -6  -4   2   11.80    3.40
   5   4  -2  223.38   12.70
   5   4  -2  230.78   13.00
  -5  -4   2  204.98   12.80
  -5  -4   2  225.58   12.60
   4   4  -2    8.10    2.70
   4   4  -2    6.00    2.50
  -4  -4   2    3.80    2.30
  -4  -4   2    6.70    2.40
   3   4  -2  232.08   13.00
   3   4  -2  233.68   13.20
  -3  -4   2  249.38   13.40
  -3  -4   2  260.17   13.40
   2   4  -2    2.00    1.80
   2   4  -2    3.20    2.10
  -2  -4   2   -0.30    1.80
  -2  -4   2   -1.40    1.60
   1   4  -2  222.28   12.30
   1   4  -2  227.58   12.40
  -1  -4   2  242.88   12.60
   0   4  -2  192.18   11.20
   0   4  -2  216.78   11.70
   0   4  -2  210.58   11.20
   0  -4   2  214.58   11.40
  -1   4  -2    2.10    2.00
  -1   4  -2    0.70    1.30
   1  -4   2   -0.70    1.40
   1  -4   2    0.60    1.90
  -2   4  -2  111.69    7.80
  -2   4  -2  113.79    6.90
   2  -4   2  118.39    8.20
   2  -4   2  115.59    7.10
  -3   4  -2   52.29    4.10
  -3   4  -2   56.79    6.20
   3  -4   2   59.29    4.50
   3  -4   2   49.20    6.00
  -4   4  -2    3.00    2.60
  -4   4  -2    0.80    1.30
   4  -4   2    1.20    1.30
   4  -4   2    5.10    3.40
  -5   4  -2    1.80    1.20
  -5   4  -2    3.60    3.10
   5  -4   2   -0.30    2.60
  -6   4  -2   10.40    4.00
   6  -4   2    7.80    3.50
  -7   4  -2    5.10    3.80
   7  -4   2    0.70    3.50
   9   3  -2   11.30    4.50
   9   3  -2    8.60    2.90
   9   3  -2    9.00    3.10
  -9  -3   2    7.50    4.10
   8   3  -2    1.50    2.00
   8   3  -2    2.30    3.10
   8   3  -2    4.90    2.50
  -8  -3   2   10.20    3.90
   7   3  -2    0.90    1.80
   7   3  -2   -0.30    2.30
   7   3  -2    1.00    1.90
  -7  -3   2    2.80    2.60
   6   3  -2   11.90    2.90
   6   3  -2   15.50    3.80
   6   3  -2   11.60    2.80
  -6  -3   2   15.80    3.80
   5   3  -2    0.70    1.90
   5   3  -2    1.90    1.80
  -5  -3   2    4.10    2.40
  -5  -3   2    0.10    1.40
   4   3  -2  152.38    9.20
   4   3  -2  161.58    9.40
  -4  -3   2  151.78    9.40
  -4  -3   2  146.19    9.10
   3   3  -2   41.40    4.60
   3   3  -2   42.50    4.80
  -3  -3   2   38.40    4.60
  -3  -3   2   37.90    4.60
   2   3  -2   24.90    3.60
   2   3  -2   23.50    3.40
  -2  -3   2   28.00    3.80
  -2  -3   2   19.60    3.50
   1   3  -2  145.39    8.70
   1   3  -2  152.98    8.80
  -1  -3   2  156.68    8.80
  -1  -3   2  162.38    9.00
   0   3  -2  170.68    9.10
   0   3  -2  158.48    9.10
   0  -3   2  167.18    9.20
  -1   3  -2   28.90    3.50
  -1   3  -2   29.90    4.10
   1  -3   2   32.60    4.20
   1  -3   2   28.80    3.70
  -2   3  -2    5.40    2.50
  -2   3  -2   -0.40    1.30
   2  -3   2    0.00    1.40
   2  -3   2    2.20    2.30
  -3   3  -2    2.70    1.40
  -3   3  -2    4.90    2.40
   3  -3   2    2.40    1.40
   3  -3   2    0.70    2.20
  -4   3  -2    1.20    1.00
  -4   3  -2   -1.20    2.00
   4  -3   2   -0.20    1.20
   4  -3   2    2.00    2.60
  -5   3  -2   -1.30    2.10
  -5   3  -2    1.20    0.90
   5  -3   2    0.60    1.00
   5  -3   2    2.50    2.70
  -6   3  -2    1.10    2.60
   6  -3   2    0.70    2.80
  -7   3  -2  101.99    9.10
   7  -3   2   76.99    9.00
  -8   3  -2   10.30    4.90
   9   2  -2   21.00    3.50
   9   2  -2   24.60    5.40
   9   2  -2   30.50    4.10
  -9  -2   2   22.20    5.70
   8   2  -2    0.30    2.60
   8   2  -2   -1.00    1.70
   8   2  -2   -2.00    1.60
  -8  -2   2    2.30    2.60
   7   2  -2   16.80    4.20
   7   2  -2   15.00    2.90
   7   2  -2   19.00    3.20
   6   2  -2  118.49    7.60
   6   2  -2  132.79    8.90
   6   2  -2  114.79    7.50
  -6  -2   2  119.79    8.70
   5   2  -2  260.57   13.70
   5   2  -2  282.67   14.70
  -5  -2   2  273.97   13.70
  -5  -2   2  276.57   14.70
   4   2  -2   15.60    3.10
   4   2  -2   19.70    3.10
  -4  -2   2   17.30    3.30
  -4  -2   2   12.20    2.40
   3   2  -2   73.19    5.40
   3   2  -2   77.29    5.40
  -3  -2   2   71.99    5.40
  -3  -2   2   71.59    5.40
   2   2  -2  353.36   15.70
   2   2  -2  321.07   15.50
  -2  -2   2  317.57   15.50
  -2  -2   2  315.67   15.60
   1   2  -2  419.46   19.60
   1   2  -2  399.96   18.70
  -1  -2   2  412.06   19.00
  -1  -2   2  410.36   18.80
   0   2  -2  360.16   18.10
   0   2  -2  383.46   17.50
   0  -2   2  391.26   17.70
   0  -2   2  390.86   17.70
  -1   2  -2   92.19    5.90
  -1   2  -2   88.89    5.30
   1  -2   2   81.49    5.90
   1  -2   2   89.09    6.00
  -2   2  -2    4.10    1.40
  -2   2  -2    2.30    1.80
   2  -2   2    4.60    1.60
   2  -2   2    5.80    2.40
  -3   2  -2   11.30    1.80
  -3   2  -2    9.00    2.90
   3  -2   2    9.50    2.80
   3  -2   2   10.60    2.00
  -4   2  -2   61.29    5.70
  -4   2  -2   60.09    3.80
   4  -2   2   63.49    4.00
   4  -2   2   63.59    6.70
  -5   2  -2   75.39    4.30
  -5   2  -2   79.39    7.10
   5  -2   2   75.19    7.10
   5  -2   2   95.69    4.70
  -6   2  -2    3.70    2.80
   6  -2   2    8.60    3.40
  -7   2  -2   11.40    4.10
   7  -2   2    6.60    3.50
  -8   2  -2   21.10    5.60
   8  -2   2   -1.60    5.00
   9   1  -2   11.00    2.30
   9   1  -2    6.30    4.10
  -9  -1   2   13.80    4.60
   8   1  -2   30.90    3.60
   8   1  -2   27.70    5.30
  -8  -1   2   31.80    5.80
   7   1  -2    1.00    1.70
   7   1  -2    4.70    2.80
   7   1  -2    3.00    1.60
  -7  -1   2    6.80    3.50
   6   1  -2  122.19    7.60
   6   1  -2  143.29    7.90
   6   1  -2  135.69    9.20
  -6  -1   2  152.48    9.40
   5   1  -2  147.79    8.10
   5   1  -2  152.28    9.30
  -5  -1   2  141.19    8.00
  -5  -1   2  163.68    9.40
   4   1  -2    8.70    2.40
  -4  -1   2    3.20    1.90
  -4  -1   2    4.10    1.70
   3   1  -2  158.48    8.40
   3   1  -2  142.49    7.90
  -3  -1   2  152.28    8.40
  -3  -1   2  150.68    8.10
   2   1  -2    0.60    1.60
   2   1  -2    3.50    1.60
  -2  -1   2    1.40    1.50
   1   1  -2   54.09    3.90
   1   1  -2   56.99    4.00
  -1  -1   2   62.99    4.20
  -1  -1   2   51.49    3.80
   0   1  -2  745.33   30.80
   0   1  -2  711.83   30.80
   0  -1   2  706.33   30.80
   0  -1   2  703.73   30.80
  -1   1  -2  288.97   13.10
  -1   1  -2  279.17   13.40
   1  -1   2  295.87   13.10
   1  -1   2  278.67   13.50
  -2   1  -2    4.00    2.10
  -2   1  -2    4.10    1.30
   2  -1   2    0.50    1.80
   2  -1   2    4.20    1.50
  -3   1  -2   59.59    3.70
  -3   1  -2   59.99    5.10
   3  -1   2   47.70    4.80
   3  -1   2   62.39    3.80
  -4   1  -2    1.10    2.00
  -4   1  -2    1.80    1.10
   4  -1   2    1.80    2.30
   4  -1   2    0.20    1.10
  -5   1  -2  387.36   20.10
  -5   1  -2  397.06   17.30
   5  -1   2  400.56   17.30
   5  -1   2  384.96   20.00
   6  -1   2    0.10    2.30
  -7   1  -2   28.70    5.40
   7  -1   2   25.20    5.10
  -8   1  -2   30.80    5.90
   8  -1   2   23.30    5.10
   9   0  -2   -1.30    3.40
  -9   0   2   -2.00    2.60
   8   0  -2   12.60    4.00
  -8   0   2   16.30    4.50
   7   0  -2   23.60    4.60
   7   0  -2   23.80    2.60
   7   0  -2   23.00    2.60
  -7   0   2   24.70    4.80
   6   0  -2   38.00    5.30
  -6   0   2   33.20    5.00
   5   0  -2    1.70    1.20
   5   0  -2   -1.40    1.50
  -5   0   2    1.20    1.90
   4   0  -2  202.68   10.60
   4   0  -2  189.98    9.50
  -4   0   2  194.88    9.60
  -4   0   2  205.18   10.70
   3   0  -2    0.30    1.50
   3   0  -2    1.60    1.30
  -3   0   2    2.30    1.70
  -3   0   2    1.00    1.20
   2   0  -2  339.47   15.60
   2   0  -2  352.56   15.50
  -2   0   2  362.56   15.60
  -2   0   2  336.17   15.60
   1   0  -2   34.10    2.70
   1   0  -2   31.70    2.40
  -1   0   2   29.80    2.40
  -1   0   2   28.80    2.70
   0   0  -2  349.67   15.10
   0   0  -2  336.37   14.80
   0   0   2  334.67   15.00
   0   0   2  337.57   14.80
  -1   0  -2  152.68    7.50
  -1   0  -2  153.88    7.70
   1   0   2  148.89    7.70
   1   0   2  160.18    7.50
  -2   0  -2  247.58   11.10
  -2   0  -2  233.38   12.30
   2   0   2  235.18   11.60
   2   0   2  233.18   11.00
  -3   0  -2   10.10    2.60
  -3   0  -2   10.70    1.80
   3   0   2   10.40    1.70
   3   0   2    8.20    2.60
  -4   0  -2    1.60    2.00
  -4   0  -2    2.50    1.10
   4   0   2    0.20    1.90
   4   0   2    1.00    1.00
  -5   0  -2  109.59    6.20
  -5   0  -2  120.79    8.50
   5   0   2  120.59    6.20
   5   0   2  125.79    8.50
  -6   0  -2   91.09    5.10
  -6   0  -2   86.09    7.50
   6   0   2   95.99    7.90
   6   0   2   84.79    5.00
  -7   0  -2   50.99    7.10
   7   0   2   51.49    3.30
   7   0   2   50.79    6.60
  -8   0  -2    8.10    4.00
   8   0   2   11.30    4.20
  -9   0  -2   22.40    5.60
   9  -1  -2    4.70    3.80
  -9   1   2    2.50    3.40
   8  -1  -2    1.70    3.10
  -8   1   2    3.50    3.20
   7  -1  -2    5.10    3.20
   6  -1  -2   -0.30    2.20
  -6   1   2    4.60    2.50
   5  -1  -2   -1.30    1.80
   5  -1  -2   -0.10    0.80
   5  -1  -2   -0.70    0.70
  -5   1   2    0.20    1.80
   4  -1  -2   75.59    5.30
   4  -1  -2   66.49    3.80
  -4   1   2   68.79    5.20
  -4   1   2   69.99    3.90
   3  -1  -2  360.56   16.50
   3  -1  -2  379.66   15.60
  -3   1   2  331.87   15.60
  -3   1   2  357.36   17.20
   2  -1  -2 1906.01   76.59
   2  -1  -2 1765.12   76.79
  -2   1   2 1855.61   76.59
  -2   1   2 1847.22   76.89
   1  -1  -2    0.20    1.00
   1  -1  -2   -0.10    0.70
  -1   1   2    1.20    0.80
  -1   1   2   -0.90    1.00
   0  -1  -2  143.19    6.30
   0  -1  -2  148.39    7.00
   0   1   2  137.99    6.20
   0   1   2  147.39    7.00
  -1  -1  -2   72.79    4.20
  -1  -1  -2   72.09    4.00
   1   1   2   69.49    4.00
   1   1   2   69.39    4.20
  -2  -1  -2    0.50    1.20
  -2  -1  -2    0.70    1.70
   2   1   2    0.00    1.60
   2   1   2    0.10    1.00
  -3  -1  -2   45.10    4.60
  -3  -1  -2   38.70    3.20
   3   1   2   39.90    4.30
   3   1   2   32.60    3.00
  -4  -1  -2   11.80    2.00
  -4  -1  -2   20.70    3.50
   4   1   2   16.00    3.30
  -5  -1  -2  315.77   14.80
  -5  -1  -2  334.07   16.80
   5   1   2  299.37   14.60
   5   1   2  320.47   16.60
  -6  -1  -2   17.80    4.20
  -6  -1  -2   31.70    5.00
   6   1   2   35.30    6.00
   6   1   2   24.70    3.10
  -7  -1  -2   29.20    5.30
   7   1   2   30.30    3.30
   7   1   2   23.60    5.00
   7   1   2   36.30    3.90
  -8  -1  -2   19.70    4.90
   8   1   2   36.00    4.20
   8   1   2   28.70    3.00
   8   1   2   30.30    5.80
  -9  -1  -2   -0.50    3.30
   8  -2  -2    1.50    3.10
  -8   2   2    5.00    3.30
   7  -2  -2    3.00    2.70
  -7   2   2    5.70    3.10
   6  -2  -2    1.70    2.40
  -6   2   2    2.60    2.40
   5  -2  -2  244.68   13.20
  -5   2   2  241.98   13.20
   4  -2  -2  308.57   15.10
  -4   2   2  300.77   15.10
   3  -2  -2   78.59    4.00
   3  -2  -2   81.99    5.30
  -3   2   2   74.59    5.10
  -3   2   2   77.09    4.00
   2  -2  -2 9138.49  401.16
  -2   2   2 9999.00  401.16
   1  -2  -2  343.57   15.10
   1  -2  -2  342.87   14.60
  -1   2   2  340.97   14.60
  -1   2   2  335.77   15.10
   0  -2  -2   92.69    4.20
   0  -2  -2   96.29    5.10
   0   2   2   88.49    4.10
   0   2   2   87.29    5.00
  -1  -2  -2   61.89    3.70
  -1  -2  -2   66.69    4.20
   1   2   2   66.99    4.20
   1   2   2   65.39    3.80
  -2  -2  -2  281.57   13.10
  -2  -2  -2  278.17   13.00
   2   2   2  275.97   13.00
   2   2   2  267.67   13.60
  -3  -2  -2  190.38    9.90
  -3  -2  -2  192.98   10.40
   3   2   2  196.58   10.00
   3   2   2  209.68   10.50
  -4  -2  -2   62.79    5.10
  -4  -2  -2   58.99    5.10
   4   2   2   56.39    5.10
   4   2   2   51.69    4.20
  -5  -2  -2  638.54   29.10
  -5  -2  -2  598.24   27.40
   5   2   2  584.14   28.70
   5   2   2  634.54   27.50
  -6  -2  -2  173.18   11.00
  -6  -2  -2  171.68    9.20
   6   2   2  160.08    8.90
   6   2   2  151.38   10.40
  -7  -2  -2    2.30    2.70
   7   2   2    2.90    1.80
   7   2   2    2.50    2.80
   7   2   2    3.90    1.70
  -8  -2  -2   33.90    6.40
   8   2   2   35.40    3.90
   8   2   2   45.10    4.70
   8   2   2   38.50    6.00
  -9  -2  -2   29.10    6.60
   9   2   2   31.00    3.70
   9   2   2   31.50    3.80
   8  -3  -2    2.40    3.10
  -8   3   2    0.30    2.70
   7  -3  -2    5.20    3.00
  -7   3   2   15.10    4.30
   6  -3  -2    1.30    2.50
  -6   3   2   -0.10    2.30
   5  -3  -2   18.20    3.50
  -5   3   2   19.80    3.70
   4  -3  -2   18.50    3.30
  -4   3   2   21.60    3.50
   3  -3  -2   86.49    5.90
   3  -3  -2   90.19    4.60
  -3   3   2   98.79    5.90
  -3   3   2   87.99    4.50
   2  -3  -2  207.98   10.20
  -2   3   2  227.38   10.30
  -2   3   2  231.48   10.70
   1  -3  -2 3897.51  166.18
  -1   3   2 3608.64  166.38
   0  -3  -2  616.84   26.60
   0   3   2  598.64   25.80
   0   3   2  609.04   26.60
  -1  -3  -2  275.77   13.20
  -1  -3  -2  279.37   12.50
   1   3   2  265.87   13.20
   1   3   2  275.67   12.50
  -2  -3  -2   61.59    4.30
   2   3   2   64.99    4.50
   2   3   2   58.39    4.70
  -3  -3  -2  369.86   17.50
  -3  -3  -2  379.36   17.50
   3   3   2  359.86   17.40
   3   3   2  361.26   17.50
  -4  -3  -2   37.50    4.20
  -4  -3  -2   29.90    4.30
   4   3   2   33.40    4.00
   4   3   2   36.70    4.50
  -5  -3  -2  425.26   19.90
  -5  -3  -2  416.76   20.80
   5   3   2  414.66   19.80
   5   3   2  407.56   20.60
  -6  -3  -2   99.49    8.10
   6   3   2  114.09    7.10
   6   3   2  103.49    8.00
  -7  -3  -2   58.29    7.30
   7   3   2   65.39    5.30
   7   3   2   53.39    4.90
   7   3   2   54.79    7.00
  -8  -3  -2   39.70    6.80
   8   3   2   29.50    5.50
   8   3   2   51.39    5.40
   8   3   2   36.60    4.50
  -9  -3  -2    7.50    3.80
   9   3   2   -0.30    1.90
   9   3   2    2.30    1.90
   8  -4  -2   -1.90    3.30
  -8   4   2    4.20    3.60
   7  -4  -2   -1.30    2.80
  -7   4   2   -0.60    2.50
  -6   4   2   -0.30    2.10
   5  -4  -2    4.40    2.40
  -5   4   2    2.60    2.20
   4  -4  -2    8.70    2.60
  -4   4   2    4.60    2.10
   3  -4  -2   15.90    3.00
  -3   4   2   19.00    2.00
  -3   4   2   11.20    1.60
  -3   4   2   14.00    2.50
   2  -4  -2  102.99    6.20
   2  -4  -2  114.79    5.90
  -2   4   2   88.79    5.50
  -2   4   2  105.59    6.00
   1  -4  -2    1.70    1.40
  -1   4   2    1.70    1.20
  -1   4   2    2.20    1.50
   0  -4  -2   50.29    4.70
   0   4   2   54.09    3.70
   0   4   2   52.49    3.70
   0   4   2   49.10    4.10
  -1  -4  -2  231.48   11.30
  -1  -4  -2  232.68   11.90
   1   4   2  238.78   11.80
   1   4   2  234.38   12.00
  -2  -4  -2   96.79    6.00
  -2  -4  -2   84.89    6.20
   2   4   2   87.99    6.30
   2   4   2   99.39    5.90
  -3  -4  -2  327.47   16.00
  -3  -4  -2  322.57   15.70
   3   4   2  309.37   15.90
   3   4   2  321.17   15.70
  -4  -4  -2    4.10    2.10
  -4  -4  -2    2.60    1.70
   4   4   2    2.90    2.00
   4   4   2    1.50    1.80
  -5  -4  -2  269.77   14.80
  -5  -4  -2  269.67   14.40
   5   4   2  281.77   15.00
   5   4   2  280.37   14.60
  -6  -4  -2   70.59    6.60
   6   4   2   73.29    6.60
   6   4   2   68.99    5.80
   6   4   2   72.89    6.00
  -7  -4  -2   86.69    7.80
   7   4   2   76.09    6.40
   7   4   2   77.39    7.30
   7   4   2   81.09    6.40
  -8  -4  -2   12.90    4.50
   8   4   2   15.70    4.30
   8   4   2   15.00    3.40
   8   4   2   12.90    3.40
  -9  -4  -2    2.80    3.70
   9   4   2    4.20    2.50
   9   4   2    3.30    2.60
   7  -5  -2   -3.10    2.80
  -7   5   2   -0.20    2.40
   6  -5  -2    4.90    3.50
   5  -5  -2    1.10    2.20
  -5   5   2    2.40    2.30
   4  -5  -2   10.10    3.10
  -4   5   2   17.80    3.20
  -4   5   2   12.70    1.60
  -4   5   2   12.30    1.70
   3  -5  -2   17.30    3.40
  -3   5   2   13.60    2.10
  -3   5   2   17.20    3.10
  -3   5   2   16.10    2.30
   2  -5  -2   24.50    3.60
  -2   5   2   28.40    3.20
  -2   5   2   26.60    3.30
   1  -5  -2  230.88   11.30
   1  -5  -2  223.78   11.50
  -1   5   2  230.38   11.20
  -1   5   2  210.08   11.30
   0  -5  -2    9.10    2.30
   0   5   2   12.90    2.40
   0   5   2   12.00    2.50
  -1  -5  -2   21.30    3.30
  -1  -5  -2   22.20    3.60
   1   5   2   30.30    3.60
   1   5   2   25.40    3.80
  -2  -5  -2   41.40    4.60
  -2  -5  -2   36.40    4.60
   2   5   2   39.20    4.40
   2   5   2   32.50    4.20
  -3  -5  -2  578.54   26.70
  -3  -5  -2  568.14   27.10
   3   5   2  574.74   27.20
   3   5   2  605.74   26.70
  -4  -5  -2   56.19    5.40
  -4  -5  -2   62.09    5.40
   4   5   2   54.49    5.20
   4   5   2   59.39    5.50
  -5  -5  -2   55.39    6.00
  -5  -5  -2   51.39    6.60
   5   5   2   56.99    6.40
   5   5   2   45.60    5.50
  -6  -5  -2  185.28   12.00
   6   5   2  179.78   11.20
   6   5   2  206.78   11.80
  -7  -5  -2    1.10    2.50
   7   5   2   -1.20    1.80
   7   5   2   -0.40    1.70
   7   5   2    1.10    2.20
  -8  -5  -2  192.58   13.60
   8   5   2  215.58   13.90
   8   5   2  200.28   12.40
   8   5   2  207.08   12.50
  -9  -5  -2  110.19   10.30
   9   5   2  101.99    8.50
   9   5   2  122.89    8.90
   7  -6  -2    2.00    3.30
  -7   6   2   -0.70    3.00
   6  -6  -2    1.70    2.90
  -6   6   2    1.40    2.70
   5  -6  -2   33.80    6.20
  -5   6   2   38.00    5.50
   4  -6  -2   62.89    6.10
  -4   6   2   67.99    4.30
  -4   6   2   61.99    4.00
  -4   6   2   67.79    5.90
   3  -6  -2   64.89    5.90
  -3   6   2   74.89    5.00
  -3   6   2   59.89    4.50
  -3   6   2   62.29    5.20
   2  -6  -2   37.80    4.70
  -2   6   2   31.30    4.10
  -2   6   2   35.40    3.90
  -2   6   2   30.40    3.80
  -1   6   2  123.59    7.60
  -1   6   2  120.09    7.50
  -1   6   2  119.49    7.60
  -1   6   2  128.89    7.50
   0   6   2   22.40    3.40
   0   6   2   23.40    3.40
   0   6   2   22.30    3.50
  -1  -6  -2   12.10    2.90
  -1  -6  -2   19.00    3.40
   1   6   2   12.20    2.60
   1   6   2   10.80    2.70
  -2  -6  -2   58.39    6.30
  -2  -6  -2   49.70    4.70
   2   6   2   49.60    4.60
   2   6   2   59.39    6.60
  -3  -6  -2  724.53   32.30
  -3  -6  -2  683.23   32.80
   3   6   2  712.03   32.20
   3   6   2  701.13   32.90
  -4  -6  -2  195.48   11.70
   4   6   2  220.48   12.50
   4   6   2  200.38   11.70
  -5  -6  -2   62.49    6.00
   5   6   2   67.69    6.10
   5   6   2   66.09    7.20
   5   6   2   62.79    6.10
  -6  -6  -2  144.79   10.30
   6   6   2  136.49    9.80
   6   6   2  158.28   10.00
   6   6   2  138.49   10.00
  -7  -6  -2    1.10    2.50
   7   6   2    0.10    2.10
   7   6   2    3.00    2.30
   7   6   2    2.10    2.40
  -8  -6  -2  116.99   10.20
   8   6   2  140.79   11.50
   8   6   2  125.39    9.50
  -9  -6  -2    1.30    3.20
   9   6   2    0.30    2.20
   6  -7  -2    1.40    3.60
  -6   7   2    0.10    2.80
   5  -7  -2   -3.10    2.70
  -5   7   2    3.30    2.90
   4  -7  -2   23.70    4.60
  -4   7   2   20.90    4.00
  -4   7   2   25.10    3.00
   3  -7  -2   37.90    5.30
  -3   7   2   33.50    3.90
  -3   7   2   31.70    4.40
  -3   7   2   33.10    3.90
   2  -7  -2   -0.40    2.00
  -2   7   2    0.60    1.40
  -2   7   2    2.30    1.70
  -2   7   2    0.60    1.90
  -1   7   2   18.80    3.50
  -1   7   2   12.00    2.80
  -1   7   2   18.70    3.40
  -1   7   2   13.90    3.30
   0   7   2   34.30    4.50
   0   7   2   42.90    5.10
   0   7   2   39.90    4.80
   0   7   2   58.59    5.80
  -1  -7  -2   32.70    4.50
   1   7   2   35.60    4.60
   1   7   2   29.00    4.40
   1   7   2   34.70    4.70
  -2  -7  -2    8.70    2.60
   2   7   2    6.00    2.50
   2   7   2    8.30    2.80
   2   7   2    5.20    2.30
  -3  -7  -2  764.92   35.40
   3   7   2  754.72   35.20
   3   7   2  801.92   36.10
   3   7   2  775.22   36.10
  -4  -7  -2  273.17   15.20
   4   7   2  290.07   15.60
   4   7   2  267.97   14.90
   4   7   2  271.97   15.60
  -5  -7  -2   24.70    4.90
   5   7   2   18.90    4.00
   5   7   2   27.10    5.00
   5   7   2   23.10    4.70
  -6  -7  -2  172.18   11.70
   6   7   2  178.48   11.60
   6   7   2  170.78   11.60
  -7  -7  -2   63.59    8.60
   7   7   2   55.09    7.80
   7   7   2   73.59    9.40
   7   7   2   52.99    7.50
  -8  -7  -2   76.39    9.70
   8   7   2   69.29    8.70
   8   7   2   65.99    8.00
  -9  -7  -2   21.50    5.80
   9   7   2   37.20    6.50
   9   7   2   27.90    5.50
   5  -8  -2   -1.80    2.90
  -5   8   2    1.60    3.00
  -5   8   2   -0.50    1.20
  -5   8   2   -0.10    1.30
   4  -8  -2    0.20    2.60
  -4   8   2   -1.30    1.50
  -4   8   2    1.10    1.70
   3  -8  -2   20.10    4.50
  -3   8   2   15.70    3.70
  -3   8   2   23.50    3.60
  -3   8   2   18.20    3.30
  -2   8   2    7.80    2.90
  -2   8   2   10.00    2.60
  -2   8   2    9.30    2.50
  -1   8   2   81.69    6.20
  -1   8   2   61.49    5.80
  -1   8   2   65.79    5.90
  -1   8   2   63.09    5.80
   0   8   2   -2.00    1.30
   0   8   2    3.30    2.10
   0   8   2    2.20    1.70
   0   8   2   -0.10    1.40
   1   8   2  411.26   20.80
   1   8   2  411.06   21.30
   1   8   2  451.25   21.90
   1   8   2  428.66   20.90
  -2  -8  -2  241.38   13.90
   2   8   2  260.67   14.00
   2   8   2  256.37   14.60
   2   8   2  260.87   14.80
  -3  -8  -2   66.29    7.40
   3   8   2   65.29    7.40
   3   8   2   69.39    7.50
   3   8   2   69.59    7.80
  -4  -8  -2  310.07   17.20
   4   8   2  303.17   17.40
   4   8   2  326.07   17.20
   4   8   2  320.87   19.70
  -5  -8  -2   -0.10    2.10
   5   8   2    2.60    2.40
   5   8   2    2.40    2.60
   5   8   2    0.80    2.10
  -6  -8  -2  178.08   12.40
   6   8   2  185.38   12.40
   6   8   2  180.98   12.60
   6   8   2  197.98   12.70
  -7  -8  -2   21.50    5.00
   7   8   2   23.40    5.30
   7   8   2   27.60    5.60
   7   8   2   28.10    6.00
  -8  -8  -2  188.28   13.40
   8   8   2  166.18   12.50
   8   8   2  174.08   12.70
  -9  -8  -2   68.69   10.00
   9   8   2   74.09    9.10
   9   8   2   64.09    8.80
  -5   9   2    4.40    1.80
   4  -9  -2   -0.70    3.10
  -4   9   2   -1.30    1.70
  -4   9   2    3.80    2.90
  -4   9   2    1.40    1.70
  -3   9   2    6.70    2.70
  -3   9   2   11.20    2.90
  -2   9   2    3.30    2.60
  -2   9   2    1.30    2.00
  -2   9   2    1.10    2.30
  -2   9   2    2.40    2.60
  -1   9   2   42.00    5.50
  -1   9   2   41.00    5.80
  -1   9   2   44.90    5.80
  -1   9   2   25.60    4.30
   0   9   2    0.70    1.70
   0   9   2    1.60    2.00
   0   9   2   -0.90    1.50
   0   9   2    1.00    2.10
   1   9   2   62.59    5.80
   1   9   2   59.69    5.80
   1   9   2   79.59    8.10
   1   9   2   60.29    7.50
  -2  -9  -2    7.40    3.10
   2   9   2    6.50    3.20
   2   9   2    1.80    2.30
  -3  -9  -2   13.50    3.70
   3   9   2   10.30    3.50
   3   9   2   13.10    3.60
   3   9   2   10.60    3.70
  -4  -9  -2    6.10    3.10
   4   9   2   12.60    4.00
   4   9   2    0.70    1.90
   4   9   2    5.20    3.10
  -5  -9  -2   93.79    8.20
   5   9   2   89.29    8.50
   5   9   2   82.79    7.60
   5   9   2   99.09   10.20
  -6  -9  -2  349.47   19.70
   6   9   2  346.57   20.00
   6   9   2  349.77   20.00
   6   9   2  323.17   19.10
  -7  -9  -2   96.59    9.30
   7   9   2  101.29   10.80
   7   9   2  102.79    9.50
   7   9   2   98.29    9.30
  -8  -9  -2  168.98   13.10
   8   9   2  166.28   12.70
   8   9   2  158.58   12.60
  -9  -9  -2   86.39   11.30
   9   9   2   95.59   11.50
   9   9   2   97.49   11.00
  -4  10   2    2.80    3.10
  -4  10   2    4.10    2.40
  -4  10   2    2.70    2.20
  -3  10   2   -0.40    2.50
  -3  10   2    0.70    2.10
  -3  10   2    1.00    2.70
  -3  10   2    2.50    2.20
  -2  10   2    0.20    2.50
  -2  10   2    2.10    2.70
  -2  10   2    0.40    1.90
  -2  10   2   -0.10    1.70
  -1  10   2   13.50    3.70
  -1  10   2   17.70    4.40
  -1  10   2   16.80    4.20
  -1  10   2   19.20    4.50
   0  10   2   33.20    5.30
   0  10   2   21.50    4.70
   0  10   2   17.20    4.10
   1  10   2   27.30    5.20
   1  10   2   36.00    6.50
   1  10   2   33.30    5.50
   1  10   2   27.00    6.00
   2  10   2   -1.90    2.00
   2  10   2   -0.90    1.90
  -3 -10  -2   50.39    7.40
   3  10   2   44.20    7.20
   3  10   2   58.19    7.30
   3  10   2   45.60    7.00
  -4 -10  -2   94.59    8.50
   4  10   2   95.39    8.30
   4  10   2   97.89    8.90
   4  10   2  103.29    9.10
  -5 -10  -2   15.70    4.60
   5  10   2   12.00    4.10
   5  10   2    8.80    3.90
   5  10   2   17.10    4.60
  -6 -10  -2  266.07   17.70
   6  10   2  319.87   19.00
   6  10   2  298.77   17.80
   6  10   2  319.07   19.00
  -7 -10  -2   72.89    9.90
   7  10   2   62.99    8.90
   7  10   2   56.09    8.40
   7  10   2   68.09    9.20
  -8 -10  -2   28.60    6.80
   8  10   2   17.70    5.20
   8  10   2    2.40    3.30
  -2  11   2    2.90    3.10
  -2  11   2    4.90    3.30
  -2  11   2    2.50    2.50
  -2  11   2    0.50    2.70
  -1  11   2    6.70    3.30
  -1  11   2    8.60    3.60
  -1  11   2    6.10    3.30
  -1  11   2   10.00    3.60
   0  11   2    2.30    2.50
   0  11   2   -0.10    2.30
   0  11   2    1.90    2.60
   0  11   2    2.70    2.90
   1  11   2   87.29    8.30
   1  11   2   88.39    9.50
   1  11   2   71.79    8.80
   1  11   2   78.99    7.50
   2  11   2   96.69   10.80
   2  11   2   95.99    8.40
   2  11   2   93.29    9.90
   2  11   2   96.49   10.50
  -3 -11  -2   -2.00    2.50
   3  11   2    3.70    3.10
   3  11   2   -0.20    2.20
   3  11   2    0.70    2.40
  -4 -11  -2    0.10    3.00
   4  11   2    8.50    3.90
   4  11   2    2.50    2.90
   4  11   2    4.90    3.50
  -5 -11  -2  106.79   11.90
   5  11   2   79.29   10.30
   5  11   2  101.69   11.50
  -6 -11  -2    5.00    3.40
   6  11   2    0.20    2.50
   6  11   2    0.20    2.60
   6  11   2    0.00    2.60
  -7 -11  -2   38.60    7.70
   7  11   2   25.20    6.10
   7  11   2   34.80    7.10
  -8 -11  -2    1.70    3.60
   8  11   2   -2.30    2.70
   8  11   2   -1.40    2.80
   8  11   2    0.90    3.60
  -1  12   2   -0.20    2.80
  -1  12   2    4.50    3.60
  -1  12   2   -1.00    2.20
  -1  12   2    5.40    3.20
   0  12   2    6.40    3.70
   0  12   2   11.30    3.90
   0  12   2   10.00    3.90
   0  12   2    8.90    3.90
   1  12   2   -0.20    2.50
   1  12   2    5.00    3.60
   1  12   2    1.20    2.80
   1  12   2    1.40    2.60
   2  12   2  123.99   10.40
   2  12   2   89.19    8.70
   2  12   2  107.39   11.60
   2  12   2  109.39    9.40
   3  12   2    2.20    2.80
   3  12   2   -0.40    2.50
   3  12   2    1.90    3.20
  -4 -12  -2    1.90    3.30
   4  12   2   -0.40    2.50
   4  12   2   -1.70    2.50
   4  12   2    2.40    3.10
  -5 -12  -2   -1.20    2.80
   5  12   2    2.90    3.00
   5  12   2    2.00    3.10
  -6 -12  -2   -2.20    3.00
   6  12   2    0.30    2.80
   6  12   2   -0.70    2.70
   7  12   2   84.59   11.40
   7  12   2   84.69   11.30
   7  12   2  130.89   13.70
   1  13   2    2.80    3.40
   1  13   2   11.00    4.50
   1  13   2    5.60    3.80
   1  13   2    6.70    3.90
   2  13   2   13.30    4.80
   2  13   2    7.10    3.60
   2  13   2    4.30    3.80
   2  13   2   16.60    4.80
   3  13   2    8.20    4.10
   3  13   2    1.90    5.80
   3  13   2   11.00    4.50
   3  13   2    5.00    3.60
  -4 -13  -2  160.08   12.70
   4  13   2  143.99   12.10
   4  13   2  167.68   13.50
   4  13   2  164.48   14.10
  -5 -13  -2   62.99    9.90
   5  13   2   49.10    8.50
   5  13   2   50.79    8.60
   5  11  -3   24.80    6.20
  -5 -11   3   34.70    7.70
   4  11  -3   90.09   11.30
   4  11  -3   61.39    9.40
   4  11  -3   82.89   14.60
   3  11  -3  238.98   16.50
   3  11  -3  248.88   16.90
   3  11  -3  262.77   21.40
   2  11  -3   26.80    6.30
   2  11  -3   24.50    5.60
   2  11  -3   18.20    5.30
   1  11  -3   58.09    8.10
   1  11  -3   81.79   10.00
   1  11  -3   89.09   10.00
   1  11  -3   74.59   10.60
   0  11  -3   14.30    5.30
   0  11  -3   19.90    5.20
   0  11  -3   26.30    5.70
   7  10  -3    7.10    4.50
   7  10  -3    4.50    5.40
   7  10  -3    9.90    4.70
  -7 -10   3    4.60    3.80
   6  10  -3  176.38   14.10
  -6 -10   3  177.08   14.00
   5  10  -3  160.58   12.80
  -5 -10   3  139.59   12.30
   4  10  -3   15.90    4.70
  -4 -10   3    0.00    2.80
  -4 -10   3   29.80    6.80
   3  10  -3   65.99    8.80
   3  10  -3   46.30    7.20
   3  10  -3   50.49    7.90
  -3 -10   3   53.29    7.90
   2  10  -3   12.50    4.80
   2  10  -3   13.90    4.20
   2  10  -3    9.00    4.20
  -2 -10   3   14.00    4.20
   1  10  -3   -0.70    3.00
   1  10  -3   -0.80    3.00
   1  10  -3    0.70    2.30
  -1 -10   3   -1.60    2.10
   0  10  -3    2.40    3.90
   0  10  -3    1.30    3.20
   0  10  -3    1.50    2.70
   0 -10   3    3.00    2.90
  -1  10  -3   28.00    6.70
  -1  10  -3   23.60    4.90
  -1  10  -3   27.00    5.00
  -1  10  -3   34.30    6.90
  -2  10  -3    3.10    4.00
  -2  10  -3    8.20    5.80
  -2  10  -3   13.90    4.20
  -2  10  -3    9.40    3.60
   7   9  -3   18.50    5.40
  -7  -9   3   22.10    6.00
   6   9  -3   68.89    9.00
   6   9  -3   58.49    8.60
  -6  -9   3   69.39    9.70
   5   9  -3   53.99    7.90
  -5  -9   3   77.79    9.60
  -5  -9   3   46.00    9.20
   4   9  -3  454.25   23.90
   4   9  -3  423.16   23.90
  -4  -9   3  363.46   23.10
  -4  -9   3  466.55   24.40
   3   9  -3  123.29   10.30
   3   9  -3  107.89    9.70
   3   9  -3  123.49   10.20
  -3  -9   3  117.99   10.10
   2   9  -3    1.80    2.80
   2   9  -3    1.10    2.70
   2   9  -3   -0.80    2.50
  -2  -9   3    1.10    2.30
   1   9  -3  158.58   12.40
   1   9  -3  206.88   13.10
   1   9  -3  171.98   12.30
  -1  -9   3  170.88   12.40
   0   9  -3  223.28   15.20
   0   9  -3  229.58   14.40
   0   9  -3  234.88   15.10
   0  -9   3  239.48   15.10
  -1   9  -3    0.80    2.20
  -1   9  -3    4.70    3.80
  -1   9  -3   -0.60    2.90
   1  -9   3   -0.90    2.30
  -2   9  -3   60.19    7.10
  -2   9  -3   71.49    9.50
  -2   9  -3   51.59    7.60
  -3   9  -3    5.20    4.90
  -3   9  -3    1.20    2.60
  -3   9  -3    4.10    4.00
   8   8  -3   13.90    4.70
   8   8  -3   15.50    5.00
   8   8  -3   27.10    7.50
  -8  -8   3   27.50    6.60
   7   8  -3    4.00    3.30
   7   8  -3   -0.20    2.80
   7   8  -3   -0.10    2.70
  -7  -8   3    3.20    3.50
   6   8  -3   56.29    8.10
   6   8  -3   90.19    8.40
  -6  -8   3   62.39    8.90
   5   8  -3  111.49    9.80
   5   8  -3  106.79    9.40
  -5  -8   3  114.79   10.00
  -5  -8   3  118.39   10.00
   4   8  -3  182.08   12.90
   4   8  -3  208.28   13.70
  -4  -8   3  214.98   13.80
  -4  -8   3  191.88   13.40
   3   8  -3  101.39    8.70
   3   8  -3  114.59    9.30
  -3  -8   3  112.79    9.40
  -3  -8   3   93.19    8.70
   2   8  -3   37.00    6.00
   2   8  -3   47.30    6.90
   2   8  -3   42.10    6.50
  -2  -8   3   43.10    6.60
   1   8  -3   37.30    6.50
   1   8  -3   35.90    5.90
   1   8  -3   25.60    4.80
  -1  -8   3   17.30    4.50
   0   8  -3   34.00    6.20
   0   8  -3   53.99    7.70
   0  -8   3   32.40    5.40
  -1   8  -3    4.50    3.20
  -1   8  -3    0.50    2.90
  -1   8  -3    0.10    1.70
   1  -8   3   -1.70    2.00
  -2   8  -3   31.90    4.90
  -2   8  -3   40.60    6.30
   2  -8   3   34.10    5.80
  -3   8  -3   -2.20    2.90
  -3   8  -3   -0.40    2.10
   3  -8   3    3.40    3.80
  -4   8  -3   18.60    3.70
  -4   8  -3   12.10    4.40
  -4   8  -3   19.40    3.90
   9   7  -3   21.50    5.50
   8   7  -3    5.40    3.30
   8   7  -3   -0.70    2.70
  -8  -7   3    0.30    3.40
   7   7  -3   11.60    4.10
   7   7  -3   18.80    4.80
   7   7  -3   13.60    4.50
  -7  -7   3   21.00    5.70
   6   7  -3  139.19   11.10
   6   7  -3  151.98   11.30
  -6  -7   3  150.08   11.30
  -6  -7   3  137.19   10.80
   5   7  -3   90.59    8.10
   5   7  -3   77.29    8.90
  -5  -7   3   85.69    8.10
  -5  -7   3   92.79    8.50
   4   7  -3    1.80    2.20
   4   7  -3    4.20    2.90
  -4  -7   3    9.10    3.20
  -4  -7   3    2.30    2.70
   3   7  -3  142.79   16.60
   3   7  -3  142.69   10.50
  -3  -7   3  169.28   11.30
   2   7  -3   70.19    6.70
   2   7  -3   70.79    6.80
   2   7  -3   54.99    7.00
  -2  -7   3   66.39    8.20
   1   7  -3    4.30    2.80
   1   7  -3   13.20    4.00
   1   7  -3   13.30    3.60
  -1  -7   3   13.80    3.70
   0   7  -3    3.80    2.50
   0   7  -3    4.30    3.00
   0  -7   3    3.20    2.50
  -1   7  -3   10.00    3.80
  -1   7  -3    5.10    2.60
  -1   7  -3    7.10    3.50
   1  -7   3    5.40    2.90
  -2   7  -3  189.38   12.40
  -2   7  -3  185.88   11.20
   2  -7   3  176.38   11.50
   2  -7   3  180.38   12.70
  -3   7  -3    1.90    2.20
  -3   7  -3    6.10    3.60
   3  -7   3   -1.10    2.10
   3  -7   3    0.20    2.80
  -4   7  -3   20.60    3.80
  -4   7  -3   17.50    4.70
   4  -7   3   12.50    4.50
  -5   7  -3   19.60    3.40
  -5   7  -3   22.80    3.60
  -5   7  -3   16.60    5.00
   9   6  -3   13.80    4.30
   9   6  -3    7.00    3.50
  -9  -6   3   16.80    5.40
   8   6  -3   72.79    8.60
   8   6  -3   43.60    6.50
   8   6  -3   58.89    8.50
  -8  -6   3   59.69    8.70
   7   6  -3   76.79    8.70
   7   6  -3   86.99   10.20
   7   6  -3   66.99    8.20
  -7  -6   3   89.19   10.40
   6   6  -3   90.79    8.40
   6   6  -3  103.29    8.60
  -6  -6   3   94.19    8.30
  -6  -6   3  101.79    8.70
   5   6  -3   97.29    8.30
   5   6  -3   95.29    8.30
  -5  -6   3  104.69    9.60
  -5  -6   3   99.19    8.30
   4   6  -3  105.79    8.40
  -4  -6   3  100.29   11.30
  -4  -6   3   96.99    8.20
   3   6  -3   70.49    8.00
   3   6  -3   65.69    6.50
  -3  -6   3   86.59    9.00
  -3  -6   3   77.79    7.10
   2   6  -3  207.38   12.40
   2   6  -3  193.88   12.10
  -2  -6   3  191.28   12.40
   1   6  -3    4.80    2.60
   1   6  -3    8.60    2.90
   1   6  -3    8.20    2.80
  -1  -6   3   10.30    3.30
   0   6  -3   94.59    7.40
   0   6  -3  100.19    8.00
   0   6  -3   96.99    7.80
   0  -6   3  102.19    8.00
  -1   6  -3   91.29    7.70
  -1   6  -3   90.89    6.90
   1  -6   3   92.19    7.50
  -2   6  -3   46.50   10.30
  -2   6  -3   58.69    5.30
   2  -6   3   56.79    7.20
   2  -6   3   48.90    5.80
  -3   6  -3   51.69    6.80
  -3   6  -3   65.49    5.60
   3  -6   3   53.99    7.30
   3  -6   3   74.79    6.30
  -4   6  -3    4.00    2.10
  -4   6  -3    7.90    3.70
   4  -6   3    3.40    3.40
   4  -6   3    6.00    2.30
  -5   6  -3    8.70    4.00
  -5   6  -3   13.00    2.70
   5  -6   3   15.80    5.10
  -6   6  -3    3.10    1.80
  -6   6  -3   -0.60    3.50
   9   5  -3    3.50    2.70
   9   5  -3   11.60    4.10
  -9  -5   3    2.90    3.40
   8   5  -3   67.99    7.70
   8   5  -3   55.69    8.10
   8   5  -3   64.29    7.60
  -8  -5   3   67.59    9.30
   7   5  -3  227.98   14.70
   7   5  -3  259.67   15.70
  -7  -5   3  273.27   16.10
   6   5  -3   13.90    4.10
   6   5  -3    7.20    3.10
  -6  -5   3    7.30    3.30
  -6  -5   3    6.90    3.00
   5   5  -3   12.60    4.10
   5   5  -3    8.60    2.80
  -5  -5   3   12.60    3.60
  -5  -5   3   12.20    3.30
   4   5  -3   17.30    3.90
   4   5  -3   16.40    3.70
  -4  -5   3    9.50    3.10
  -4  -5   3   19.30    4.10
   3   5  -3   36.00    5.20
   3   5  -3   29.30    4.70
  -3  -5   3   31.70    4.90
  -3  -5   3   29.60    5.20
   2   5  -3  223.28   12.70
   2   5  -3  241.58   13.00
  -2  -5   3  213.78   12.80
  -2  -5   3  202.68   12.70
   1   5  -3   12.60    3.40
   1   5  -3   10.60    3.00
   1   5  -3    6.10    2.40
  -1  -5   3    8.70    2.90
   0   5  -3  633.44   29.30
   0   5  -3  620.44   29.60
   0   5  -3  646.34   30.00
   0  -5   3  616.54   29.60
  -1   5  -3    3.00    2.60
  -1   5  -3    4.40    2.20
   1  -5   3    2.70    2.10
   1  -5   3    4.70    2.60
  -2   5  -3  294.67   14.70
  -2   5  -3  278.67   15.60
   2  -5   3  279.57   15.00
   2  -5   3  278.07   15.90
  -3   5  -3  376.96   22.40
  -3   5  -3  330.07   17.00
   3  -5   3  325.97   18.90
   3  -5   3  366.76   17.70
  -4   5  -3   22.70    3.50
  -4   5  -3   25.40    4.90
   4  -5   3   28.10    3.70
   4  -5   3   29.40    5.60
  -5   5  -3   16.10    2.70
  -5   5  -3   13.10    4.30
   5  -5   3   18.80    3.00
   5  -5   3   18.90    5.00
  -6   5  -3   -1.40    3.10
  -6   5  -3   -0.30    1.10
   6  -5   3   -1.70    3.20
   9   4  -3    2.50    2.90
   9   4  -3    0.60    2.70
   9   4  -3    0.00    2.70
  -9  -4   3    0.30    2.80
   8   4  -3   -0.80    2.00
   8   4  -3   -0.30    2.40
   8   4  -3    4.90    3.30
  -8  -4   3   -2.20    2.20
   7   4  -3   76.69    7.50
   7   4  -3   78.79    7.10
  -7  -4   3   81.09    7.70
   6   4  -3   73.09    6.50
   6   4  -3   68.69    6.70
  -6  -4   3   72.69    7.00
  -6  -4   3   72.59    6.40
   5   4  -3  260.97   14.90
   5   4  -3  280.57   15.00
  -5  -4   3  256.87   14.80
  -5  -4   3  275.67   15.20
   4   4  -3    8.80    2.80
   4   4  -3   11.20    3.10
  -4  -4   3    8.70    2.90
  -4  -4   3    9.10    2.90
   3   4  -3   51.09    5.80
   3   4  -3   58.79    6.30
  -3  -4   3   43.20    5.60
  -3  -4   3   53.49    6.00
   2   4  -3  665.43   30.00
   2   4  -3  629.64   29.70
  -2  -4   3  641.54   29.90
  -2  -4   3  640.54   30.10
   1   4  -3   -1.10    1.50
   1   4  -3   -1.30    1.80
   1   4  -3   -0.40    2.00
  -1  -4   3   -0.50    1.70
   0   4  -3  233.78   12.70
   0   4  -3  237.28   12.50
   0   4  -3  214.58   12.70
   0  -4   3  239.48   12.80
  -1   4  -3   33.20    4.70
  -1   4  -3   36.70    4.40
   1  -4   3   36.50    5.00
   1  -4   3   28.30    4.20
  -2   4  -3   13.80    3.40
  -2   4  -3    8.00    2.20
   2  -4   3    8.10    2.90
   2  -4   3    6.70    2.20
  -3   4  -3   53.59    6.30
  -3   4  -3   43.50    4.10
   3  -4   3   50.29    6.30
   3  -4   3   47.60    4.50
  -4   4  -3   83.19    5.70
  -4   4  -3   91.19   12.70
   4  -4   3   77.39    7.60
   4  -4   3   92.89    6.20
  -5   4  -3  105.79    6.50
  -5   4  -3   99.29    8.90
   5  -4   3  114.79    6.90
   5  -4   3  113.29    9.40
  -6   4  -3    5.80    1.60
  -6   4  -3    6.00    3.50
   6  -4   3    3.90    3.40
  -7   4  -3    9.60    4.60
   9   3  -3    0.20    2.40
   9   3  -3    0.40    2.30
   9   3  -3    1.70    3.40
  -9  -3   3    2.10    3.30
   8   3  -3   33.70    5.70
   8   3  -3   31.20    4.60
   8   3  -3   35.60    5.10
  -8  -3   3   29.40    5.50
   7   3  -3   86.69    6.70
   7   3  -3   65.99    7.70
  -7  -3   3   62.29    7.70
   6   3  -3  126.89    9.10
   6   3  -3  122.09    8.30
  -6  -3   3  119.29    8.80
  -6  -3   3  122.59    8.30
   5   3  -3  742.73   34.00
   5   3  -3  753.82   34.50
  -5  -3   3  776.22   34.80
  -5  -3   3  710.93   34.20
   4   3  -3  155.58    9.60
   4   3  -3  159.48    9.50
  -4  -3   3  149.09    9.60
  -4  -3   3  156.18    9.70
   3   3  -3  100.59    6.90
  -3  -3   3   88.69    6.70
  -3  -3   3   92.59    7.00
   2   3  -3   61.79    5.10
   2   3  -3   55.09    5.00
  -2  -3   3   55.99    5.20
  -2  -3   3   50.19    5.40
   1   3  -3    1.40    2.00
   1   3  -3    1.30    1.60
   1   3  -3    1.20    1.90
  -1  -3   3    1.70    1.80
   0   3  -3  142.09    8.40
   0   3  -3  143.09    8.60
   0  -3   3  151.98    8.80
   0  -3   3  138.99    8.60
  -1   3  -3    6.30    2.50
  -1   3  -3    2.40    1.70
   1  -3   3    1.20    2.20
   1  -3   3    1.70    1.70
  -2   3  -3    0.80    1.40
  -2   3  -3    3.70    2.50
   2  -3   3    2.10    1.80
   2  -3   3    1.40    2.40
  -3   3  -3   93.49    5.90
  -3   3  -3   89.79    7.20
   3  -3   3   95.49    6.20
   3  -3   3   90.09    7.30
  -4   3  -3   41.70    5.60
  -4   3  -3   48.40    3.90
   4  -3   3   43.20    4.00
   4  -3   3   38.20    5.40
  -5   3  -3  198.78   10.60
  -5   3  -3  203.98   13.10
   5  -3   3  208.98   13.30
   5  -3   3  222.28   10.70
  -6   3  -3   13.20    1.80
  -6   3  -3    7.00    3.60
   6  -3   3    7.30    1.60
   6  -3   3    4.10    3.40
  -7   3  -3    2.80    3.60
   7  -3   3    3.50    3.60
   9   2  -3    0.60    3.00
   9   2  -3    2.50    2.20
   9   2  -3    2.30    2.20
  -9  -2   3    2.80    3.40
   8   2  -3   29.60    4.20
   8   2  -3   27.40    5.40
  -8  -2   3   29.30    5.60
   7   2  -3   15.50    3.00
   7   2  -3   20.60    3.70
   7   2  -3   16.30    4.00
   6   2  -3   42.30    5.00
   6   2  -3   40.90    5.40
  -6  -2   3   55.99    4.80
  -6  -2   3   53.09    6.40
   5   2  -3   78.09    6.30
   5   2  -3   73.39    5.70
  -5  -2   3   73.59    5.90
  -5  -2   3   76.59    6.30
   4   2  -3   24.40    3.70
   4   2  -3   19.00    3.40
  -4  -2   3   16.10    3.00
  -4  -2   3   17.40    3.30
   3   2  -3    1.00    1.80
   3   2  -3    1.30    1.70
  -3  -2   3    1.80    1.70
  -3  -2   3    2.20    1.90
   2   2  -3   28.30    3.70
   2   2  -3   41.70    4.30
  -2  -2   3   36.00    4.10
  -2  -2   3   35.10    4.20
   1   2  -3   45.60    4.70
   1   2  -3   26.60    3.70
  -1  -2   3   28.50    3.60
  -1  -2   3   32.70    4.10
   0   2  -3  102.89    6.50
   0   2  -3   96.39    6.50
   0  -2   3  113.69    6.80
   0  -2   3   99.49    6.60
  -1   2  -3   96.09    6.00
  -1   2  -3   96.39    6.40
   1  -2   3   89.69    6.50
   1  -2   3   97.79    6.20
  -2   2  -3    6.50    2.50
  -2   2  -3    1.40    1.30
   2  -2   3    2.60    1.70
   2  -2   3   -1.50    2.00
  -3   2  -3  467.95   22.00
  -3   2  -3  445.26   21.40
   3  -2   3  442.66   22.00
   3  -2   3  457.75   20.60
  -4   2  -3   -0.60    2.00
  -4   2  -3   -0.20    1.30
   4  -2   3    0.50    2.10
   4  -2   3    0.30    1.40
  -5   2  -3   39.50    5.70
  -5   2  -3   39.20    3.30
   5  -2   3   44.40    4.20
   5  -2   3   36.70    5.50
  -6   2  -3   10.70    1.80
  -6   2  -3    8.90    3.70
   6  -2   3    9.80    3.80
   6  -2   3    9.80    1.80
  -7   2  -3   -1.30    2.40
   7  -2   3    3.40    3.40
  -8   2  -3    5.10    3.80
   9   1  -3   43.10    6.70
   9   1  -3   35.30    4.00
   9   1  -3   38.20    4.20
  -9  -1   3   54.89    8.30
   8   1  -3    6.10    2.20
   8   1  -3    4.00    2.00
   8   1  -3    5.60    3.10
  -8  -1   3    4.40    3.30
   7   1  -3   42.40    4.60
   7   1  -3   37.90    4.20
   7   1  -3   57.09    6.60
  -7  -1   3   54.59    7.00
   6   1  -3  104.79    6.90
   6   1  -3  105.69    7.90
  -6  -1   3  108.69    6.80
  -6  -1   3  117.29    8.30
   5   1  -3   26.40    3.50
   5   1  -3   17.50    3.40
  -5  -1   3   23.00    3.80
  -5  -1   3   19.40    3.20
   4   1  -3   29.40    3.50
   4   1  -3   27.80    3.90
  -4  -1   3   26.90    3.40
  -4  -1   3   22.80    3.50
   3   1  -3  114.99    7.00
   3   1  -3  115.49    6.90
  -3  -1   3  118.29    7.20
  -3  -1   3  112.79    7.00
   2   1  -3   53.19    4.10
   2   1  -3   56.19    4.40
  -2  -1   3   53.29    4.60
  -2  -1   3   53.89    4.60
   1   1  -3   14.30    2.90
   1   1  -3   16.80    2.60
  -1  -1   3   14.20    2.60
  -1  -1   3    8.60    2.10
   0   1  -3  522.85   24.30
   0   1  -3  584.84   25.50
   0  -1   3  552.34   24.60
   0  -1   3  549.65   24.40
  -1   1  -3   13.20    2.70
  -1   1  -3    7.40    2.00
   1  -1   3   15.50    2.90
   1  -1   3   13.80    2.50
  -2   1  -3   55.69    4.00
  -2   1  -3   51.29    4.70
   2  -1   3   51.09    4.00
   2  -1   3   49.90    5.10
  -3   1  -3   36.60    3.60
  -3   1  -3   37.00    4.60
   3  -1   3   27.20    3.20
   3  -1   3   31.30    4.30
  -4   1  -3   10.70    2.10
  -4   1  -3   12.60    3.20
   4  -1   3   10.40    3.10
   4  -1   3    8.50    1.90
  -5   1  -3    3.20    1.40
  -5   1  -3    4.20    2.70
   5  -1   3    5.20    1.60
   5  -1   3    5.30    2.60
  -6   1  -3    1.30    2.50
  -6   1  -3    1.20    1.10
   6  -1   3    0.20    1.30
   6  -1   3    0.50    2.40
  -7   1  -3   31.20    5.80
   7  -1   3   12.80    3.90
  -8   1  -3   28.20    6.10
   8  -1   3    3.20    4.30
   9   0  -3   22.60    5.10
  -9   0   3   27.20    5.90
   8   0  -3    2.40    1.40
   8   0  -3    2.00    1.60
   8   0  -3    1.80    3.00
  -8   0   3    1.80    2.60
   7   0  -3   67.79    4.70
   7   0  -3   53.29    6.50
  -7   0   3   59.39    7.00
   6   0  -3    2.00    1.60
   6   0  -3    2.10    2.40
  -6   0   3    4.00    2.40
  -6   0   3    0.30    1.10
   5   0  -3  160.08    9.40
  -5   0   3  155.38    8.50
  -5   0   3  155.98    9.40
   4   0  -3  140.49    8.00
  -4   0   3  128.69    7.50
  -4   0   3  136.09    8.10
   3   0  -3   -1.80    1.40
   3   0  -3   -0.60    1.30
  -3   0   3    0.00    1.30
  -3   0   3    0.30    1.50
   2   0  -3  316.37   14.30
   2   0  -3  296.07   13.90
  -2   0   3  316.77   14.40
  -2   0   3  287.87   14.00
   1   0  -3  906.11   38.80
   1   0  -3  923.71   39.30
  -1   0   3  870.61   38.80
  -1   0   3  969.60   39.50
   0   0  -3  232.88   10.80
   0   0  -3  229.18   11.20
   0   0   3  237.28   10.90
   0   0   3  228.78   11.90
  -1   0  -3  133.39    7.20
  -1   0  -3  135.89    7.20
   1   0   3  126.39    7.70
   1   0   3  131.19    7.20
  -2   0  -3    3.80    1.60
  -2   0  -3    3.80    2.10
   2   0   3    0.80    1.40
   2   0   3    3.30    2.20
  -3   0  -3   32.10    4.20
  -3   0  -3   25.20    3.10
   3   0   3   25.50    3.80
   3   0   3   26.10    3.10
  -4   0  -3   19.10    3.90
  -4   0  -3   17.80    2.60
   4   0   3   16.60    2.50
   4   0   3   22.00    3.80
  -5   0  -3  119.59    8.20
  -5   0  -3   97.19    6.10
   5   0   3  100.09    7.70
   5   0   3   94.49    5.80
  -6   0  -3  232.48   15.30
  -6   0  -3  212.58   11.40
   6   0   3  217.68   10.90
   6   0   3  237.88   13.70
  -7   0  -3    8.80    3.50
  -7   0  -3   11.30    2.00
   7   0   3   16.40    4.40
  -8   0  -3   10.50    4.20
   8   0   3   18.60    2.00
   8   0   3   17.00    4.50
   9   0   3   36.40    6.50
   9  -1  -3   14.90    4.70
  -9   1   3   25.50    5.80
   8  -1  -3    1.30    2.80
  -8   1   3   11.60    4.10
   7  -1  -3  141.89   10.00
  -7   1   3  139.39    9.90
   6  -1  -3   29.50    4.70
   6  -1  -3   34.60    2.80
  -6   1   3   32.40    4.90
   5  -1  -3    9.60    1.70
   5  -1  -3    3.80    2.20
  -5   1   3    9.90    2.80
  -5   1   3    7.60    1.60
   4  -1  -3  224.58   11.00
   4  -1  -3  257.07   12.10
  -4   1   3  229.38   11.90
  -4   1   3  225.48   11.20
   3  -1  -3   25.70    2.80
   3  -1  -3   24.80    2.90
  -3   1   3   26.60    2.90
  -3   1   3   24.70    3.50
   2  -1  -3   98.09    5.40
   2  -1  -3  101.59    5.70
  -2   1   3  103.09    5.40
  -2   1   3   99.99    5.70
   1  -1  -3  258.07   11.70
   1  -1  -3  247.18   10.80
  -1   1   3  233.38   10.80
  -1   1   3  247.18   11.60
   0  -1  -3    1.00    1.50
   0  -1  -3   -0.50    1.10
   0   1   3   -1.40    1.10
   0   1   3   -0.30    1.30
  -1  -1  -3   31.80    3.40
  -1  -1  -3   33.50    3.20
   1   1   3   30.70    3.00
  -2  -1  -3    9.80    2.10
  -2  -1  -3   11.00    2.50
   2   1   3    7.00    1.80
   2   1   3   14.00    2.70
  -3  -1  -3  102.09    6.60
  -3  -1  -3   88.39    5.80
   3   1   3   98.09    6.50
   3   1   3   95.79    5.80
  -4  -1  -3    1.00    2.00
  -4  -1  -3    0.50    1.30
   4   1   3    1.10    1.20
   4   1   3   -1.50    1.80
  -5  -1  -3   14.10    3.50
  -5  -1  -3   21.00    2.90
   5   1   3   22.70    4.20
   5   1   3   22.10    2.90
  -6  -1  -3   38.70    6.00
  -6  -1  -3   54.99    4.20
   6   1   3   50.79    4.10
   6   1   3   50.19    6.30
  -7  -1  -3   43.40    7.10
  -7  -1  -3   39.20    3.70
   7   1   3   32.70    3.60
   7   1   3   36.40    6.00
  -8  -1  -3    0.10    3.00
   8   1   3    2.40    3.20
   8   1   3    0.50    1.60
   8   1   3    1.20    1.50
  -9  -1  -3    5.90    3.80
   9   1   3    4.40    5.00
   9   1   3    8.40    1.80
   8  -2  -3    0.60    2.90
  -8   2   3    1.30    3.10
   7  -2  -3  103.99    8.40
  -7   2   3  103.29    8.50
   6  -2  -3   13.30    3.40
  -6   2   3   12.90    3.50
   5  -2  -3    1.30    1.90
   5  -2  -3    0.10    0.80
  -5   2   3    0.90    0.80
  -5   2   3   -0.40    1.80
   4  -2  -3  220.68   10.50
   4  -2  -3  241.98   11.80
  -4   2   3  237.88   11.80
  -4   2   3  210.88   10.40
   3  -2  -3   45.70    3.30
   3  -2  -3   47.10    3.90
  -3   2   3   54.29    3.50
  -3   2   3   48.50    3.80
   2  -2  -3   91.59    4.80
   2  -2  -3   86.49    5.10
  -2   2   3   84.19    4.70
  -2   2   3   90.39    5.10
   1  -2  -3   84.29    3.70
   1  -2  -3   81.89    5.00
   1  -2  -3   84.39    3.70
  -1   2   3   73.59    3.70
  -1   2   3   82.99    5.00
   0  -2  -3  137.29    7.00
   0  -2  -3  122.09    5.50
   0   2   3  123.69    5.50
   0   2   3  126.89    7.50
  -1  -2  -3 1664.33   70.19
  -1  -2  -3 1725.23   70.99
   1   2   3 1617.14   70.19
   1   2   3 1745.73   71.09
  -2  -2  -3   27.90    3.40
  -2  -2  -3   26.80    3.20
   2   2   3   21.00    2.90
   2   2   3   28.80    3.30
  -3  -2  -3  274.07   13.40
  -3  -2  -3  268.77   13.00
   3   2   3  254.37   13.20
   3   2   3  259.87   12.90
  -4  -2  -3   89.59    6.60
  -4  -2  -3   93.09    6.00
   4   2   3   89.89    5.90
   4   2   3   96.19    6.80
  -5  -2  -3    3.40    1.70
  -5  -2  -3    4.70    2.70
   5   2   3    5.90    2.60
   5   2   3    4.90    1.80
  -6  -2  -3   69.49    5.10
  -6  -2  -3   79.49    6.80
   6   2   3   59.59    4.90
   6   2   3   42.90    7.80
  -7  -2  -3   46.40    4.20
  -7  -2  -3   31.60    5.70
   7   2   3   41.70    4.70
   7   2   3   31.20    5.50
  -8  -2  -3   60.49    8.30
   8   2   3   65.39    8.30
   8   2   3   87.09    5.90
   8   2   3   84.99    5.80
  -9  -2  -3    0.70    3.50
   9   2   3    1.70    1.70
   9   2   3   -0.30    1.70
   8  -3  -3   -2.10    2.70
  -8   3   3    2.90    3.00
   7  -3  -3   31.40    5.00
  -7   3   3   36.00    6.90
   6  -3  -3   74.69    6.70
  -6   3   3   95.59    7.30
   5  -3  -3   48.30    5.30
  -5   3   3   56.29    5.10
   4  -3  -3  384.16   17.40
   4  -3  -3  429.76   18.90
  -4   3   3  431.96   19.10
  -4   3   3  367.26   17.20
   3  -3  -3    7.60    1.60
   3  -3  -3    5.50    1.90
  -3   3   3    9.20    2.10
  -3   3   3    4.90    1.40
   2  -3  -3  311.37   13.90
   2  -3  -3  300.97   14.10
  -2   3   3  310.17   14.10
  -2   3   3  305.17   13.80
   1  -3  -3  283.07   12.20
   1  -3  -3  286.47   13.30
  -1   3   3  276.57   12.10
  -1   3   3  276.67   12.10
   0  -3  -3   16.40    2.60
   0  -3  -3   14.90    1.50
   0   3   3   19.90    1.50
   0   3   3   19.60    2.70
  -1  -3  -3   74.59    4.30
   1   3   3   77.69    5.20
   1   3   3   72.89    4.30
  -2  -3  -3   -0.80    1.50
  -2  -3  -3    1.20    1.50
   2   3   3    1.10    1.50
   2   3   3    1.40    1.70
  -3  -3  -3   83.99    5.90
  -3  -3  -3   86.09    5.90
   3   3   3   79.99    5.70
   3   3   3   86.89    5.90
  -4  -3  -3   15.80    2.80
  -4  -3  -3   25.20    4.00
   4   3   3   16.40    3.40
   4   3   3   13.80    2.70
  -5  -3  -3    0.30    1.30
  -5  -3  -3    0.60    1.90
   5   3   3    2.10    2.00
   5   3   3    0.40    1.50
  -6  -3  -3   45.60    5.00
  -6  -3  -3   37.40    5.60
   6   3   3   56.99    9.70
   6   3   3   48.90    5.30
  -7  -3  -3   32.10    4.10
  -7  -3  -3   32.70    5.80
   7   3   3   32.80    5.40
   7   3   3   40.10    4.80
  -8  -3  -3   62.69    8.50
   8   3   3   77.39    5.90
   8   3   3   49.10    7.30
   8   3   3   67.59    5.60
  -9  -3  -3    4.20    3.70
   9   3   3    1.50    1.90
   9   3   3    3.70    2.30
   8  -4  -3   -2.30    3.40
  -8   4   3    3.90    3.30
   7  -4  -3    2.50    3.10
  -7   4   3   -0.80    2.30
   6  -4  -3    4.20    2.80
  -6   4   3    3.40    2.60
   5  -4  -3    3.00    2.30
  -5   4   3   -1.50    1.60
   4  -4  -3    0.00    1.90
  -4   4   3   -0.10    0.80
  -4   4   3    1.30    1.80
   3  -4  -3  201.58   10.40
   3  -4  -3  210.18    9.80
  -3   4   3  193.48    9.60
  -3   4   3  199.18   10.30
   2  -4  -3  158.08    7.80
   2  -4  -3  118.79    9.10
  -2   4   3  137.19    7.60
  -2   4   3  151.08    7.40
   1  -4  -3    1.90    1.40
  -1   4   3    1.00    1.20
  -1   4   3    2.50    1.40
   0  -4  -3  125.99    7.40
   0   4   3  126.39    6.20
   0   4   3  124.99    7.30
  -1  -4  -3   10.80    1.90
  -1  -4  -3    4.40    2.00
   1   4   3    8.60    1.80
   1   4   3    9.80    2.50
  -2  -4  -3   12.70    2.70
   2   4   3   17.50    3.10
   2   4   3   14.80    2.70
  -3  -4  -3  565.84   26.50
  -3  -4  -3  610.44   27.20
   3   4   3  608.04   27.10
   3   4   3  571.14   26.60
  -4  -4  -3   62.39    5.30
  -4  -4  -3   64.39    5.50
   4   4   3   61.19    5.30
   4   4   3   65.69    5.50
  -5  -4  -3    5.70    2.40
  -5  -4  -3    0.50    1.60
   5   4   3    6.70    2.40
   5   4   3    7.30    2.70
  -6  -4  -3   69.19    6.60
  -6  -4  -3   71.19    6.00
   6   4   3   69.29    5.80
   6   4   3   87.69   11.60
  -7  -4  -3   18.10    4.20
  -7  -4  -3   11.50    2.90
   7   4   3   13.30    3.20
   7   4   3   16.20    4.00
  -8  -4  -3   44.40    6.90
   8   4   3   28.40    5.50
   8   4   3   36.60    4.80
   8   4   3   54.09    6.10
  -9  -4  -3    6.30    4.10
   9   4   3    5.40    2.60
   9   4   3    3.40    2.20
   7  -5  -3    6.60    3.60
  -7   5   3    4.00    3.10
  -6   5   3   15.00    3.80
   5  -5  -3    1.10    2.40
  -5   5   3   -0.30    1.90
   4  -5  -3  189.38   10.40
  -4   5   3  171.88   10.10
  -4   5   3  172.78    8.50
   3  -5  -3 2135.99   90.89
   3  -5  -3 2196.98   90.19
  -3   5   3 2120.49   90.19
  -3   5   3 2162.98   90.79
   2  -5  -3   30.20    3.40
   2  -5  -3   22.30    3.50
  -2   5   3   32.40    3.30
  -2   5   3   28.10    3.20
   1  -5  -3   80.89    5.40
  -1   5   3   75.69    4.70
  -1   5   3   67.59    5.00
  -1   5   3   71.79    5.20
   0  -5  -3    3.90    2.00
   0   5   3    7.00    2.00
   0   5   3    6.00    1.60
   0   5   3   12.20    2.20
  -1  -5  -3   29.30    4.00
  -1  -5  -3   31.30    3.40
   1   5   3   33.00    4.30
   1   5   3   29.60    2.80
  -2  -5  -3   36.20    4.70
  -2  -5  -3   47.30    4.60
   2   5   3   40.20    4.20
   2   5   3   27.30    4.10
  -3  -5  -3  538.55   25.50
  -3  -5  -3  548.65   25.00
   3   5   3  520.35   24.80
   3   5   3  553.44   25.70
  -4  -5  -3  377.06   18.90
  -4  -5  -3  368.06   18.60
   4   5   3  364.06   18.50
   4   5   3  384.36   19.00
  -5  -5  -3    1.90    2.20
  -5  -5  -3    1.00    1.90
   5   5   3    2.00    1.80
   5   5   3    1.60    1.90
  -6  -5  -3   13.40    3.50
  -6  -5  -3    8.00    2.70
   6   5   3   19.50    3.80
  -7  -5  -3  139.19   10.40
   7   5   3  133.79   10.10
   7   5   3  142.19    9.50
  -8  -5  -3   21.50    5.30
   8   5   3   37.50    5.60
   8   5   3   24.40    5.10
   8   5   3   25.60    4.30
  -9  -5  -3    4.90    3.50
   9   5   3    5.90    3.10
   9   5   3   14.50    3.90
   7  -6  -3    7.70    3.90
  -7   6   3   -2.60    2.30
   6  -6  -3   34.60    5.50
   5  -6  -3   29.00    5.00
  -5   6   3   32.10    4.70
   4  -6  -3   11.00    3.20
  -4   6   3    9.60    1.80
  -4   6   3   18.50    3.30
   3  -6  -3  179.38   10.50
  -3   6   3  193.38    9.60
  -3   6   3  187.98   10.10
  -3   6   3  177.18    9.60
   2  -6  -3  295.77   14.80
   2  -6  -3  328.77   15.10
  -2   6   3  276.67   14.60
  -2   6   3  307.57   14.60
   1  -6  -3  127.49    7.90
  -1   6   3  127.09    7.40
  -1   6   3  128.99    7.30
  -1   6   3  122.09    7.60
   0  -6  -3   43.20    4.90
   0   6   3   41.70    3.70
   0   6   3   49.40    5.40
   0   6   3   48.20    3.90
  -1  -6  -3  334.67   16.10
  -1  -6  -3  335.57   17.20
   1   6   3  339.97   17.20
   1   6   3  337.37   16.00
  -2  -6  -3   41.70    5.30
  -2  -6  -3   41.90    4.80
   2   6   3   47.90    5.70
   2   6   3   36.20    4.30
  -3  -6  -3    0.10    1.80
  -3  -6  -3    2.90    1.90
   3   6   3   -0.60    1.60
   3   6   3    0.80    1.80
  -4  -6  -3  358.16   18.20
  -4  -6  -3  350.56   18.60
   4   6   3  356.66   18.70
   4   6   3  361.46   18.10
  -5  -6  -3   96.49    7.40
  -5  -6  -3   84.69    7.20
   5   6   3   92.89    7.50
   5   6   3   85.49    7.10
  -6  -6  -3    7.60    3.00
  -6  -6  -3   16.00    3.80
   6   6   3    7.90    2.90
   6   6   3    9.40    3.20
  -7  -6  -3   61.89    8.00
   7   6   3   68.09    8.00
   7   6   3   50.49    6.30
   7   6   3   54.09    6.60
  -8  -6  -3    9.80    4.20
   8   6   3    7.90    3.80
   8   6   3    3.20    2.90
   8   6   3    7.40    3.00
  -9  -6  -3  144.49   12.10
   9   6   3  145.89   10.60
   6  -7  -3    7.90    4.00
  -6   7   3   10.40    3.50
  -5   7   3   44.90    5.60
   4  -7  -3    6.30    3.10
  -4   7   3   10.40    2.60
  -4   7   3    7.10    1.80
  -4   7   3   11.50    3.20
   3  -7  -3   28.60    4.50
  -3   7   3   29.50    3.60
  -3   7   3   22.40    3.60
  -3   7   3   23.60    3.40
  -2   7   3    3.90    1.70
  -2   7   3    5.40    2.10
  -2   7   3    4.80    2.00
  -1   7   3   84.19    6.10
  -1   7   3   98.99    6.80
  -1   7   3  101.59    6.60
   0  -7  -3   78.69    6.40
   0   7   3   82.49    5.60
   0   7   3   74.99    6.10
   0   7   3   72.39    5.40
  -1  -7  -3   12.60    3.00
  -1  -7  -3   15.00    3.40
   1   7   3   13.70    2.70
   1   7   3   17.50    3.70
  -2  -7  -3   71.09    5.60
  -2  -7  -3   67.59    6.20
   2   7   3   68.79    7.10
   2   7   3   64.69    5.20
  -3  -7  -3   59.59    6.90
  -3  -7  -3   52.79    5.20
   3   7   3   69.39    7.90
   3   7   3   63.19    5.30
  -4  -7  -3   95.29    9.30
  -4  -7  -3   59.49    5.80
   4   7   3   71.19    7.50
   4   7   3   60.89    5.80
  -5  -7  -3   33.10    5.50
  -5  -7  -3   30.90    5.00
   5   7   3   32.60    5.30
   5   7   3   35.60    5.70
   6   7   3   23.40    4.70
   6   7   3   12.00    3.40
  -7  -7  -3    9.10    3.90
   7   7   3    9.20    3.60
   7   7   3   13.40    4.50
   7   7   3    8.70    3.70
  -8  -7  -3   24.10    5.90
   8   7   3   46.00    6.60
   8   7   3   42.00    9.10
   8   7   3   34.70    5.70
  -9  -7  -3   50.69    8.20
   9   7   3   53.29    7.30
   9   7   3   59.19    7.80
   5  -8  -3    0.60    3.00
  -5   8   3    3.80    1.50
  -5   8   3    2.10    2.50
  -5   8   3    2.20    1.50
   4  -8  -3   43.60    6.00
  -4   8   3   46.00    4.20
  -4   8   3   50.69    4.40
  -4   8   3   51.39    5.90
   3  -8  -3   50.89    6.30
  -3   8   3   58.99    5.10
  -3   8   3   62.59    5.00
  -3   8   3   55.69    5.30
  -2   8   3   17.30    3.40
  -2   8   3   20.00    3.50
  -2   8   3   27.20    4.30
  -2   8   3   15.20    3.40
  -1   8   3   90.29    6.80
  -1   8   3   90.49    6.80
  -1   8   3   91.79    6.50
  -1   8   3   82.49    6.50
   0   8   3   16.00    3.40
   0   8   3   27.60    4.40
   0   8   3   31.10    4.20
   0   8   3   30.90    4.30
   1   8   3    1.00    1.70
   1   8   3   -0.70    1.70
  -2  -8  -3  178.68   11.40
  -2  -8  -3  179.88   10.40
   2   8   3  157.48   10.90
   2   8   3  173.08   10.10
  -3  -8  -3    2.50    2.20
  -3  -8  -3   -2.90    1.60
   3   8   3    1.10    2.00
   3   8   3    0.10    1.60
  -4  -8  -3  188.78   12.40
  -4  -8  -3  181.08   11.50
   4   8   3  194.68   12.60
   4   8   3  186.18   11.30
  -5  -8  -3  157.38   10.60
   5   8   3  142.79   10.60
   5   8   3  152.28   10.90
  -6  -8  -3  238.58   14.80
   6   8   3  249.28   15.10
   6   8   3  244.18   15.30
   6   8   3  246.38   14.90
  -7  -8  -3  211.58   14.10
   7   8   3  218.78   14.30
   7   8   3  222.88   14.00
   7   8   3  199.08   13.90
  -8  -8  -3   55.69    8.60
   8   8   3   59.79    7.70
   8   8   3   48.80    7.60
   8   8   3   46.20    7.10
  -9  -8  -3   -0.80    3.40
   9   8   3    2.40    2.90
   9   8   3   -0.40    2.70
   5  -9  -3   17.10    4.70
  -5   9   3   33.30    4.00
  -5   9   3   27.60    5.20
   4  -9  -3    2.80    3.10
  -4   9   3    1.40    1.70
  -4   9   3    1.60    1.80
  -4   9   3    4.20    3.20
  -3   9   3   38.20    5.20
  -3   9   3   49.90    5.50
  -3   9   3   48.50    5.30
  -2   9   3   17.70    3.60
  -2   9   3   17.00    3.70
  -2   9   3   10.60    3.40
  -2   9   3   10.60    3.30
  -1   9   3   72.99    6.30
  -1   9   3   84.29    6.80
  -1   9   3   86.59    6.90
  -1   9   3   78.19    6.80
   0   9   3   52.89    6.50
   0   9   3   53.69    6.20
   0   9   3   65.29    7.00
   0   9   3   57.69    5.60
   1   9   3   12.00    3.60
   1   9   3   13.40    3.30
   1   9   3   16.20    3.70
   1   9   3   18.30    3.80
  -2  -9  -3  613.14   29.70
   2   9   3  654.33   33.00
   2   9   3  628.24   30.70
   2   9   3  627.24   29.50
  -3  -9  -3   62.59    7.20
   3   9   3   67.79    6.20
   3   9   3   87.49    9.10
   3   9   3   70.59    8.30
  -4  -9  -3  143.59    9.90
   4   9   3  137.99   10.40
   4   9   3  136.09   10.30
   4   9   3  140.99    9.70
   5   9   3  173.78   11.70
   5   9   3  188.78   12.80
   5   9   3  184.58   12.60
  -6  -9  -3   10.60    4.10
   6   9   3   14.00    4.10
   6   9   3   14.00    4.20
   6   9   3   16.60    4.50
  -7  -9  -3   94.29    9.20
   7   9   3  103.99    9.30
   7   9   3  115.59    9.90
   7   9   3  113.39    9.70
  -8  -9  -3   12.80    4.50
   8   9   3   23.90    5.90
   8   9   3   11.50    4.30
   8   9   3   11.10    4.20
  -9  -9  -3    4.10    4.00
   9   9   3    5.70    3.80
   9   9   3    4.50    3.30
   9   9   3    5.70    4.20
  -4  10   3    9.50    2.70
  -4  10   3   11.50    3.10
  -4  10   3   13.80    3.90
  -3  10   3   -0.10    2.40
  -3  10   3   -3.40    2.30
  -3  10   3   -0.30    2.00
  -3  10   3    3.70    2.40
  -2  10   3    0.60    2.00
  -2  10   3    1.60    2.50
  -2  10   3    3.00    2.10
  -1  10   3    2.70    2.50
  -1  10   3   -1.00    2.10
  -1  10   3    1.10    2.40
  -1  10   3    3.00    2.30
   0  10   3   -0.80    1.90
   0  10   3    0.20    2.20
   0  10   3    0.40    2.40
   0  10   3   -1.60    2.00
   1  10   3   96.19    8.40
   1  10   3  103.99    7.90
   1  10   3  111.19    8.10
  -2 -10  -3  198.78   12.50
   2  10   3  208.28   12.30
   2  10   3  181.18   12.90
   2  10   3  221.88   13.50
  -3 -10  -3   68.99    8.00
   3  10   3   56.69    8.00
   3  10   3   69.89    9.30
   3  10   3   62.99    8.30
   4  10   3   43.70    6.70
   4  10   3   41.00    6.70
   4  10   3   52.09    7.50
  -5 -10  -3   82.89    9.40
   5  10   3   97.09   10.90
   5  10   3   80.29    9.10
   5  10   3   82.09   10.00
  -6 -10  -3   45.90    7.50
   6  10   3   52.09    8.30
   6  10   3   38.40    6.80
   6  10   3   38.20    6.80
  -7 -10  -3   13.40    4.80
   7  10   3    8.00    3.90
   7  10   3   13.80    4.60
   7  10   3    8.60    4.50
  -8 -10  -3   21.40    5.70
   8  10   3   25.30    7.20
   8  10   3    6.40    3.90
   8  10   3   19.70    5.60
  -3  11   3   -0.80    2.20
  -3  11   3    0.90    2.80
  -3  11   3    2.40    3.20
  -3  11   3   -0.70    2.00
  -2  11   3    2.20    3.00
  -2  11   3    3.40    3.00
  -2  11   3    3.50    2.70
  -2  11   3    5.00    3.10
  -1  11   3   11.30    4.40
  -1  11   3   14.50    4.10
  -1  11   3   15.60    3.90
  -1  11   3   13.50    3.90
   0  11   3  119.49    9.10
   0  11   3  126.89    9.80
   0  11   3  115.29    9.40
   0  11   3  110.69    9.30
   1  11   3    2.20    2.30
   1  11   3    6.20    3.20
   1  11   3    6.10    3.20
   1  11   3    4.30    2.90
   2  11   3   14.20    4.30
   2  11   3   22.40    5.10
   2  11   3   16.70    4.10
  -3 -11  -3   31.60    6.00
   3  11   3   32.70    6.40
   3  11   3   31.20    5.30
   3  11   3   23.60    5.50
  -4 -11  -3    4.10    3.30
   4  11   3    5.00    3.40
   4  11   3    9.20    4.00
   4  11   3    9.10    3.90
  -5 -11  -3  197.68   13.60
   5  11   3  197.68   14.20
   5  11   3  198.18   13.20
  -6 -11  -3   20.50    5.30
   6  11   3   16.20    5.20
   6  11   3   10.40    4.20
   6  11   3   14.20    4.70
  -7 -11  -3  172.58   13.40
   7  11   3  180.38   13.90
   7  11   3  172.28   13.10
   8  11   3   -0.10    3.00
   8  11   3    2.00    3.30
  -1  12   3    4.40    3.30
  -1  12   3    3.00    3.10
  -1  12   3    0.00    2.30
  -1  12   3    6.60    3.50
   0  12   3   85.99   10.00
   0  12   3   88.49    8.20
   0  12   3   80.99    9.70
   0  12   3   83.09    8.00
   1  12   3   11.40    4.10
   1  12   3   14.10    4.30
   1  12   3    4.80    3.20
   1  12   3    6.80    3.30
   2  12   3   -1.00    2.20
   2  12   3   -0.40    2.30
   2  12   3    0.50    2.80
   2  12   3    3.00    2.80
  -3 -12  -3    1.60    2.60
   3  12   3   -1.10    2.10
   3  12   3   -1.10    2.20
   3  12   3    3.10    3.20
  -4 -12  -3    9.00    3.80
   4  12   3    2.50    3.10
   4  12   3    5.10    3.30
   4  12   3    3.80    3.40
  -5 -12  -3  220.38   15.40
   5  12   3  244.78   15.60
   5  12   3  249.38   16.90
  -6 -12  -3    2.20    3.70
   6  12   3    6.90    3.70
   6  12   3    6.60    4.30
  -7 -12  -3  135.69   14.40
   7  12   3   80.69   17.20
   7  12   3  138.29   16.90
   7  12   3  135.69   14.90
   1  13   3   14.30    4.60
   1  13   3    9.10    4.30
   1  13   3    4.80    3.60
   1  13   3    8.20    4.00
   2  13   3    0.10    3.10
   2  13   3    0.20    2.70
   2  13   3    1.70    3.40
   2  13   3    1.30    3.00
   3  13   3    5.60    3.90
   3  13   3    6.10    3.90
   3  13   3    5.70    3.70
   3  13   3    6.90    3.80
  -4 -13  -3    0.50    2.90
   4  13   3   -1.70    3.00
   4  13   3   -1.10    3.00
   4  13   3   -0.50    3.70
  -5 -13  -3  125.39   11.10
   5  13   3  110.09   16.40
   5  13   3  129.09   10.90
  -6 -13  -3    2.00    3.60
   6  13   3   -0.20    3.50
   6  13   3   -1.50    3.30
   6  13   3   -4.40    4.70
   4  11  -4   17.70    5.50
  -4 -11   4   14.20    5.10
   3  11  -4   -1.10    3.20
   3  11  -4   -1.90    3.10
   3  11  -4    4.20    4.40
  -3 -11   4    1.70    3.10
   2  11  -4   14.00    5.10
   2  11  -4    4.90    4.40
   2  11  -4    6.50    4.50
  -2 -11   4    4.10    3.40
   6  10  -4   21.10    5.60
   6  10  -4   28.30    6.60
   6  10  -4   19.40    5.70
  -6 -10   4   33.10    7.30
   5  10  -4   16.40    5.50
  -5 -10   4   12.10    4.90
   4  10  -4   35.80    7.00
   4  10  -4   30.70    6.70
   3  10  -4   78.89    9.60
   3  10  -4   73.29   10.00
   2  10  -4   11.20    4.10
   2  10  -4   21.50    5.80
  -2 -10   4    9.40    4.10
   1  10  -4   73.99    9.80
   1  10  -4   81.59    9.30
   1  10  -4   71.99    9.40
  -1 -10   4   69.59    8.80
   0  10  -4   65.19    8.20
   0  10  -4   57.59    8.20
   0 -10   4   60.29    8.30
  -1  10  -4    5.00    3.60
  -1  10  -4    0.40    6.50
  -1  10  -4   -0.10    3.90
   1 -10   4    3.30    3.30
   7   9  -4    3.30    3.30
   7   9  -4    4.00    5.30
   7   9  -4   10.90    4.80
  -7  -9   4   -1.00    3.90
   6   9  -4   45.40    7.50
  -6  -9   4   37.80    7.70
  -6  -9   4   26.30    5.80
   5   9  -4    1.60    3.10
  -5  -9   4   -0.50    2.70
   4   9  -4    9.70    4.30
  -4  -9   4    5.40    3.90
   3   9  -4   23.50    5.70
   3   9  -4   21.80    5.30
  -3  -9   4   11.00    4.10
   2   9  -4   11.40    4.00
   2   9  -4   25.00    5.40
   2   9  -4   18.40    5.50
  -2  -9   4   20.50    5.20
   1   9  -4    9.20    3.80
   1   9  -4    5.90    3.60
   1   9  -4    7.00    4.10
  -1  -9   4    4.60    3.10
   0   9  -4   10.80    4.40
   0   9  -4    6.50    3.80
   0   9  -4   12.00    3.60
   0  -9   4   11.50    3.70
  -1   9  -4   28.90    5.90
  -1   9  -4   31.80    5.90
  -1   9  -4   40.20    7.80
   1  -9   4   31.10    5.80
  -2   9  -4    3.80    3.90
  -2   9  -4    2.90    3.00
   2  -9   4    1.80    2.90
   8   8  -4    5.60    3.80
   8   8  -4    3.90    4.00
  -8  -8   4    4.10    4.00
   7   8  -4    4.50    3.70
  -7  -8   4   17.10    5.80
  -7  -8   4   11.00    4.40
   6   8  -4    7.20    4.10
   6   8  -4    8.10    4.00
  -6  -8   4    1.60    2.80
  -6  -8   4    6.30    4.40
   5   8  -4   35.50    6.50
   5   8  -4   25.40    5.90
  -5  -8   4   31.40    6.60
  -5  -8   4   34.30    6.60
   4   8  -4  204.18   13.90
   4   8  -4  230.38   14.70
  -4  -8   4  193.38   14.00
  -4  -8   4  207.38   14.30
   3   8  -4   64.49    8.00
   3   8  -4  102.99   10.40
   3   8  -4   86.49    8.00
  -3  -8   4   64.89    8.60
   2   8  -4  112.99    9.60
   2   8  -4  117.99    9.60
   2   8  -4  120.99    9.90
  -2  -8   4  118.19   10.10
   1   8  -4   26.50    5.10
   1   8  -4   28.30    5.80
   1   8  -4   29.10    5.60
  -1  -8   4   25.30    5.60
   0   8  -4   19.60    5.30
   0   8  -4    7.00    3.70
   0   8  -4   15.20    4.10
   0  -8   4   14.50    4.30
  -1   8  -4   19.00    4.80
  -1   8  -4   22.20    5.50
  -1   8  -4   23.60    4.70
   1  -8   4   21.20    4.70
  -2   8  -4   13.10    5.00
  -2   8  -4   21.40    4.90
  -2   8  -4   19.20    4.30
   2  -8   4   13.50    3.90
  -3   8  -4    1.40    2.50
  -3   8  -4    2.20    3.80
   3  -8   4    0.90    2.50
   8   7  -4   11.40    4.50
   8   7  -4    8.60    4.00
  -8  -7   4    8.70    4.40
   7   7  -4  168.38   13.00
   7   7  -4  175.58   13.00
  -7  -7   4  205.58   13.90
  -7  -7   4  194.58   13.80
   6   7  -4   48.30    7.30
   6   7  -4   36.40    6.40
  -6  -7   4   55.19    8.00
  -6  -7   4   43.70    6.50
   5   7  -4   30.40    5.80
   5   7  -4   36.30    6.40
  -5  -7   4   34.20    6.20
  -5  -7   4   34.10    6.10
   4   7  -4   76.49    8.80
   4   7  -4   67.19    8.10
  -4  -7   4   68.89    8.70
  -4  -7   4   77.39    9.20
   3   7  -4   39.10    6.10
   3   7  -4   43.30    6.40
  -3  -7   4   28.60    5.40
  -3  -7   4   40.30    6.50
   2   7  -4   13.30    4.20
   2   7  -4   24.60    4.70
   2   7  -4    6.90    3.20
  -2  -7   4    3.00    2.70
   1   7  -4   25.00    5.00
   1   7  -4   33.20    5.90
  -1  -7   4   30.90    5.70
   0   7  -4   54.79    6.60
   0   7  -4   65.69    7.60
   0   7  -4   54.69    7.60
   0  -7   4   55.89    7.30
  -1   7  -4    0.70    2.80
  -1   7  -4    3.50    3.00
  -1   7  -4   -0.20    1.90
  -2   7  -4    2.90    2.20
  -2   7  -4    4.70    3.60
   2  -7   4    4.60    3.50
   2  -7   4    4.40    2.90
  -3   7  -4   -1.60    1.90
  -3   7  -4    0.20    3.00
   3  -7   4    1.30    3.30
   3  -7   4    1.00    2.40
  -4   7  -4    3.10    2.30
  -4   7  -4    5.40    3.70
   4  -7   4    5.30    2.70
   8   6  -4    5.40    3.50
   8   6  -4   16.10    4.70
   8   6  -4   16.60    4.80
  -8  -6   4   15.20    5.20
   7   6  -4   31.60    6.40
   7   6  -4   35.50    6.00
  -7  -6   4   17.50    4.90
  -7  -6   4   18.40    4.50
   6   6  -4   15.30    4.30
   6   6  -4    8.40    3.50
  -6  -6   4   10.60    3.70
  -6  -6   4    4.50    3.20
   5   6  -4  145.69   10.40
   5   6  -4  125.69   10.00
  -5  -6   4  137.39   10.40
  -5  -6   4  124.69   10.20
   4   6  -4    1.00    2.10
  -4  -6   4    6.40    3.30
   3   6  -4  144.59   10.20
   3   6  -4  146.89   10.20
  -3  -6   4  121.79   10.10
  -3  -6   4  152.48   10.40
   2   6  -4  250.97   14.70
   2   6  -4  259.47   14.90
  -2  -6   4  258.97   17.10
   1   6  -4   35.80    5.10
   1   6  -4   28.50    4.90
  -1  -6   4   35.50    5.80
   0   6  -4   26.30    4.70
   0   6  -4   19.30    4.50
   0   6  -4   18.80    4.20
   0  -6   4   18.30    4.10
  -1   6  -4    3.70    2.40
  -1   6  -4    5.40    3.10
   1  -6   4    0.70    2.10
  -2   6  -4   -0.40    1.70
  -2   6  -4    3.30    2.90
   2  -6   4   -0.70    1.90
   2  -6   4    4.90    3.40
  -3   6  -4    1.60    2.10
  -3   6  -4   -1.60    2.70
   3  -6   4   -2.20    2.40
   3  -6   4    0.50    2.30
  -4   6  -4    5.50    2.50
  -4   6  -4    1.90    3.20
   4  -6   4    3.70    2.50
   4  -6   4    0.30    2.90
  -5   6  -4   -0.80    3.10
  -5   6  -4    1.40    1.90
   5  -6   4    3.00    2.40
   9   5  -4   15.30    4.50
   9   5  -4   19.00    5.00
  -9  -5   4   19.80    6.10
   8   5  -4    1.60    2.90
   8   5  -4    2.20    3.00
   8   5  -4   -0.30    2.00
  -8  -5   4    3.20    3.50
   7   5  -4   65.59    8.30
   7   5  -4   67.69    7.80
  -7  -5   4   51.79    7.50
  -7  -5   4   47.90    6.40
   6   5  -4    7.60    3.20
  -6  -5   4    8.10    3.50
  -6  -5   4    5.00    3.10
   5   5  -4  256.07   15.20
   5   5  -4  255.97   15.10
  -5  -5   4  258.37   15.40
  -5  -5   4  268.87   17.30
   4   5  -4   95.69    7.70
   4   5  -4   92.09    7.70
  -4  -5   4   95.29    7.90
  -4  -5   4   85.19    7.90
   3   5  -4   13.60    3.40
   3   5  -4   10.10    3.10
  -3  -5   4   18.40    3.80
  -3  -5   4   15.60    3.90
   2   5  -4   19.60    3.80
   2   5  -4   19.00    3.90
   2   5  -4   22.10    4.00
  -2  -5   4   14.30    3.90
   1   5  -4    3.70    2.60
   1   5  -4    4.30    2.50
   1   5  -4    1.30    2.00
  -1  -5   4    3.50    2.50
   0   5  -4  127.89    9.50
   0   5  -4  143.89    9.30
   0   5  -4  149.88    9.70
   0  -5   4  141.89    9.70
  -1   5  -4    1.60    2.20
  -1   5  -4    4.50    2.70
   1  -5   4    2.70    2.40
   1  -5   4    2.80    2.60
  -2   5  -4   13.60    4.00
  -2   5  -4   14.40    2.90
   2  -5   4   10.90    3.70
   2  -5   4   16.10    3.50
  -3   5  -4    3.10    2.70
  -3   5  -4    2.50    2.00
   3  -5   4   -1.40    2.40
   3  -5   4    0.00    2.10
  -4   5  -4   47.80    5.20
  -4   5  -4   44.30    6.70
   4  -5   4   46.30    5.40
   4  -5   4   31.10    5.80
  -5   5  -4   67.09    8.50
  -5   5  -4   91.29    6.30
   5  -5   4   91.19    6.80
   5  -5   4   64.39    8.70
  -6   5  -4   12.70    2.60
  -6   5  -4   19.60    5.30
   6  -5   4   10.20    2.60
   9   4  -4    1.20    2.50
   9   4  -4    2.10    3.00
  -9  -4   4   -0.10    2.80
   8   4  -4    9.40    3.40
   8   4  -4    9.60    3.50
   8   4  -4   11.00    4.00
  -8  -4   4   16.80    5.30
   7   4  -4   65.69    8.10
   7   4  -4   77.19    7.20
  -7  -4   4   84.99    9.50
   6   4  -4    3.90    2.60
   6   4  -4    4.60    2.70
  -6  -4   4   -2.40    2.00
   5   4  -4    3.40    2.20
   5   4  -4    5.50    2.50
  -5  -4   4    1.20    2.20
  -5  -4   4    5.60    2.70
   4   4  -4  290.97   16.10
   4   4  -4  312.07   16.30
  -4  -4   4  282.97   16.30
  -4  -4   4  306.27   16.40
   3   4  -4  216.08   12.50
   3   4  -4  212.08   12.40
  -3  -4   4  219.88   12.90
  -3  -4   4  207.38   12.40
   2   4  -4   60.49    5.60
   2   4  -4   64.69    5.70
  -2  -4   4   64.29    5.80
  -2  -4   4   49.99    6.00
   1   4  -4   75.19    6.30
   1   4  -4   71.39    6.00
   1   4  -4   66.19    6.00
  -1  -4   4   77.49    6.60
   0   4  -4   42.00    5.30
   0   4  -4   52.09    5.70
   0   4  -4   42.60    5.70
   0  -4   4   36.40    5.40
  -1   4  -4  104.79    7.80
  -1   4  -4  100.19    7.20
   1  -4   4  112.29    8.10
   1  -4   4  104.19    7.70
  -2   4  -4   72.69    7.30
  -2   4  -4   51.39    5.00
   2  -4   4   50.89    6.40
   2  -4   4   63.89    5.60
  -3   4  -4  128.69    8.10
  -3   4  -4  124.29    9.30
   3  -4   4  131.09    8.60
   3  -4   4  126.39    9.60
  -4   4  -4   -0.10    2.70
  -4   4  -4   -0.60    1.60
   4  -4   4    3.20    2.90
   4  -4   4    1.30    2.00
  -5   4  -4    6.30    2.20
  -5   4  -4    6.60    3.70
   5  -4   4    1.60    3.20
   5  -4   4    6.00    2.50
  -6   4  -4    0.40    3.10
  -6   4  -4    1.40    1.40
   6  -4   4   -1.60    3.10
   6  -4   4   -0.30    1.70
   7  -4   4    2.00    3.80
   9   3  -4    3.30    3.10
   9   3  -4    8.50    3.30
   9   3  -4    1.40    2.60
  -9  -3   4    7.90    3.90
   8   3  -4   -2.10    2.50
   8   3  -4   -1.90    2.10
   8   3  -4    0.60    2.20
  -8  -3   4    1.00    2.70
   7   3  -4  162.38   11.40
   7   3  -4  182.18   11.00
  -7  -3   4  162.08   10.70
  -7  -3   4  177.88   12.00
   6   3  -4    3.20    2.20
  -6  -3   4    1.30    2.20
  -6  -3   4   -1.30    1.60
   5   3  -4    9.10    3.00
   5   3  -4   11.50    3.10
  -5  -3   4   10.10    3.10
  -5  -3   4   13.90    3.70
   4   3  -4    4.40    2.20
   4   3  -4    1.00    1.90
  -4  -3   4    5.00    2.40
  -4  -3   4    1.60    1.80
   3   3  -4    2.20    1.90
   3   3  -4   -0.30    1.70
  -3  -3   4   -1.50    1.50
  -3  -3   4   -0.50    1.70
   2   3  -4  112.99    7.80
   2   3  -4  122.69    8.10
  -2  -3   4  128.29    8.10
  -2  -3   4  117.59    8.20
   1   3  -4   33.60    4.50
   1   3  -4   43.50    5.20
   1   3  -4   37.00    4.60
  -1  -3   4   25.70    4.10
   0   3  -4    1.90    2.00
   0   3  -4   -0.20    1.80
   0  -3   4    1.60    1.90
  -1   3  -4    2.90    2.30
  -1   3  -4    0.90    1.80
   1  -3   4    3.60    2.00
   1  -3   4    5.30    2.40
  -2   3  -4    1.20    1.50
  -2   3  -4    5.90    2.60
   2  -3   4    4.20    2.60
   2  -3   4    2.60    1.90
  -3   3  -4   26.00    4.70
  -3   3  -4   35.50    4.20
   3  -3   4   36.60    4.50
   3  -3   4   25.50    4.50
  -4   3  -4   39.70    4.40
   4  -3   4   38.10    4.50
   4  -3   4   30.70    5.30
  -5   3  -4   15.20    2.80
  -5   3  -4   22.80    4.90
   5  -3   4   17.00    3.10
   5  -3   4   14.70    4.10
  -6   3  -4   23.70    3.20
  -6   3  -4    9.70    4.00
   6  -3   4   14.50    4.40
   6  -3   4   21.40    3.10
  -7   3  -4   20.90    2.30
  -7   3  -4   10.90    4.30
   7  -3   4   16.00    2.40
   9   2  -4    7.80    2.80
   9   2  -4    4.00    3.60
   9   2  -4    7.40    3.00
  -9  -2   4   12.40    4.40
   8   2  -4   26.40    4.90
   8   2  -4   40.10    5.10
   8   2  -4   28.30    4.10
  -8  -2   4   35.20    5.90
   7   2  -4    2.20    2.30
   7   2  -4   -1.90    2.10
  -7  -2   4    0.60    1.70
  -7  -2   4    1.20    2.70
   6   2  -4    2.40    2.20
   6   2  -4    8.50    2.90
  -6  -2   4    4.20    2.30
  -6  -2   4    6.60    2.60
   5   2  -4   69.09    6.10
   5   2  -4   78.09    6.10
  -5  -2   4   74.59    6.10
  -5  -2   4   69.79    6.20
   4   2  -4   -0.90    1.50
   4   2  -4   -1.00    1.60
  -4  -2   4    0.50    1.80
  -4  -2   4    0.00    1.70
   3   2  -4    4.80    2.00
   3   2  -4    2.20    1.80
  -3  -2   4    1.30    1.70
  -3  -2   4    2.90    2.10
   2   2  -4   69.79    5.70
   2   2  -4   76.49    5.70
  -2  -2   4   73.69    5.60
  -2  -2   4   83.09    6.20
   1   2  -4  123.29    7.90
   1   2  -4  116.59    7.50
   1   2  -4  124.79    7.70
  -1  -2   4  144.79    8.40
   0   2  -4  105.49    6.80
   0   2  -4   96.79    6.60
   0  -2   4   93.99    6.70
   0  -2   4   98.59    6.80
  -1   2  -4   82.09    6.10
  -1   2  -4   78.09    5.80
   1  -2   4   78.79    5.80
   1  -2   4   90.09    6.40
  -2   2  -4  132.89    8.10
  -2   2  -4  147.09    9.00
   2  -2   4  141.09    9.00
   2  -2   4  135.39    8.20
  -3   2  -4   96.39    6.50
  -3   2  -4   97.99    7.40
   3  -2   4   98.69    7.50
   3  -2   4  106.69    6.60
  -4   2  -4    1.00    2.50
  -4   2  -4    4.60    1.90
   4  -2   4    2.80    2.70
   4  -2   4    2.00    1.80
  -5   2  -4   59.69    4.70
  -5   2  -4   56.69    7.40
   5  -2   4   54.79    7.10
   5  -2   4   57.69    4.80
  -6   2  -4   -1.00    2.80
  -6   2  -4    2.00    1.50
   6  -2   4    1.20    1.60
   6  -2   4    0.40    2.80
  -7   2  -4    3.40    3.70
  -7   2  -4    4.60    1.70
   7  -2   4    5.30    3.70
   8  -2   4    9.80    4.70
   9   1  -4    0.30    3.00
   9   1  -4   -1.90    1.70
   9   1  -4    0.40    1.90
  -9  -1   4    2.00    3.20
   8   1  -4    2.00    1.80
   8   1  -4    0.00    2.80
   8   1  -4    4.20    2.40
  -8  -1   4    1.80    3.00
   7   1  -4    2.00    2.70
   7   1  -4   -0.30    1.70
  -7  -1   4    0.60    2.30
  -7  -1   4    1.40    1.80
   6   1  -4    0.50    1.70
   6   1  -4    0.50    2.00
  -6  -1   4    0.60    2.10
  -6  -1   4   -0.10    1.70
   5   1  -4   14.30    2.90
   5   1  -4   10.30    2.80
  -5  -1   4   15.10    3.10
  -5  -1   4   10.90    2.70
   4   1  -4   15.00    2.90
   4   1  -4   11.40    2.70
  -4  -1   4   20.20    3.50
  -4  -1   4   16.20    3.10
   3   1  -4    6.40    2.00
   3   1  -4   11.10    2.60
  -3  -1   4    7.00    2.20
  -3  -1   4    6.40    2.30
   2   1  -4   33.10    3.80
   2   1  -4   51.69    4.40
  -2  -1   4   44.30    3.90
  -2  -1   4   41.80    4.70
   1   1  -4   10.20    2.30
   1   1  -4   16.40    3.00
   1   1  -4   11.80    2.40
  -1  -1   4    9.20    2.50
   0   1  -4   94.89    6.10
   0   1  -4   84.89    5.80
   0  -1   4   84.89    5.90
   0  -1   4   90.99    6.20
  -1   1  -4   -2.70    1.40
  -1   1  -4    0.60    2.00
   1  -1   4    1.00    1.70
   1  -1   4   -0.70    1.90
  -2   1  -4    1.60    2.00
  -2   1  -4    0.90    1.50
   2  -1   4    1.30    1.90
   2  -1   4    3.40    1.80
  -3   1  -4   13.40    3.30
  -3   1  -4   11.40    2.60
   3  -1   4   11.70    3.20
   3  -1   4    9.60    2.20
  -4   1  -4  113.19    8.10
  -4   1  -4  106.29    6.60
   4  -1   4  106.59    6.60
   4  -1   4   91.99    7.70
  -5   1  -4   79.09    5.20
  -5   1  -4   66.89    7.60
   5  -1   4   57.49    7.10
   5  -1   4   69.99    5.10
  -6   1  -4   20.20    4.90
  -6   1  -4   28.20    3.40
   6  -1   4   20.00    4.50
   6  -1   4   24.60    3.30
  -7   1  -4   19.60    5.10
   7  -1   4   18.90    2.80
   7  -1   4   13.40    4.30
  -8   1  -4    5.40    3.90
   9   0  -4    1.40    1.60
   9   0  -4    4.70    3.60
  -9   0   4    5.70    3.60
   8   0  -4    1.30    2.90
   8   0  -4    1.40    1.70
   8   0  -4    0.70    1.70
  -8   0   4    0.40    2.60
   7   0  -4   47.40    4.30
   7   0  -4   35.20    5.60
  -7   0   4   35.70    5.50
   6   0  -4  126.79    8.70
   6   0  -4  116.89    7.40
  -6   0   4  128.29    7.70
  -6   0   4  130.09    8.80
   5   0  -4   14.40    3.10
   5   0  -4   13.00    2.60
  -5   0   4   17.90    2.90
  -5   0   4   14.80    3.20
   4   0  -4   14.60    2.70
   4   0  -4   10.70    2.40
  -4   0   4   19.00    3.00
  -4   0   4   13.00    2.60
   3   0  -4   26.90    3.40
   3   0  -4   31.40    3.50
  -3   0   4   29.80    3.60
  -3   0   4   32.90    3.80
   2   0  -4   27.70    3.60
   2   0  -4   20.70    2.70
  -2   0   4   31.40    3.80
  -2   0   4   20.60    2.70
   1   0  -4   56.39    4.00
   1   0  -4   44.10    3.60
   1   0  -4   49.50    4.20
  -1   0   4   58.59    4.50
   0   0  -4   56.69    4.10
   0   0  -4   52.29    4.40
   0   0   4   51.59    4.50
   0   0   4   52.29    4.10
  -1   0  -4  143.19    8.10
  -1   0  -4  146.19    8.20
   1   0   4  154.58    8.30
   1   0   4  145.49    8.20
  -2   0  -4    1.20    1.90
  -2   0  -4    1.70    1.70
   2   0   4   -1.70    1.70
   2   0   4    1.70    1.70
  -3   0  -4  285.57   14.50
  -3   0  -4  297.27   15.40
   3   0   4  305.77   14.60
   3   0   4  321.17   15.60
  -4   0  -4  170.78   10.80
  -4   0  -4  174.08    9.70
   4   0   4  185.48   11.00
   4   0   4  190.88    9.70
  -5   0  -4   35.30    4.00
  -5   0  -4   30.80    5.00
   5   0   4   23.50    4.40
   5   0   4   28.40    3.50
  -6   0  -4    0.20    2.50
  -6   0  -4    1.10    1.40
   6   0   4    0.50    1.50
   6   0   4    0.10    2.60
  -7   0  -4    2.20    1.60
  -7   0  -4    0.20    2.90
   7   0   4   -0.10    1.40
   7   0   4   -0.20    2.40
  -8   0  -4    0.30    2.50
  -8   0  -4   -2.10    2.70
   8   0   4    0.40    1.60
   8  -1  -4    1.20    2.90
  -8   1   4    4.20    3.30
   7  -1  -4    1.60    1.80
  -7   1   4    1.80    2.40
   6  -1  -4    2.80    1.50
   6  -1  -4    1.90    2.20
  -6   1   4    2.40    2.20
  -6   1   4    1.10    1.40
   5  -1  -4   35.20    3.50
   5  -1  -4   29.90    4.00
  -5   1   4   24.00    3.30
  -5   1   4   30.10    4.10
   4  -1  -4    7.30    2.00
   4  -1  -4    6.10    2.00
  -4   1   4    6.80    1.90
  -4   1   4    4.40    2.00
   3  -1  -4   26.90    3.10
   3  -1  -4   35.50    3.70
  -3   1   4   36.50    3.90
  -3   1   4   31.90    3.60
   2  -1  -4   14.20    2.00
   2  -1  -4   18.20    2.90
  -2   1   4   12.10    1.90
  -2   1   4   18.50    2.70
   1  -1  -4  123.49    6.00
   1  -1  -4  115.29    6.90
  -1   1   4  118.09    7.00
   0  -1  -4   21.40    3.00
   0  -1  -4   28.50    2.70
   0   1   4   22.90    3.40
   0   1   4   24.70    2.50
  -1  -1  -4  133.29    7.30
  -1  -1  -4  137.59    7.80
   1   1   4  137.39    7.80
   1   1   4  139.89    7.40
  -2  -1  -4   61.29    4.80
  -2  -1  -4   67.09    5.00
   2   1   4   63.79    4.90
   2   1   4   66.29    4.90
  -3  -1  -4  340.87   16.70
  -3  -1  -4  354.36   17.20
   3   1   4  350.06   16.60
   3   1   4  350.86   17.00
  -4  -1  -4   32.90    4.70
  -4  -1  -4   37.40    4.20
   4   1   4   30.90    3.70
   4   1   4   31.10    4.50
  -5  -1  -4   81.09    7.00
  -5  -1  -4   83.79    5.80
   5   1   4   80.89    5.60
   5   1   4   81.99    6.90
  -6  -1  -4   76.39    5.60
  -6  -1  -4   89.89    7.70
   6   1   4   68.09    5.30
   6   1   4   82.59    7.20
  -7  -1  -4   23.70    3.30
  -7  -1  -4   15.80    4.50
   7   1   4   22.60    4.90
   7   1   4   22.10    3.10
  -8  -1  -4   18.70    5.40
  -8  -1  -4   26.30    3.30
   8   1   4   27.60    3.50
   8   1   4   18.80    4.60
  -9  -1  -4   -2.50    3.10
   9   1   4    1.10    1.90
   9   1   4    0.10    1.60
   9   1   4    3.20    4.00
   8  -2  -4   29.60    5.40
  -8   2   4   41.30    6.40
   7  -2  -4   46.90    7.40
  -7   2   4   73.39    6.70
   6  -2  -4    6.50    2.70
   6  -2  -4    9.80    1.90
  -6   2   4    5.30    1.50
  -6   2   4    6.60    2.60
   5  -2  -4   31.30    3.90
   5  -2  -4   31.30    3.30
  -5   2   4   22.50    2.80
  -5   2   4   25.20    3.70
   4  -2  -4   37.90    3.30
   4  -2  -4   38.60    4.00
  -4   2   4   34.40    3.20
  -4   2   4   34.40    4.00
   3  -2  -4    0.30    1.30
   3  -2  -4    2.50    1.50
  -3   2   4    0.50    1.20
  -3   2   4    1.50    1.50
   2  -2  -4   26.90    3.70
   2  -2  -4   23.90    2.30
  -2   2   4   28.80    3.30
  -2   2   4   26.10    2.30
   1  -2  -4   32.20    1.90
   1  -2  -4   41.20    6.80
  -1   2   4   41.60    4.20
   0  -2  -4    7.70    2.10
   0  -2  -4    8.60    1.40
   0   2   4    8.70    1.40
   0   2   4    7.80    2.20
  -1  -2  -4   24.00    2.70
  -1  -2  -4   18.40    2.90
   1   2   4   23.60    2.60
   1   2   4   24.70    3.40
  -2  -2  -4   -1.30    1.40
  -2  -2  -4    1.80    1.70
   2   2   4   -0.70    1.40
   2   2   4    0.30    1.70
  -3  -2  -4  102.69    7.00
  -3  -2  -4  120.79    7.40
   3   2   4  117.19    7.00
   3   2   4  111.59    7.10
  -4  -2  -4  447.36   20.90
  -4  -2  -4  433.66   20.20
   4   2   4  420.46   20.00
   4   2   4  400.06   20.50
  -5  -2  -4   48.00    6.10
  -5  -2  -4   53.09    4.70
   5   2   4   58.79    6.60
   5   2   4   52.29    4.60
  -6  -2  -4   37.00    6.30
  -6  -2  -4   40.20    4.50
   6   2   4   34.50    5.40
   6   2   4   37.60    4.60
  -7  -2  -4   13.40    2.70
  -7  -2  -4   20.20    5.20
   7   2   4    9.20    2.60
   7   2   4    5.20    2.80
  -8  -2  -4    3.60    3.30
  -8  -2  -4   -1.40    1.50
   8   2   4   -2.10    2.60
   8   2   4    0.30    1.50
  -9  -2  -4    2.10    3.00
   9   2   4    0.50    1.80
   9   2   4    1.20    3.30
   9   2   4   -2.30    1.50
   8  -3  -4    0.30    3.20
  -8   3   4    5.90    3.70
   7  -3  -4   13.70    3.80
  -7   3   4    8.70    3.30
   6  -3  -4   23.30    4.10
  -6   3   4   50.69    6.00
   5  -3  -4   27.40    2.40
   5  -3  -4   14.50    3.00
  -5   3   4   19.00    2.30
  -5   3   4   23.20    3.80
   4  -3  -4  340.47   15.80
  -4   3   4  350.86   16.60
   3  -3  -4  175.68    8.50
   3  -3  -4  150.58    8.50
  -3   3   4  172.08    8.70
  -3   3   4  170.18    8.50
   2  -3  -4    0.50    1.50
   2  -3  -4    1.20    1.00
  -2   3   4    1.30    1.50
  -2   3   4    1.90    1.00
   1  -3  -4   27.70    3.50
  -1   3   4   29.50    3.50
   0  -3  -4    1.10    1.50
   0  -3  -4    1.00    0.60
   0   3   4    0.20    1.60
  -1  -3  -4   13.00    1.90
  -1  -3  -4   13.40    2.60
   1   3   4   16.60    2.10
   1   3   4    9.70    2.20
  -2  -3  -4   63.59    5.00
   2   3   4   58.59    4.80
   2   3   4   59.49    4.40
  -3  -3  -4  484.15   23.00
  -3  -3  -4  499.25   22.90
   3   3   4  502.45   22.80
   3   3   4  491.15   23.00
  -4  -3  -4   42.90    5.10
  -4  -3  -4   49.70    5.60
   4   3   4   52.79    5.60
   4   3   4   47.80    4.50
  -5  -3  -4   70.99    6.30
  -5  -3  -4   75.09    5.80
   5   3   4   65.99    6.10
   5   3   4   69.39    5.60
  -6  -3  -4   41.20    4.90
  -6  -3  -4   45.40    6.30
   6   3   4   51.59    6.20
   6   3   4   50.09    4.70
  -7  -3  -4   50.39    7.10
  -7  -3  -4   43.00    5.10
   7   3   4   50.79    7.10
   7   3   4   46.60    5.50
  -8  -3  -4   32.90    6.30
  -8  -3  -4   40.70    4.90
   8   3   4   46.40    5.50
  -9  -3  -4    7.50    4.30
   9   3   4   10.70    3.00
   9   3   4    8.20    2.70
  -8   4   4   12.40    4.30
   7  -4  -4   -0.90    2.40
  -6   4   4   29.20    4.70
   5  -4  -4   -0.40    1.70
   5  -4  -4    1.90    1.00
  -5   4   4   -2.30    1.40
  -5   4   4    0.00    0.90
   4  -4  -4  295.07   13.80
  -4   4   4  299.57   14.70
   3  -4  -4    0.80    1.30
   3  -4  -4   -0.10    1.50
  -3   4   4    2.60    1.40
   2  -4  -4    4.00    1.40
   2  -4  -4    2.70    1.50
  -2   4   4    4.20    1.60
  -2   4   4    3.90    1.30
   1  -4  -4   34.50    4.00
  -1   4   4   28.60    2.00
  -1   4   4   39.90    4.20
  -1   4   4   33.60    2.20
   0  -4  -4   -0.50    1.40
   0   4   4    2.80    1.70
   0   4   4    3.40    0.90
  -1  -4  -4  148.49    7.50
  -1  -4  -4  143.49    8.70
   1   4   4  146.79    8.70
   1   4   4  161.28    7.50
  -2  -4  -4   78.49    6.00
   2   4   4   75.69    6.00
   2   4   4   89.09    5.30
  -3  -4  -4  799.42   36.70
  -3  -4  -4  813.92   36.10
   3   4   4  843.72   36.80
   3   4   4  814.22   36.00
  -4  -4  -4   66.39    5.70
  -4  -4  -4   69.09    5.70
   4   4   4   65.39    5.60
   4   4   4   71.49    5.80
  -5  -4  -4    2.30    1.90
  -5  -4  -4    8.10    3.00
   5   4   4    6.90    2.70
   5   4   4    6.60    2.60
  -6  -4  -4    3.00    1.90
  -6  -4  -4   10.20    3.60
   6   4   4    7.50    2.60
   6   4   4    2.80    2.70
  -7  -4  -4    4.70    3.10
  -7  -4  -4    1.80    2.10
   7   4   4    6.70    2.50
   7   4   4    9.80    3.20
  -8  -4  -4   -0.30    2.00
  -8  -4  -4   -0.90    2.70
   8   4   4    1.90    2.70
   8   4   4    4.20    2.20
  -9  -4  -4   11.60    4.60
   9   4   4   13.00    3.60
   9   4   4    6.50    2.80
   7  -5  -4    0.70    3.10
  -7   5   4   -0.60    2.60
   6  -5  -4   30.70    4.80
  -6   5   4   44.90    5.80
   5  -5  -4    1.40    2.20
  -5   5   4    6.00    2.40
   4  -5  -4    3.90    1.40
   4  -5  -4    4.10    2.10
  -4   5   4    7.70    2.40
   3  -5  -4  991.60   40.40
   3  -5  -4  860.31   40.80
  -3   5   4  922.41   40.10
  -3   5   4  940.01   40.20
   2  -5  -4  200.48   10.50
  -2   5   4  191.18    9.60
  -2   5   4  207.18   10.40
   1  -5  -4    7.10    2.00
  -1   5   4   12.10    1.80
  -1   5   4   11.10    2.40
  -1   5   4    9.90    1.70
   0  -5  -4    0.00    1.60
   0   5   4    2.40    1.10
   0   5   4    2.70    1.80
  -1  -5  -4    2.60    2.00
  -1  -5  -4    2.80    1.40
   1   5   4    1.90    1.20
   1   5   4    3.30    2.10
  -2  -5  -4    2.10    1.60
  -2  -5  -4   -0.50    1.70
   2   5   4    1.30    1.80
   2   5   4    2.10    1.60
  -3  -5  -4  210.48   11.40
  -3  -5  -4  210.18   12.00
   3   5   4  222.28   11.50
   3   5   4  206.48   11.90
  -4  -5  -4    1.40    1.90
  -4  -5  -4   -0.40    1.50
   4   5   4    0.10    1.70
   4   5   4    1.90    1.90
  -5  -5  -4  111.89    8.20
  -5  -5  -4  112.69    8.10
   5   5   4  113.09    8.10
   5   5   4  121.39    8.30
  -6  -5  -4    1.30    2.20
  -6  -5  -4    2.40    2.20
   6   5   4    4.80    2.30
   6   5   4    0.90    2.20
  -7  -5  -4    2.00    2.70
  -7  -5  -4    3.40    2.30
   7   5   4   -0.10    1.90
   7   5   4    6.80    3.00
  -8  -5  -4  222.08   15.10
  -8  -5  -4  247.58   14.00
   8   5   4  238.98   13.80
   8   5   4  222.88   15.40
  -9  -5  -4   41.10    7.60
   9   5   4   55.99    6.90
   9   5   4   37.80    5.40
   7  -6  -4    7.50    3.60
  -7   6   4   14.70    4.10
   6  -6  -4    4.20    3.50
  -6   6   4    5.90    2.90
   5  -6  -4   25.50    4.40
  -5   6   4   21.90    2.20
  -5   6   4   20.20    3.80
   4  -6  -4   -1.10    2.00
  -4   6   4    1.70    1.80
  -4   6   4   -1.40    1.10
   3  -6  -4    5.40    2.10
   3  -6  -4   -0.30    1.40
  -3   6   4    5.60    1.90
  -3   6   4    2.30    1.40
   2  -6  -4   81.89    5.40
   2  -6  -4   92.99    6.10
  -2   6   4   76.39    5.10
  -2   6   4   79.49    5.60
   1  -6  -4   -1.50    1.30
  -1   6   4   -0.80    1.20
  -1   6   4    1.70    1.40
  -1   6   4    0.70    1.30
   0  -6  -4    3.30    1.90
   0   6   4    2.30    1.50
   0   6   4    5.70    2.10
   0   6   4    2.40    1.50
  -1  -6  -4   95.39    7.20
   1   6   4   99.79    5.90
   1   6   4  101.69    7.20
  -2  -6  -4    1.50    1.90
  -2  -6  -4    0.30    1.50
   2   6   4   -0.50    1.40
   2   6   4    0.40    1.80
  -3  -6  -4  341.57   17.80
  -3  -6  -4  343.97   16.90
   3   6   4  334.87   16.80
   3   6   4  351.36   17.90
  -4  -6  -4    1.20    1.90
  -4  -6  -4    1.70    1.90
   4   6   4    0.70    1.70
   4   6   4    3.50    2.20
  -5  -6  -4   62.99    5.90
  -5  -6  -4   42.80    5.70
   5   6   4   63.99    7.00
   5   6   4   46.80    5.90
  -6  -6  -4    7.10    2.80
  -6  -6  -4    7.10    3.20
   6   6   4    5.00    2.70
   6   6   4    6.30    2.70
  -7  -6  -4    5.70    3.20
  -7  -6  -4    5.10    2.90
   7   6   4    1.20    2.30
   7   6   4    1.10    2.60
  -8  -6  -4   51.49    7.90
   8   6   4   49.60    6.70
   8   6   4   52.19    7.40
  -9  -6  -4   12.40    4.70
   9   6   4   12.10    3.60
   9   6   4    3.20    2.70
   6  -7  -4   -0.20    3.00
   5  -7  -4    1.50    2.90
  -5   7   4    1.10    1.20
  -5   7   4    3.70    2.50
  -5   7   4    1.00    1.20
   4  -7  -4    2.30    2.50
  -4   7   4    4.30    1.60
  -4   7   4    2.70    1.70
  -4   7   4    2.60    2.20
   3  -7  -4   53.79    5.10
  -3   7   4   61.19    4.70
  -3   7   4   60.69    4.90
   2  -7  -4    3.10    1.90
  -2   7   4    1.00    1.50
  -2   7   4    3.40    1.80
   1  -7  -4   18.40    3.50
  -1   7   4   14.10    3.00
  -1   7   4   18.70    2.80
  -1   7   4   17.90    2.90
   0  -7  -4   11.50    2.80
   0   7   4   13.60    2.60
   0   7   4   11.40    2.90
   0   7   4   14.40    2.50
  -1  -7  -4   17.50    3.80
  -1  -7  -4   17.30    3.00
   1   7   4   17.90    3.70
   1   7   4   16.20    2.70
  -2  -7  -4   68.89    6.20
  -2  -7  -4   64.99    5.20
   2   7   4   67.19    5.10
   2   7   4   71.39    6.40
  -3  -7  -4    6.10    2.50
  -3  -7  -4    4.60    2.30
   3   7   4    1.80    2.10
   3   7   4    7.40    2.50
  -4  -7  -4   75.69    7.00
  -4  -7  -4   83.29    6.60
   4   7   4   78.99    6.50
   4   7   4   78.39    7.10
  -5  -7  -4   -1.40    1.90
  -5  -7  -4    4.30    2.40
   5   7   4    1.00    2.10
   5   7   4   -1.10    1.60
  -6  -7  -4   16.00    4.00
   6   7   4   12.60    4.00
   6   7   4   18.90    4.80
  -7  -7  -4   88.49    8.30
  -7  -7  -4  110.89   14.60
   7   7   4   82.49    7.80
   7   7   4   88.69    8.20
  -8  -7  -4   -1.40    2.40
   8   7   4   -1.00    2.00
   8   7   4   -0.30    2.00
   8   7   4   -1.00    2.60
  -9  -7  -4    5.90    4.10
   9   7   4    0.70    2.60
   9   7   4    5.10    3.30
  -5   8   4   26.30    4.50
  -5   8   4   25.50    3.00
   4  -8  -4  184.68   11.50
  -4   8   4  205.78   11.30
  -4   8   4  176.38   10.00
  -4   8   4  195.28   10.50
   3  -8  -4   -0.70    2.40
  -3   8   4    4.90    1.90
  -3   8   4    2.50    2.10
  -3   8   4    2.50    1.90
  -2   8   4    3.20    1.90
  -2   8   4    2.60    2.10
  -2   8   4    1.70    1.70
   1  -8  -4   -0.40    1.70
  -1   8   4    1.80    1.70
  -1   8   4    3.10    1.80
  -1   8   4    1.20    1.50
   0  -8  -4    1.20    1.90
   0   8   4    0.00    1.80
   0   8   4   -1.20    1.40
   0   8   4    0.70    1.40
  -1  -8  -4  161.08    9.50
  -1  -8  -4  167.18   10.80
   1   8   4  160.38    9.20
   1   8   4  162.38   10.60
  -2  -8  -4   52.09    5.10
  -2  -8  -4   80.39    8.30
   2   8   4   68.49    7.70
   2   8   4   65.69    5.30
  -3  -8  -4   -1.20    1.60
  -3  -8  -4   -0.10    1.70
   3   8   4   -0.70    1.80
   3   8   4    1.60    1.80
  -4  -8  -4   70.09    7.50
  -4  -8  -4   62.69    7.60
   4   8   4   56.39    9.00
   4   8   4   76.09    7.90
  -5  -8  -4    3.20    2.60
  -5  -8  -4    4.70    2.50
   5   8   4    2.50    2.20
   5   8   4   11.10    3.60
  -6  -8  -4   33.60    5.90
  -6  -8  -4   35.40    5.90
   6   8   4   24.60    5.00
   6   8   4   24.00    4.70
  -7  -8  -4   33.30    6.00
   7   8   4   33.90    6.40
   7   8   4   33.60    6.00
  -8  -8  -4  111.59   10.40
   8   8   4  115.19    9.90
   8   8   4  116.99   10.10
   8   8   4  122.79    9.90
  -9  -8  -4   15.80    5.40
   9   8   4   29.80    6.00
   9   8   4   32.90    6.00
   9   8   4   30.20    7.90
   5  -9  -4    0.80    2.90
  -5   9   4    3.10    2.80
  -5   9   4    0.60    1.40
  -5   9   4    2.30    2.40
   4  -9  -4    0.60    2.80
  -4   9   4    0.30    1.90
  -4   9   4    3.80    2.70
  -4   9   4   -0.20    1.60
  -3   9   4    0.50    1.90
  -3   9   4    1.10    2.50
  -3   9   4    0.50    1.60
  -3   9   4    1.50    2.20
  -2   9   4   12.90    3.40
  -2   9   4    5.50    2.40
  -2   9   4    7.00    2.60
  -2   9   4    9.50    2.80
  -1   9   4   19.10    3.70
  -1   9   4   33.30    4.30
  -1   9   4   37.00    4.80
  -1   9   4   30.40    4.80
   0  -9  -4   27.70    4.80
   0   9   4   28.40    4.80
   0   9   4   34.50    4.70
   0   9   4   39.80    4.80
  -1  -9  -4  240.38   14.70
   1   9   4  254.87   14.90
   1   9   4  251.27   13.40
   1   9   4  252.57   13.50
  -2  -9  -4   52.89    7.00
  -2  -9  -4   50.59    6.10
   2   9   4   45.80    5.50
   2   9   4   48.70   10.80
  -3  -9  -4   11.00    3.70
  -3  -9  -4   10.60    3.20
   3   9   4    9.50    3.00
   3   9   4    7.80    3.20
  -4  -9  -4   35.00    5.50
  -4  -9  -4   33.20    5.70
   4   9   4   35.40    5.50
   4   9   4   30.40    5.50
  -5  -9  -4    6.40    3.30
  -5  -9  -4    5.10    3.00
   5   9   4    8.10    3.20
   5   9   4   11.00    3.90
  -6  -9  -4   12.80    4.30
   6   9   4   15.40    4.30
   6   9   4   16.70    4.60
   6   9   4    8.40    3.60
  -7  -9  -4    1.40    2.90
   7   9   4    0.40    2.50
   7   9   4   -0.50    2.20
   7   9   4   -1.40    2.20
  -8  -9  -4    3.90    3.40
   8   9   4   -1.00    2.80
   8   9   4   -1.80    2.30
   8   9   4   -1.00    2.40
  -9  -9  -4   81.89   13.70
   9   9   4   75.59    9.90
   9   9   4   93.39   11.00
   9   9   4   83.19    9.90
  -4  10   4    0.00    1.70
  -4  10   4    0.90    2.50
  -4  10   4   -0.10    2.10
  -3  10   4   11.10    3.20
  -3  10   4    6.20    2.80
  -3  10   4   15.60    3.60
  -3  10   4    9.20    3.60
  -2  10   4   13.70    3.40
  -2  10   4   13.20    3.60
  -2  10   4   19.60    4.10
  -2  10   4    8.90    3.10
  -1  10   4    9.30    3.20
  -1  10   4    7.80    3.00
  -1  10   4    9.40    3.10
  -1  10   4   11.20    3.30
   0  10   4   93.19   10.40
   0  10   4   75.19    6.50
   0  10   4   76.89    7.10
   0  10   4   87.49    6.90
   1  10   4    0.20    2.10
   1  10   4    3.20    2.10
   1  10   4    1.20    2.20
  -2 -10  -4   -0.60    1.90
   2  10   4    0.50    2.00
   2  10   4    4.40    2.60
   2  10   4    0.60    2.10
  -3 -10  -4   -1.00    1.90
   3  10   4    0.50    2.30
   3  10   4    1.40    1.90
   3  10   4    0.70    2.50
  -4 -10  -4   13.40    4.10
   4  10   4   21.80    5.40
   4  10   4   21.50    5.30
   4  10   4    7.70    3.50
  -5 -10  -4   23.10    5.30
   5  10   4   18.40    4.90
   5  10   4   27.20    5.50
   5  10   4   20.70    4.90
  -6 -10  -4  202.58   13.70
   6  10   4  196.08   13.40
   6  10   4  225.08   14.60
   6  10   4  190.78   14.10
  -7 -10  -4   14.40    4.80
   7  10   4   18.40    4.90
   7  10   4   27.50    5.70
   7  10   4   22.30    5.50
  -8 -10  -4   -0.20    3.00
   8  10   4   -0.70    3.00
   8  10   4   -2.20    2.60
   8  10   4   -2.20    2.50
  -3  11   4   -2.30    2.20
  -3  11   4    3.00    3.00
  -3  11   4   -1.60    1.80
  -3  11   4    1.70    2.80
  -2  11   4    0.00    2.30
  -2  11   4    0.70    2.50
  -2  11   4    1.20    2.70
  -2  11   4    0.80    2.20
  -1  11   4    0.90    2.50
  -1  11   4   -0.70    1.90
  -1  11   4    0.20    2.20
  -1  11   4    4.30    3.00
   0  11   4   44.60    6.30
   0  11   4   56.59    7.20
   0  11   4   54.39    7.40
   0  11   4   45.70    6.20
   1  11   4   23.50    4.60
   1  11   4   19.70    4.70
   1  11   4   19.60    4.80
   1  11   4   25.00    4.90
   2  11   4    2.60    2.50
   2  11   4    0.90    2.50
   2  11   4   -1.40    2.00
  -3 -11  -4  101.29   10.10
   3  11   4  103.29   11.30
   3  11   4   76.89    7.40
   3  11   4  104.99   11.40
  -4 -11  -4   70.39    8.50
   4  11   4   56.39    8.60
   4  11   4   74.59    9.70
   4  11   4   95.79   10.10
  -5 -11  -4   74.09    9.00
   5  11   4   62.49    8.20
   5  11   4   46.40    7.60
  -6 -11  -4   71.09    9.60
   6  11   4   49.70    8.10
   6  11   4   59.39    8.60
   6  11   4   55.49    8.30
  -7 -11  -4   16.80    4.90
   7  11   4   13.00    4.70
   7  11   4   16.20    5.20
  -8 -11  -4    4.30    4.60
   8  11   4    9.80    4.60
   8  11   4    3.10    3.60
  -1  12   4    0.40    2.30
  -1  12   4    0.70    2.70
  -1  12   4    1.30    2.80
  -1  12   4   -3.30    2.50
   0  12   4    2.00    2.40
   0  12   4    0.90    3.00
   0  12   4   -0.80    2.40
   0  12   4    2.60    2.80
   1  12   4    6.30    3.30
   1  12   4    2.90    2.40
   1  12   4    8.60    3.70
   1  12   4    2.80    2.90
   2  12   4   14.90    4.30
   2  12   4   11.50    3.90
   2  12   4   16.10    4.90
   2  12   4   17.00    4.90
  -3 -12  -4    6.10    3.40
   3  12   4    4.50    3.00
   3  12   4    5.20    3.40
   3  12   4   10.20    4.10
  -4 -12  -4   16.50    4.60
   4  12   4    9.40    3.90
   4  12   4   12.10    4.40
   4  12   4    7.30    4.10
  -5 -12  -4   20.30    5.40
   5  12   4    9.30    3.90
   5  12   4    6.70    3.90
  -6 -12  -4   16.00    5.30
   6  12   4   18.80    5.70
   6  12   4    4.70    4.10
  -7 -12  -4    2.00    3.50
   7  12   4    1.40    3.50
   7  12   4    2.10    3.50
   0  13   4   21.60    4.90
   0  13   4   32.70    6.40
   0  13   4   17.00    4.90
   0  13   4   23.00    5.30
   1  13   4   31.90    5.90
   1  13   4   39.40    6.30
   1  13   4   33.50    6.70
   1  13   4   35.20    6.60
   2  13   4   23.00    6.00
   2  13   4   39.20    6.50
   2  13   4   38.70    6.50
   2  13   4   33.70    6.80
   3  13   4    7.50    4.30
   3  13   4    4.40    4.00
   3  13   4    9.70    4.00
  -4 -13  -4   64.09    8.70
   4  13   4   63.19    9.70
   4  13   4   57.89    8.60
  -5 -13  -4   -0.50    3.00
   5  13   4    1.40    2.90
  -6 -13  -4    3.50    3.90
   6  13   4    5.20    4.30
   6  13   4    4.40    3.70
   5  10  -5   11.90    4.90
   5  10  -5   12.90    5.10
  -5 -10   5   12.50    5.20
   4  10  -5   17.60    6.10
   4  10  -5   13.40    5.80
  -4 -10   5   13.90    4.70
   3  10  -5    8.40    4.30
  -3 -10   5    6.00    4.00
   2  10  -5    5.10    3.50
   1  10  -5   48.90    9.10
   1  10  -5  100.59   13.80
   1  10  -5   78.69    9.30
   0  10  -5   -0.50    3.00
   0  10  -5    4.80    4.00
   6   9  -5   -1.20    3.40
   6   9  -5    2.30    3.20
  -6  -9   5    3.70    4.00
   5   9  -5   63.59    8.70
  -5  -9   5   97.19   11.40
   4   9  -5   38.60    6.90
   4   9  -5   37.10    6.80
   3   9  -5   26.90    5.50
   3   9  -5   58.69    8.20
  -3  -9   5   31.10    6.50
   2   9  -5    2.20    3.10
   2   9  -5    2.90    3.70
  -2  -9   5    2.10    3.40
   1   9  -5  136.09   11.10
   1   9  -5  138.19   11.50
  -1  -9   5  137.59   11.80
   0   9  -5    9.10    3.70
   0   9  -5    2.00    3.80
   0  -9   5   11.30    4.50
  -1   9  -5   75.99    8.60
  -1   9  -5   67.19   10.00
  -1   9  -5   57.39    8.30
  -2   9  -5   10.90    3.70
  -2   9  -5   13.70    5.00
   2  -9   5   16.40    4.70
   7   8  -5    2.40    3.60
   7   8  -5    0.50    3.40
  -7  -8   5    2.50    3.70
  -7  -8   5   -2.10    2.90
   6   8  -5   19.90    5.50
  -6  -8   5   23.00    5.70
  -6  -8   5   11.10    4.50
   5   8  -5    0.60    2.70
   5   8  -5   -2.30    2.40
  -5  -8   5   -3.00    2.50
  -5  -8   5   -5.00    2.30
   4   8  -5   77.59    9.90
   4   8  -5   85.19    9.60
  -4  -8   5  107.99   11.90
   3   8  -5    3.70    3.00
   3   8  -5   -1.20    2.60
   3   8  -5    1.90    2.80
  -3  -8   5    0.00    2.50
   2   8  -5    1.30    2.60
   2   8  -5    1.30    2.70
   2   8  -5    4.40    3.30
  -2  -8   5    2.40    2.80
   1   8  -5   32.80    6.30
   1   8  -5   49.30    6.90
   1   8  -5   49.90    7.00
  -1  -8   5   59.29    8.00
   0   8  -5   23.90    5.10
   0   8  -5   30.90    5.70
   0  -8   5   26.40    5.60
  -1   8  -5   12.50    5.30
  -1   8  -5   15.50    4.70
  -1   8  -5   18.70    4.50
   1  -8   5   13.90    4.40
  -2   8  -5    2.90    3.70
  -2   8  -5    4.90    4.00
  -2   8  -5    2.60    2.60
   2  -8   5    1.70    2.50
  -3   8  -5    6.00    3.30
   3  -8   5    8.40    4.90
   3  -8   5   10.10    3.90
   8   7  -5   42.90    7.50
   8   7  -5   30.30    7.10
  -8  -7   5   32.80    6.40
  -8  -7   5   43.60   12.50
   7   7  -5    2.50    4.10
   7   7  -5   19.50    5.10
  -7  -7   5    8.10    3.90
  -7  -7   5   27.60    6.40
   6   7  -5  311.77   18.40
   6   7  -5  286.47   18.00
  -6  -7   5  303.97   18.70
  -6  -7   5  285.57   18.50
   5   7  -5  113.79    9.90
   5   7  -5  120.89    9.90
  -5  -7   5  108.09    9.90
  -5  -7   5  115.89   10.40
   4   7  -5   -1.30    2.00
   4   7  -5    3.00    2.80
  -4  -7   5    1.80    3.10
  -4  -7   5    6.80    3.70
   3   7  -5  125.19    9.70
   3   7  -5  111.19    9.40
   3   7  -5  112.89    9.20
  -3  -7   5   93.79    9.30
   2   7  -5  302.07   17.20
   2   7  -5  279.27   17.00
   2   7  -5  296.17   17.30
  -2  -7   5  295.87   18.00
   1   7  -5    1.50    2.60
   1   7  -5    0.60    2.60
   1   7  -5    0.70    2.10
  -1  -7   5    2.00    2.60
   0   7  -5   65.49    8.00
   0   7  -5   65.19    7.90
   0   7  -5   90.19    9.90
   0  -7   5   61.99    7.80
  -1   7  -5   28.10    5.80
  -1   7  -5   24.60    5.00
  -1   7  -5   12.70    4.10
   1  -7   5   22.30    5.00
  -2   7  -5   89.19    9.60
  -2   7  -5   63.59    7.20
   2  -7   5   80.39    9.80
   2  -7   5   66.89    8.20
  -3   7  -5    2.00    2.50
  -3   7  -5    2.00    3.50
   3  -7   5    2.40    2.70
   3  -7   5   -0.10    3.80
  -4   7  -5   47.10    6.00
  -4   7  -5   56.29   13.10
   4  -7   5   34.60    7.00
   8   6  -5   26.50    5.70
  -8  -6   5   30.50    6.70
  -8  -6   5   21.90    5.00
   7   6  -5   55.19    7.40
   7   6  -5   56.79    8.10
  -7  -6   5   55.49    7.40
  -7  -6   5   48.30    7.70
   6   6  -5  110.89    9.80
   6   6  -5  132.49   10.40
  -6  -6   5  127.39   10.80
  -6  -6   5  139.59   10.80
   5   6  -5    2.60    2.70
   5   6  -5    4.00    3.30
  -5  -6   5    1.50    2.70
  -5  -6   5    0.20    2.30
   4   6  -5    6.70    2.80
   4   6  -5    3.50    2.80
  -4  -6   5    2.40    2.90
  -4  -6   5    4.10    2.80
   3   6  -5   57.89    7.50
   3   6  -5   56.99    7.30
  -3  -6   5   54.39    7.20
  -3  -6   5   52.29    7.20
   2   6  -5    7.00    3.00
   2   6  -5    7.20    3.10
   2   6  -5    2.50    2.40
  -2  -6   5    5.40    3.10
   1   6  -5  209.38   13.30
   1   6  -5  207.78   13.10
   1   6  -5  214.58   14.40
  -1  -6   5  202.68   13.60
   0   6  -5  159.88   11.10
   0   6  -5  169.48   11.00
   0   6  -5  148.79   11.10
   0  -6   5  166.08   11.60
  -1   6  -5   35.20    5.60
  -1   6  -5   35.70    5.20
  -1   6  -5   43.00    6.80
  -2   6  -5  141.99   10.70
  -2   6  -5  145.19    9.90
   2  -6   5  152.18   10.70
   2  -6   5  142.39   11.20
  -3   6  -5   35.00    5.00
  -3   6  -5   22.30    5.20
   3  -6   5   28.00    5.10
   3  -6   5   24.70    5.40
  -4   6  -5    7.40    3.90
  -4   6  -5    8.50    3.00
   4  -6   5    1.20    3.60
   4  -6   5   11.70    3.50
  -5   6  -5   21.40    4.10
   5  -6   5   16.60    5.80
   5  -6   5   17.20    3.80
   8   5  -5   14.00    4.60
   8   5  -5   12.20    4.30
  -8  -5   5   13.60    4.50
  -8  -5   5    5.90    3.20
   7   5  -5   47.20    6.70
   7   5  -5   56.59    7.80
  -7  -5   5   38.50    6.20
  -7  -5   5   48.30    7.40
   6   5  -5   17.50    4.40
   6   5  -5   13.40    4.00
  -6  -5   5    7.10    3.70
  -6  -5   5   17.80    4.40
   5   5  -5    2.80    2.50
   5   5  -5   -0.40    2.20
  -5  -5   5   -2.90    1.80
  -5  -5   5    2.00    2.40
   4   5  -5   38.90    5.80
   4   5  -5   30.00    6.20
  -4  -5   5   34.70    5.80
  -4  -5   5   42.10    6.50
   3   5  -5   20.00    4.60
   3   5  -5   23.50    4.70
  -3  -5   5   19.60    4.50
  -3  -5   5   15.10    4.10
   2   5  -5    4.00    2.50
   2   5  -5    4.50    2.80
   2   5  -5    2.20    2.50
  -2  -5   5    3.30    2.40
   1   5  -5   56.89    7.00
   1   5  -5   52.99    6.50
   1   5  -5   60.79    7.20
  -1  -5   5   50.09    6.90
   0   5  -5  224.28   13.30
   0   5  -5  223.28   13.50
   0  -5   5  238.78   14.00
  -1   5  -5   -0.50    1.80
   1  -5   5    1.60    2.40
   1  -5   5    0.70    2.20
  -2   5  -5   75.99    7.20
  -2   5  -5   77.39    6.50
   2  -5   5   52.59    6.60
   2  -5   5   53.69    7.10
  -3   5  -5   51.99    5.90
  -3   5  -5   44.20    6.30
   3  -5   5   34.30    6.10
   3  -5   5   54.99    6.40
  -4   5  -5   17.40    3.50
  -4   5  -5   28.90    5.50
   4  -5   5   14.70    3.80
   4  -5   5   23.00    5.40
  -5   5  -5   13.80    4.90
  -5   5  -5    8.70    3.00
   5  -5   5   10.20    3.20
  -6   5  -5   27.40    4.10
  -6   5  -5    7.50    4.20
   6  -5   5    9.80    5.00
   6  -5   5   16.00    3.20
   9   4  -5   16.50    4.60
  -9  -4   5   24.30    6.10
   8   4  -5    2.30    2.90
   8   4  -5    1.00    3.00
  -8  -4   5   -0.50    2.20
  -8  -4   5    1.10    2.70
   7   4  -5    5.60    3.60
   7   4  -5    0.50    2.50
  -7  -4   5    1.10    2.60
  -7  -4   5   -2.90    2.20
   6   4  -5    2.80    2.60
   6   4  -5    1.60    2.40
  -6  -4   5    2.00    2.80
  -6  -4   5    3.00    2.40
   5   4  -5    1.60    2.40
  -5  -4   5    1.50    2.30
   4   4  -5   33.20    5.20
   4   4  -5   19.60    4.00
  -4  -4   5   22.90    4.60
  -4  -4   5   23.50    4.50
   3   4  -5    4.30    2.60
   3   4  -5    3.20    2.20
  -3  -4   5    5.30    2.70
  -3  -4   5    2.10    2.40
   2   4  -5  245.88   13.60
   2   4  -5  233.38   13.20
   2   4  -5  237.18   13.40
  -2  -4   5  220.88   13.80
   1   4  -5   15.70    3.40
   1   4  -5   12.10    3.50
   1   4  -5   11.40    3.10
  -1  -4   5   15.20    3.70
   0   4  -5  270.67   15.30
   0   4  -5  276.57   14.90
   0   4  -5  270.47   15.00
   0  -4   5  270.37   15.40
  -1   4  -5   13.50    3.10
  -1   4  -5   17.60    4.10
   1  -4   5   14.90    3.50
   1  -4   5   20.20    4.10
  -2   4  -5   84.19    6.60
  -2   4  -5   81.19    7.20
   2  -4   5   80.29    7.30
   2  -4   5   81.29    6.90
  -3   4  -5   90.49    7.70
  -3   4  -5   84.09    6.50
   3  -4   5   56.09    7.20
   3  -4   5   73.49    6.60
  -4   4  -5   16.10    3.50
  -4   4  -5    9.40    3.70
   4  -4   5   17.40    4.40
   4  -4   5    6.90    2.80
  -5   4  -5  109.89    9.70
  -5   4  -5   98.39    7.30
   5  -4   5  101.89    9.60
   5  -4   5  112.49    8.00
  -6   4  -5   14.10    3.10
  -6   4  -5    8.70    4.30
   6  -4   5   11.00    3.20
   9   3  -5    2.40    3.00
   9   3  -5    0.80    4.20
   9   3  -5   -0.60    2.50
  -9  -3   5    5.60    4.10
   8   3  -5    0.20    2.40
   8   3  -5   -1.40    2.50
  -8  -3   5    1.20    2.30
  -8  -3   5    0.50    2.90
   7   3  -5    0.80    2.80
  -7  -3   5   -0.50    2.40
  -7  -3   5   -2.10    2.20
   6   3  -5   -0.30    2.30
   6   3  -5   -0.40    1.90
  -6  -3   5   -2.20    1.80
  -6  -3   5   -2.30    1.80
   5   3  -5  212.78   12.70
   5   3  -5  218.08   12.70
  -5  -3   5  200.08   12.90
  -5  -3   5  218.08   12.90
   4   3  -5  124.69    8.80
   4   3  -5  133.69    9.00
  -4  -3   5  125.19    8.80
  -4  -3   5  130.49    9.30
   3   3  -5   15.60    3.50
   3   3  -5    9.80    3.00
  -3  -3   5   20.20    4.20
  -3  -3   5   12.30    3.10
   2   3  -5  535.65   26.00
   2   3  -5  542.85   26.30
  -2  -3   5  543.55   26.20
  -2  -3   5  584.74   27.00
   1   3  -5    4.10    2.30
   1   3  -5    1.70    2.00
   1   3  -5    1.50    2.00
  -1  -3   5    4.10    2.40
   0   3  -5  551.84   27.10
   0   3  -5  578.74   26.80
   0   3  -5  565.64   26.80
   0  -3   5  576.44   27.20
  -1   3  -5  199.08   11.90
  -1   3  -5  207.18   11.80
   1  -3   5  212.58   12.10
   1  -3   5  206.48   12.10
  -2   3  -5  197.38   11.20
  -2   3  -5  190.98   11.80
   2  -3   5  185.38   12.00
   2  -3   5  207.48   11.70
  -3   3  -5  157.48    9.60
  -3   3  -5  160.38   10.70
   3  -3   5  163.58   10.00
   3  -3   5  156.18   10.80
  -4   3  -5    5.50    2.20
  -4   3  -5   10.40    3.70
   4  -3   5    4.60    2.30
   4  -3   5    7.80    3.40
  -5   3  -5  107.79    7.30
  -5   3  -5   99.09    9.00
   5  -3   5   91.09    8.80
   5  -3   5  104.79    7.50
  -6   3  -5    6.10    3.80
  -6   3  -5   10.30    2.60
   6  -3   5    7.40    2.70
   6  -3   5    3.60    3.40
  -7   3  -5    8.30    2.30
   7  -3   5    8.00    4.20
   7  -3   5    5.50    2.40
   9   2  -5   -0.50    2.50
   9   2  -5   -1.00    3.10
   9   2  -5    5.50    3.10
  -9  -2   5    2.20    3.30
   8   2  -5   48.70    6.50
  -8  -2   5   56.49    7.50
  -8  -2   5   44.10    5.40
   7   2  -5   37.60    5.50
   7   2  -5   34.30    5.00
  -7  -2   5   36.90    5.00
  -7  -2   5   44.50    6.50
   6   2  -5   54.49    6.80
   6   2  -5   47.90    5.70
  -6  -2   5   71.29    7.70
  -6  -2   5   47.60    6.10
   5   2  -5    0.20    1.90
   5   2  -5    1.00    1.90
  -5  -2   5    2.20    2.00
  -5  -2   5    1.20    2.10
   4   2  -5  134.79    8.50
   4   2  -5  123.19    8.50
  -4  -2   5  131.09    8.90
  -4  -2   5  117.09    8.30
   3   2  -5    0.80    1.80
   3   2  -5    2.40    1.90
  -3  -2   5    0.60    1.60
  -3  -2   5    1.10    1.80
   2   2  -5  116.29    7.60
   2   2  -5  107.19    7.70
  -2  -2   5  124.29    8.20
  -2  -2   5  106.79    7.40
   1   2  -5  424.36   20.80
   1   2  -5  418.26   20.50
   1   2  -5  445.66   21.10
  -1  -2   5  454.55   21.40
   0   2  -5  291.97   14.90
   0   2  -5  301.27   15.20
   0  -2   5  285.77   15.00
   0  -2   5  284.07   15.10
  -1   2  -5   19.30    3.60
  -1   2  -5   17.30    3.20
   1  -2   5   14.90    3.30
   1  -2   5    8.80    2.80
  -2   2  -5  462.85   22.70
  -2   2  -5  496.25   23.60
   2  -2   5  475.85   23.50
   2  -2   5  491.95   23.00
  -3   2  -5  305.57   16.40
  -3   2  -5  317.17   15.50
   3  -2   5  293.97   15.40
   3  -2   5  284.67   16.20
  -4   2  -5   12.80    4.50
  -4   2  -5   11.70    3.10
   4  -2   5   14.00    3.20
   4  -2   5   15.40    3.70
  -5   2  -5   44.10    6.50
  -5   2  -5   66.19    5.30
   5  -2   5   54.49    5.10
   5  -2   5   51.29    6.80
  -6   2  -5   12.80    2.80
  -6   2  -5    7.80    3.90
   6  -2   5   10.50    2.80
   6  -2   5   12.10    4.30
  -7   2  -5   12.60    2.60
  -7   2  -5   11.00    4.80
   7  -2   5    8.00    2.40
   9   1  -5   10.30    2.90
   9   1  -5   16.10    3.50
  -9  -1   5   13.70    4.50
   8   1  -5    3.70    3.30
   8   1  -5    0.90    2.20
  -8  -1   5    2.10    1.90
  -8  -1   5    4.80    3.10
   7   1  -5  133.99    9.30
   7   1  -5  111.69    8.20
  -7  -1   5  130.49    8.60
  -7  -1   5  111.69    9.90
   6   1  -5    8.80    2.90
   6   1  -5    6.80    2.40
  -6  -1   5    4.10    2.70
  -6  -1   5    6.40    2.40
   5   1  -5   34.00    4.70
  -5  -1   5   33.60    5.00
  -5  -1   5   32.30    4.80
   4   1  -5   -0.20    1.50
   4   1  -5    1.20    1.70
  -4  -1   5    0.50    1.70
  -4  -1   5    0.50    1.60
   3   1  -5   81.39    6.10
   3   1  -5   69.59    5.40
  -3  -1   5   76.59    6.20
  -3  -1   5   81.59    5.80
   2   1  -5  170.18    9.60
   2   1  -5  147.79    8.80
  -2  -1   5  160.78    9.00
  -2  -1   5  154.08    9.50
   1   1  -5   -0.20    1.50
   1   1  -5    0.50    1.80
   1   1  -5    0.50    1.90
  -1  -1   5    3.60    2.00
   0   1  -5   50.19    4.50
   0   1  -5   48.10    4.60
   0  -1   5   51.29    4.90
   0  -1   5   52.09    4.60
  -1   1  -5  480.35   22.60
  -1   1  -5  469.75   22.40
   1  -1   5  488.05   22.70
   1  -1   5  483.05   22.60
  -2   1  -5  110.19    7.00
  -2   1  -5   95.99    7.10
   2  -1   5   93.69    7.20
   2  -1   5  103.49    6.90
  -3   1  -5  323.87   15.60
  -3   1  -5  303.47   16.10
   3  -1   5  304.67   16.20
   3  -1   5  294.37   15.30
  -4   1  -5    4.80    3.00
  -4   1  -5    4.50    1.90
   4  -1   5    8.50    3.00
   4  -1   5    6.90    2.30
  -5   1  -5    0.10    1.40
  -5   1  -5    0.90    2.50
   5  -1   5    2.10    2.50
   5  -1   5    0.40    1.60
  -6   1  -5    4.10    2.00
  -6   1  -5    1.80    2.80
   6  -1   5    6.50    3.50
   6  -1   5    6.60    2.30
  -7   1  -5    0.60    1.40
  -7   1  -5   -3.70    2.70
   7  -1   5    1.80    3.50
   7  -1   5    2.00    1.70
   8  -1   5   46.20    8.10
   8  -1   5   70.09    5.00
   8   0  -5    3.40    2.20
   8   0  -5    5.30    3.20
  -8   0   5    5.30    3.20
   7   0  -5   -0.80    2.40
   7   0  -5    3.00    2.00
  -7   0   5    2.90    2.10
  -7   0   5    5.20    3.30
   6   0  -5    4.60    2.10
   6   0  -5    4.80    2.30
  -6   0   5    3.30    2.10
  -6   0   5    3.80    2.30
   5   0  -5   11.40    2.70
   5   0  -5   10.10    2.70
  -5   0   5   10.80    2.80
  -5   0   5   12.90    2.90
   4   0  -5   63.19    5.10
   4   0  -5   59.09    4.90
  -4   0   5   65.59    5.40
  -4   0   5   61.99    5.10
   3   0  -5   44.40    3.90
   3   0  -5   45.50    5.00
  -3   0   5   48.40    4.60
  -3   0   5   43.30    4.00
   2   0  -5  103.89    6.70
   2   0  -5   96.39    6.00
  -2   0   5  104.29    6.80
  -2   0   5   92.39    6.70
   1   0  -5   26.60    3.70
   1   0  -5   22.00    3.20
   1   0  -5   19.70    2.80
  -1   0   5   18.70    3.30
   0   0  -5   25.70    3.70
   0   0  -5   16.70    2.80
   0   0   5   15.50    3.00
   0   0   5   19.90    2.90
  -1   0  -5  602.04   27.40
  -1   0  -5  594.84   27.10
   1   0   5  604.34   27.10
   1   0   5  610.44   27.50
  -2   0  -5   57.39    4.90
  -2   0  -5   54.19    4.90
   2   0   5   58.79    5.00
   2   0   5   52.79    4.70
  -3   0  -5   95.99    7.40
  -3   0  -5  124.99    7.40
   3   0   5  112.89    7.10
   3   0   5  103.19    7.50
  -4   0  -5   41.50    5.60
  -4   0  -5   46.90    4.40
   4   0   5   35.10    5.10
   4   0   5   45.00    4.90
  -5   0  -5   59.39    7.10
  -5   0  -5   58.99    5.10
   5   0   5   63.59    7.30
   5   0   5   62.99    5.10
  -6   0  -5  104.39    9.00
  -6   0  -5  105.59    7.00
  -7   0  -5    0.70    2.90
  -7   0  -5    5.50    2.10
   7   0   5    4.10    2.10
   7   0   5    4.40    3.00
  -8   0  -5   52.39    4.50
  -8   0  -5   33.80    6.50
   8   0   5   48.30    4.60
   8  -1  -5    2.90    1.80
   8  -1  -5    0.20    2.70
   8  -1  -5    0.10    1.70
  -8   1   5    0.20    2.70
   7  -1  -5   12.80    2.50
   7  -1  -5   10.30    3.70
  -7   1   5   13.00    2.60
  -7   1   5    9.00    3.40
   6  -1  -5    2.10    1.60
   6  -1  -5    1.10    2.30
  -6   1   5    3.40    1.90
  -6   1   5    3.10    2.50
   5  -1  -5   26.70    3.50
   5  -1  -5   31.90    4.10
  -5   1   5   29.70    3.80
  -5   1   5   24.50    3.70
   4  -1  -5   83.29    5.70
   4  -1  -5   83.99    5.60
  -4   1   5   68.29    5.30
  -4   1   5   76.49    5.70
   3  -1  -5    0.20    1.50
   3  -1  -5    2.10    1.40
  -3   1   5    4.70    2.00
   2  -1  -5   42.90    3.40
   2  -1  -5   48.60    4.20
  -2   1   5   46.30    3.50
  -2   1   5   49.20    4.40
   1  -1  -5    5.50    1.60
   1  -1  -5    7.20    1.70
   1  -1  -5   10.00    2.40
  -1   1   5    6.40    2.20
   0  -1  -5   -0.90    1.50
   0  -1  -5    0.10    1.70
   0   1   5    0.60    1.80
   0   1   5    2.10    1.70
  -1  -1  -5  109.69    6.90
  -1  -1  -5  102.69    6.30
   1   1   5   99.39    6.30
   1   1   5  110.89    7.00
  -2  -1  -5   43.60    4.90
  -2  -1  -5   43.70    4.70
   2   1   5   36.40    4.30
   2   1   5   43.00    4.60
  -3  -1  -5   39.70    4.70
  -3  -1  -5   31.60    4.40
   3   1   5   34.80    4.40
   3   1   5   35.50    4.20
  -4  -1  -5   40.30    4.90
  -4  -1  -5   36.50    5.20
   4   1   5   42.70    4.60
   4   1   5   33.10    4.80
  -5  -1  -5   54.29    5.00
  -5  -1  -5   54.79    6.70
   5   1   5   60.09    5.00
   5   1   5   57.19    7.20
  -6  -1  -5  301.07   15.00
  -6  -1  -5  287.07   16.80
   6   1   5  282.67   16.60
   6   1   5  289.67   14.80
  -7  -1  -5   27.80    4.00
  -7  -1  -5   23.00    5.10
   7   1   5   25.00    5.20
   7   1   5   26.40    3.90
  -8  -1  -5   34.10    4.20
  -8  -1  -5   18.00    5.10
   8   1   5   21.10    3.50
   8  -2  -5    0.10    2.70
  -8   2   5    4.60    3.20
   7  -2  -5   26.00    4.60
  -7   2   5   48.40    6.50
  -7   2   5   38.20    3.30
   6  -2  -5   29.80    3.50
   6  -2  -5   24.30    3.90
  -6   2   5   35.20    5.00
  -6   2   5   22.80    3.10
   5  -2  -5   14.60    2.70
   5  -2  -5   10.00    2.50
  -5   2   5   12.90    2.40
  -5   2   5   15.60    3.10
   4  -2  -5   22.90    3.30
   4  -2  -5   28.80    3.30
  -4   2   5   28.10    3.60
  -4   2   5   24.00    3.20
   3  -2  -5   52.79    5.10
   3  -2  -5   34.30    3.00
  -3   2   5   30.80    3.00
  -3   2   5   36.60    4.10
   2  -2  -5   -0.10    1.50
   2  -2  -5    0.20    1.00
  -2   2   5   -0.80    1.50
  -2   2   5    0.70    1.10
   1  -2  -5    2.70    1.00
   1  -2  -5    4.00    1.20
   1  -2  -5    3.20    1.70
  -1   2   5    7.00    2.30
   0  -2  -5    0.90    1.30
   0  -2  -5   -0.60    1.40
   0   2   5    3.10    1.80
   0   2   5    0.90    1.20
  -1  -2  -5  567.24   25.20
  -1  -2  -5  513.35   23.90
   1   2   5  573.64   25.20
   1   2   5  538.65   24.60
  -2  -2  -5   19.90    3.10
  -2  -2  -5   20.30    3.40
   2   2   5   21.70    3.40
   2   2   5   20.70    3.10
  -3  -2  -5  156.78    9.00
  -3  -2  -5  145.09    8.80
   3   2   5  148.89    8.80
   3   2   5  148.49    8.80
  -4  -2  -5  622.94   29.10
  -4  -2  -5  654.03   29.60
   4   2   5  644.54   29.00
   4   2   5  616.44   29.40
  -5  -2  -5   49.60    6.40
  -5  -2  -5   54.49    5.00
   5   2   5   51.89    5.70
   5   2   5   55.29    6.50
  -6  -2  -5   33.10    4.70
  -6  -2  -5   31.10    5.70
   6   2   5   34.30    5.70
   6   2   5   36.40    4.60
  -7  -2  -5    1.60    2.70
  -7  -2  -5    0.60    1.50
   7   2   5    2.40    2.90
   7   2   5   -0.40    1.80
  -8  -2  -5   49.70    5.40
  -8  -2  -5   37.60    6.70
   8   2   5   56.09    5.70
  -9  -2  -5   11.10    4.90
  -9  -2  -5   21.10    3.70
   9   2   5   17.80    5.00
   9   2   5   20.10    3.70
   8  -3  -5    6.20    3.60
  -8   3   5    5.30    3.30
   7  -3  -5   -1.10    2.70
  -7   3   5    2.40    2.40
   6  -3  -5    0.30    1.30
   6  -3  -5    0.10    2.30
  -6   3   5    2.30    1.40
  -6   3   5    1.90    2.20
   5  -3  -5    0.70    1.90
   5  -3  -5    1.30    1.40
  -5   3   5    2.10    1.60
  -5   3   5    2.10    1.90
   4  -3  -5   63.09    4.60
   4  -3  -5   56.89    4.50
  -4   3   5   53.39    4.30
  -4   3   5   64.89    4.70
   3  -3  -5   51.29    3.90
   3  -3  -5   47.60    4.10
  -3   3   5   45.80    4.20
  -3   3   5   50.69    3.50
   2  -3  -5  474.55   22.10
   2  -3  -5  493.75   20.40
   2  -3  -5  485.55   20.40
  -2   3   5  489.25   22.10
  -2   3   5  456.65   20.40
   1  -3  -5   50.39    4.50
  -1   3   5   49.10    4.40
   0  -3  -5   17.40    1.60
   0  -3  -5   18.20    3.10
   0   3   5   23.40    3.50
   0   3   5   18.00    1.60
  -1  -3  -5  273.17   12.50
  -1  -3  -5  274.97   14.00
   1   3   5  277.47   13.90
   1   3   5  265.17   12.40
  -2  -3  -5   56.39    4.40
  -2  -3  -5   64.19    5.20
   2   3   5   56.99    4.40
   2   3   5   59.79    5.10
  -3  -3  -5   12.70    2.90
  -3  -3  -5   19.50    3.30
   3   3   5   22.10    3.50
   3   3   5   19.80    3.40
  -4  -3  -5   38.80    4.80
  -4  -3  -5   34.50    4.80
   4   3   5   32.10    4.50
   4   3   5   48.20    5.40
  -5  -3  -5   -1.20    1.80
  -5  -3  -5   -0.30    1.50
   5   3   5    0.50    1.60
   5   3   5    0.20    2.00
  -6  -3  -5   99.99    7.20
   6   3   5   85.09    6.70
   6   3   5   89.09    7.70
  -7  -3  -5   15.60    3.30
  -7  -3  -5   21.20    5.30
   7   3   5   12.40    3.90
   7   3   5   13.80    3.30
  -8  -3  -5  155.48   10.00
  -8  -3  -5  142.59   11.90
   8   3   5  171.78   10.10
  -9  -3  -5   41.90    5.20
  -9  -3  -5   34.80   10.80
   9   3   5   30.70    4.50
  -7   4   5    5.50    3.20
   6  -4  -5   18.70    3.80
   6  -4  -5   28.40    2.40
  -6   4   5   21.10    2.30
  -6   4   5   21.10    4.00
   5  -4  -5   70.89    4.80
   5  -4  -5   67.29    5.60
  -5   4   5   73.19    5.70
  -5   4   5   69.29    4.80
   4  -4  -5   91.19    5.80
  -4   4   5   83.09    5.70
  -4   4   5   92.89    5.90
   3  -4  -5    3.90    1.80
  -3   4   5    7.00    2.00
  -3   4   5    6.80    1.70
   2  -4  -5  305.47   15.20
   2  -4  -5  314.57   13.40
  -2   4   5  305.37   13.30
  -2   4   5  298.27   15.00
   1  -4  -5  381.36   18.60
  -1   4   5  395.96   18.60
   0  -4  -5   16.20    3.10
   0   4   5    9.80    2.60
  -1  -4  -5   56.79    3.60
  -1  -4  -5   56.99    5.10
   1   4   5   53.19    4.80
   1   4   5   59.69    3.70
  -2  -4  -5  647.44   29.60
  -2  -4  -5  621.04   28.30
   2   4   5  649.04   28.30
   2   4   5  652.13   29.60
  -3  -4  -5   74.39    5.50
  -3  -4  -5   76.29    6.10
   3   4   5   73.59    5.50
   3   4   5   67.99    5.80
  -4  -4  -5  250.47   13.40
  -4  -4  -5  259.97   13.70
   4   4   5  236.88   13.30
   4   4   5  233.08   13.10
  -5  -4  -5   75.09    6.40
  -5  -4  -5   62.59    5.90
   5   4   5   62.19    5.70
   5   4   5   72.29    6.20
  -6  -4  -5  296.27   17.00
  -6  -4  -5  301.87   16.00
   6   4   5  289.37   15.80
   6   4   5  289.07   16.40
  -7  -4  -5  108.99    9.20
  -7  -4  -5  111.59    8.20
   7   4   5  110.29    8.10
   7   4   5   97.19    8.70
  -8  -4  -5  143.49    9.40
  -8  -4  -5  103.99   10.20
   8   4   5  140.49    9.40
  -9  -4  -5   11.70    3.50
  -9  -4  -5    8.40    4.20
   9   4   5   12.80    3.70
   7  -5  -5    3.50    3.20
  -7   5   5    1.00    2.90
   6  -5  -5   12.50    3.50
  -6   5   5   21.90    4.10
   5  -5  -5   31.80    4.20
  -5   5   5   33.70    4.30
  -5   5   5   36.40    3.30
   4  -5  -5   58.29    4.60
   4  -5  -5   58.29    4.60
  -4   5   5   55.09    4.40
  -4   5   5   60.09    4.60
   3  -5  -5   36.90    3.40
   3  -5  -5   47.90    4.10
  -3   5   5   44.70    3.90
  -3   5   5   38.80    3.20
   2  -5  -5    4.10    1.80
   2  -5  -5    2.00    1.10
  -2   5   5    2.20    1.00
  -2   5   5    4.60    1.90
   1  -5  -5   85.39    6.30
  -1   5   5   91.19    6.30
   0  -5  -5    6.20    2.30
   0   5   5    4.70    2.00
   0   5   5    6.30    1.10
  -1  -5  -5  130.69    6.70
  -1  -5  -5  123.99    8.30
   1   5   5  132.39    8.30
   1   5   5  128.49    6.70
  -2  -5  -5   34.30    3.80
  -2  -5  -5   34.20    4.70
   2   5   5   26.60    3.90
   2   5   5   35.70    3.90
  -3  -5  -5  137.99    9.00
  -3  -5  -5  123.19    7.90
   3   5   5  138.19    8.00
   3   5   5  132.09    8.70
  -4  -5  -5  128.69    8.90
  -4  -5  -5  132.29    8.50
   4   5   5  126.99    8.30
   4   5   5  130.09    8.70
  -5  -5  -5    8.00    2.80
  -5  -5  -5    3.90    2.50
   5   5   5   14.00    3.60
   5   5   5    5.30    2.50
  -6  -5  -5  175.88   11.50
   6   5   5  169.08   11.20
   6   5   5  158.78   10.50
  -7  -5  -5   -0.10    2.50
  -7  -5  -5    3.40    2.30
   7   5   5    2.20    2.40
   7   5   5   -2.00    2.10
  -8  -5  -5    5.70    3.30
  -8  -5  -5    2.90    2.50
   8   5   5    3.80    3.50
   8   5   5   10.60    3.40
  -9  -5  -5   -0.40    3.20
  -9  -5  -5    2.50    2.70
   9   5   5    2.40    2.70
   6  -6  -5   21.90    4.40
  -6   6   5   16.20    3.80
   5  -6  -5   11.00    3.20
  -5   6   5    5.80    1.90
  -5   6   5    6.30    2.50
   4  -6  -5    3.50    2.20
   4  -6  -5    3.70    1.80
  -4   6   5    5.20    1.80
  -4   6   5    4.90    1.80
   3  -6  -5   15.40    2.80
   3  -6  -5   12.40    2.50
  -3   6   5   15.90    2.40
  -3   6   5   17.20    3.00
   2  -6  -5    2.80    1.80
  -2   6   5    2.20    1.40
  -2   6   5    4.80    2.00
   1  -6  -5   16.80    3.20
  -1   6   5   11.60    1.80
  -1   6   5   18.90    3.30
  -1   6   5   13.50    1.90
   0  -6  -5    0.60    1.60
   0   6   5    1.00    1.00
   0   6   5   -0.80    1.30
   0   6   5    0.20    1.10
  -1  -6  -5  331.37   15.20
  -1  -6  -5  342.07   17.20
   1   6   5  317.27   16.90
   1   6   5  328.17   15.60
  -2  -6  -5  359.06   16.60
  -2  -6  -5  343.57   18.20
   2   6   5  341.37   16.50
   2   6   5  358.86   18.10
  -3  -6  -5   41.80    4.80
  -3  -6  -5   39.40    5.30
   3   6   5   39.30    5.00
   3   6   5   50.49    5.30
  -4  -6  -5  182.28   10.50
  -4  -6  -5  179.18   11.20
   4   6   5  160.78   10.10
   4   6   5  176.38   11.00
  -5  -6  -5   65.69    7.30
   5   6   5   74.39    7.60
   5   6   5   54.49    6.90
  -6  -6  -5   15.40    3.70
  -6  -6  -5   21.00    4.90
   6   6   5   26.90    5.00
   6   6   5   26.70    4.90
  -7  -6  -5    4.90    3.20
  -7  -6  -5   10.50    3.30
   7   6   5   10.90    4.00
  -8  -6  -5   42.30    7.20
   8   6   5   47.90    7.20
   8   6   5   48.40    6.50
  -9  -6  -5    5.80    4.10
   9   6   5    8.80    3.80
   6  -7  -5   14.30    3.90
  -6   7   5   12.70    3.60
  -5   7   5  237.08   12.80
  -5   7   5  228.48   12.40
  -5   7   5  224.68   11.20
   4  -7  -5   18.90    3.50
   4  -7  -5   33.70    4.00
  -4   7   5   25.30    3.60
  -4   7   5   21.00    3.20
   3  -7  -5    3.80    2.00
   3  -7  -5    5.50    2.30
  -3   7   5    7.80    2.10
  -3   7   5    5.90    2.20
   2  -7  -5   46.00    5.10
  -2   7   5   47.30    4.50
  -2   7   5   41.90    3.50
  -2   7   5   44.70    3.90
   1  -7  -5  164.88   10.00
  -1   7   5  169.98    8.40
  -1   7   5  151.38    8.20
  -1   7   5  155.38    9.50
   0  -7  -5   31.80    4.60
   0   7   5   34.30    3.50
   0   7   5   19.00    2.60
   0   7   5   31.10    4.50
  -1  -7  -5  211.48   12.70
  -1  -7  -5  215.48   10.90
   1   7   5  210.98   12.40
   1   7   5  216.88   10.80
  -2  -7  -5  379.56   17.70
  -2  -7  -5  376.06   19.50
   2   7   5  357.76   19.10
   2   7   5  363.46   17.50
  -3  -7  -5   22.30    4.20
  -3  -7  -5   19.80    3.50
   3   7   5   25.60    4.50
   3   7   5   27.80    4.30
  -4  -7  -5   54.29    6.20
  -4  -7  -5   56.79    6.80
   4   7   5   68.39    7.50
   4   7   5   53.49    5.30
  -5  -7  -5  109.19    8.30
  -5  -7  -5  118.39    8.90
   5   7   5   98.69    8.00
   5   7   5  116.49    8.90
  -6  -7  -5    5.90    2.80
   6   7   5    4.00    2.70
   6   7   5    2.80    2.50
  -7  -7  -5    4.20    2.60
  -7  -7  -5    3.00    2.80
   7   7   5    1.30    2.20
   7   7   5   -1.00    2.30
  -8  -7  -5    3.80    3.10
  -8  -7  -5    6.30    3.90
   8   7   5   12.00    3.90
   8   7   5    7.10    3.90
  -9  -7  -5   61.99    9.30
   9   7   5   63.49    7.90
   9   7   5   75.79    9.10
   9   7   5   54.39    8.30
   5  -8  -5    6.20    3.00
  -5   8   5    2.80    2.40
  -5   8   5    3.00    1.70
  -5   8   5    4.00    2.30
   4  -8  -5  361.86   19.10
  -4   8   5  400.56   18.60
  -4   8   5  384.06   18.90
  -4   8   5  389.96   18.40
   3  -8  -5   31.30    4.50
  -3   8   5   34.10    4.10
  -3   8   5   40.90    5.00
   2  -8  -5    2.40    2.10
  -2   8   5    0.30    1.40
  -2   8   5    4.10    2.10
  -2   8   5    0.90    1.70
   1  -8  -5   82.59    6.70
  -1   8   5   71.29    6.10
  -1   8   5   72.49    5.10
  -1   8   5   74.99    5.20
   0  -8  -5   41.20    5.60
   0   8   5   40.60    3.70
   0   8   5   41.10    3.90
   0   8   5   50.19    6.10
  -1  -8  -5    2.30    2.10
  -1  -8  -5    0.70    1.80
   1   8   5    2.50    2.20
   1   8   5    3.50    1.80
  -2  -8  -5  144.19   10.00
  -2  -8  -5  134.69    8.30
   2   8   5  141.09    8.20
   2   8   5  135.09    9.70
  -3  -8  -5   15.80    3.40
  -3  -8  -5   17.10    4.10
   3   8   5   14.50    3.60
   3   8   5   17.60    3.50
  -4  -8  -5   75.99    7.40
  -4  -8  -5   84.19    6.70
   4   8   5   84.49    6.70
   4   8   5   88.49    8.00
  -5  -8  -5   51.09    6.50
   5   8   5   47.50    6.60
   5   8   5   45.60    6.20
  -6  -8  -5   59.39    7.80
  -6  -8  -5   65.19    8.30
   6   8   5   65.19    8.10
   6   8   5   60.79    8.10
  -7  -8  -5  437.06   24.40
  -7  -8  -5  444.66   24.30
   7   8   5  483.15   24.70
   7   8   5  466.15   24.40
  -8  -8  -5   13.30    4.70
  -8  -8  -5    7.40    3.80
   8   8   5   13.20    4.50
   8   8   5   14.40    4.60
  -9  -8  -5   29.00    7.60
   9   8   5   25.30    6.00
   9   8   5   18.10    4.80
   9   8   5   34.00    6.10
  -5   9   5    3.50    2.70
  -5   9   5    0.60    1.60
  -5   9   5    3.90    2.10
  -4   9   5   20.70    3.80
  -4   9   5   22.60    3.70
  -4   9   5   15.10    3.10
  -3   9   5    2.10    2.20
  -3   9   5    0.00    1.50
  -3   9   5   -2.80    1.50
  -3   9   5   -0.50    1.80
   2  -9  -5    5.20    2.60
  -2   9   5    3.50    2.10
  -2   9   5    4.30    2.30
  -2   9   5    0.80    2.30
   1  -9  -5   -1.60    1.70
  -1   9   5    1.00    1.80
  -1   9   5   -0.80    1.70
  -1   9   5    0.00    1.80
   0  -9  -5   20.90    4.30
   0   9   5   21.30    3.50
   0   9   5   22.70    3.60
   0   9   5   16.00    4.00
  -1  -9  -5   19.60    4.30
   1   9   5   20.80    3.30
   1   9   5   16.00    3.90
  -2  -9  -5  130.09    9.90
  -2  -9  -5  125.79    8.20
   2   9   5  124.09    8.10
   2   9   5  132.59   10.80
  -3  -9  -5   -0.80    1.90
   3   9   5    1.20    2.10
   3   9   5    1.10    2.00
  -4  -9  -5  186.58   12.50
  -4  -9  -5  167.18   11.00
   4   9   5  174.98   11.00
   4   9   5  184.68   12.30
  -5  -9  -5    5.40    3.00
  -5  -9  -5    5.20    3.00
   5   9   5    2.80    2.60
   5   9   5    3.80    2.70
  -6  -9  -5   62.79    8.30
  -6  -9  -5   70.99    8.50
   6   9   5   75.79    7.30
   6   9   5   88.59   10.10
  -7  -9  -5   88.99   10.00
  -7  -9  -5   68.39    8.80
   7   9   5   62.19    8.40
   7   9   5   77.49    9.30
  -8  -9  -5   10.80    4.40
   8   9   5    4.60    3.40
   8   9   5    3.90    3.40
   8   9   5    9.10    4.20
  -9  -9  -5    0.60    4.00
   9   9   5    0.60    2.80
   9   9   5    9.40    4.40
   9   9   5    7.90    4.50
  -4  10   5    2.50    2.60
  -4  10   5   -0.90    2.00
  -4  10   5    2.10    3.10
  -4  10   5    0.10    1.70
  -3  10   5   16.00    3.70
  -3  10   5   12.40    3.70
  -3  10   5   18.70    3.70
  -3  10   5   20.70    4.40
  -2  10   5   -0.60    1.80
  -2  10   5    1.40    2.10
  -2  10   5   -1.40    1.60
  -2  10   5    1.10    2.00
  -1  10   5   42.50    6.10
  -1  10   5   40.00    5.10
  -1  10   5   31.00    4.50
   0 -10  -5  106.29    8.90
   0  10   5  100.19    7.20
   0  10   5  107.59    7.50
   0  10   5   99.09    8.30
   1  10   5    9.00    3.40
   1  10   5    4.10    2.20
   1  10   5   11.10    3.20
  -2 -10  -5  201.28   13.70
  -2 -10  -5  209.98   12.30
   2  10   5  224.98   12.40
   2  10   5  222.08   13.90
  -3 -10  -5  123.29    8.80
  -3 -10  -5  129.29   10.20
   3  10   5  134.79   10.30
   3  10   5  120.89    8.60
  -4 -10  -5  118.99   10.00
  -4 -10  -5  119.79    9.00
   4  10   5  120.39    9.90
   4  10   5  113.99    8.60
  -5 -10  -5  309.37   19.20
  -5 -10  -5  325.87   18.30
   5  10   5  331.07   18.10
   5  10   5  319.47   19.20
  -6 -10  -5   44.20    7.10
  -6 -10  -5   46.70    7.50
   6  10   5   46.40    7.30
   6  10   5   59.39   10.80
  -7 -10  -5    9.60    3.90
   7  10   5    7.80    3.80
   7  10   5   10.40    4.40
   7  10   5    9.70    4.00
  -8 -10  -5    1.10    3.20
   8  10   5    3.20    3.50
   8  10   5    4.50    3.60
   8  10   5    1.30    2.90
  -3  11   5   20.60    4.30
  -3  11   5   12.30    3.30
  -3  11   5    8.50    3.40
  -3  11   5    7.60    3.80
  -2  11   5    3.10    2.40
  -2  11   5    0.50    2.50
  -2  11   5    3.40    2.50
  -2  11   5    0.20    2.50
  -1  11   5   16.30    3.70
  -1  11   5   10.60    3.30
  -1  11   5    9.10    3.40
  -1  11   5   16.20    4.10
   0  11   5  253.77   15.70
   0  11   5  277.47   14.70
   0  11   5  291.37   16.20
   0  11   5  237.58   14.20
   1  11   5    4.70    2.90
   1  11   5    5.60    2.80
   1  11   5    4.10    2.70
   1  11   5    7.90    2.70
  -2 -11  -5   71.49    9.10
   2  11   5   88.89   10.10
   2  11   5   91.19    7.10
  -3 -11  -5   32.90    6.30
  -3 -11  -5   55.59    7.10
   3  11   5   60.79    8.70
   3  11   5   44.30    6.30
  -4 -11  -5   36.00    7.00
   4  11   5   38.00    7.30
   4  11   5   48.40    6.60
  -5 -11  -5   34.40    6.30
   5  11   5   36.30    6.20
  -6 -11  -5   44.10    7.50
   6  11   5   30.40    6.20
   6  11   5   47.90    7.60
   6  11   5   32.80    6.90
  -7 -11  -5  105.39   10.10
   7  11   5  111.39   10.00
   7  11   5  122.69   10.90
  -8 -11  -5   20.50    6.00
   8  11   5   23.50    6.10
   8  11   5   29.80    9.70
   8  11   5   19.80    5.60
  -1  12   5   19.00    4.60
  -1  12   5   22.30    5.40
  -1  12   5    9.60    3.40
   0  12   5   97.99   10.70
   0  12   5   95.69    7.80
   0  12   5   98.49    8.70
   0  12   5   83.69    7.70
   1  12   5    0.20    2.30
   1  12   5    5.80    3.20
   1  12   5   -2.70    2.20
   1  12   5    2.00    2.40
   2  12   5   60.09    8.00
   2  12   5   44.00    7.30
   2  12   5   50.89    6.80
   2  12   5   77.49    8.30
  -3 -12  -5    3.90    3.30
   3  12   5    6.10    3.70
   3  12   5    4.40    3.30
   3  12   5    5.50    2.80
  -4 -12  -5   90.19    9.70
   4  12   5   89.89    9.80
   4  12   5   70.69    9.90
   4  12   5   86.79   11.10
  -5 -12  -5   45.60    7.50
   5  12   5   36.20    6.90
   5  12   5   42.80    7.30
  -6 -12  -5   42.90    7.70
   6  12   5   44.50    7.90
   6  12   5   53.09    8.20
  -7 -12  -5  126.39   11.20
   7  12   5  129.09   11.00
   7  12   5  127.89   14.10
   0  13   5   -0.50    2.80
   0  13   5    4.40    3.40
   0  13   5    4.40    3.40
   0  13   5    5.20    3.30
   1  13   5    4.10    3.10
   1  13   5    1.70    3.00
   1  13   5    0.90    2.30
   1  13   5    0.30    2.70
   2  13   5   30.40    5.50
   2  13   5   35.40    7.10
   2  13   5   25.60    6.00
   2  13   5   33.00    5.90
   3  13   5   83.49    9.50
   3  13   5  100.79   11.50
   3  13   5   90.29   11.40
  -4 -13  -5   -1.70    2.80
   4  13   5    8.50    4.70
   4  13   5    1.10    2.70
  -5 -13  -5  125.09   10.90
   5  13   5  150.68   11.10
  -6 -13  -5   16.20    5.40
   6  13   5   19.00    5.70
   6  13   5   39.50   11.50
   6  13   5   19.70    5.40
   5   9  -6   71.09    9.60
   5   9  -6   94.99   11.30
   4   9  -6   29.00    6.80
   4   9  -6   28.40    7.60
   4   9  -6   41.50    7.50
   3   9  -6  105.39    9.80
   3   9  -6   82.69    9.90
   2   9  -6   38.60    6.80
   2   9  -6   29.70    6.30
   1   9  -6    8.50    4.10
   1   9  -6    7.50    4.40
   0   9  -6    0.00    4.00
   0   9  -6    3.50    3.70
   0  -9   6   -2.40    2.50
   6   8  -6   11.90    4.90
  -6  -8   6    7.90    4.50
  -6  -8   6   10.10    4.90
   5   8  -6   30.90    6.50
  -5  -8   6   30.50    6.90
   4   8  -6   28.80    5.90
   4   8  -6   28.40    7.00
   4   8  -6   25.00    5.40
   3   8  -6   56.49    7.90
   3   8  -6   64.49    8.90
   3   8  -6   68.89    8.40
  -3  -8   6   63.09    8.90
   2   8  -6  112.39   10.10
   2   8  -6  130.29   10.60
  -2  -8   6  112.09   10.80
   1   8  -6    2.90    2.90
   1   8  -6    3.90    3.50
  -1  -8   6    4.50    3.80
   0   8  -6    2.80    3.10
   0   8  -6    4.20    3.70
   0  -8   6    4.10    3.30
  -1   8  -6    3.50    3.50
  -1   8  -6    3.60    3.30
   1  -8   6    2.70    3.50
  -2   8  -6   13.80    4.10
  -2   8  -6    4.10    4.90
   2  -8   6   14.80    4.70
   7   7  -6   19.00    5.20
  -7  -7   6   28.80    6.60
  -7  -7   6   18.10    5.40
   6   7  -6    2.60    3.00
   6   7  -6    1.30    3.30
  -6  -7   6    2.30    3.30
  -6  -7   6    0.30    3.20
   5   7  -6    0.40    2.70
   5   7  -6   -0.80    2.40
  -5  -7   6    0.40    3.10
  -5  -7   6   -0.50    2.40
   4   7  -6    4.60    3.30
   4   7  -6    2.50    2.70
  -4  -7   6    4.20    4.00
  -4  -7   6    2.30    3.20
   3   7  -6    6.30    3.60
   3   7  -6    3.70    2.90
   3   7  -6    7.70    3.50
  -3  -7   6    7.00    4.00
   2   7  -6    3.80    3.20
   2   7  -6    0.30    2.50
   2   7  -6    4.60    3.10
  -2  -7   6    5.80    3.80
   1   7  -6   82.79    9.40
   1   7  -6  107.19    9.10
   1   7  -6   90.69    8.80
  -1  -7   6   81.49    9.60
   0   7  -6    9.90    3.30
   0   7  -6    0.00    2.50
   0   7  -6    4.40    3.30
   0  -7   6   18.10    4.90
  -1   7  -6    7.60    3.40
  -1   7  -6   16.40    5.00
   1  -7   6    5.40    3.20
  -2   7  -6    1.10    3.50
  -2   7  -6    3.80    3.10
   2  -7   6    2.00    3.00
  -3   7  -6   21.90    4.50
  -3   7  -6   21.70    5.50
   3  -7   6   28.30    5.60
   3  -7   6   17.10    5.40
   8   6  -6   -0.60    3.10
  -8  -6   6    1.80    3.40
  -8  -6   6    0.30    3.50
   7   6  -6   27.60    5.50
   7   6  -6   36.00    7.00
  -7  -6   6   49.50    8.10
  -7  -6   6   35.30    6.40
   6   6  -6  174.28   12.20
   6   6  -6  151.38   11.70
  -6  -6   6  153.48   11.90
  -6  -6   6  138.59   12.10
   5   6  -6   86.69    9.50
   5   6  -6   52.99    7.40
  -5  -6   6   73.79    9.10
  -5  -6   6   49.80    7.80
   4   6  -6  185.78   12.60
   4   6  -6  183.78   12.50
  -4  -6   6  168.08   12.90
  -4  -6   6  183.18   12.80
   3   6  -6    3.70    2.90
   3   6  -6    5.60    3.10
   3   6  -6    0.50    2.40
  -3  -6   6    0.40    2.30
   2   6  -6  231.18   14.60
   2   6  -6  224.88   14.10
   2   6  -6  245.48   14.80
  -2  -6   6  227.38   15.20
   1   6  -6    0.40    2.40
   1   6  -6    5.40    3.10
   1   6  -6    1.20    2.40
  -1  -6   6    4.30    3.00
   0   6  -6  106.69    9.30
   0   6  -6  118.69    9.70
   0   6  -6  118.89    9.30
   0  -6   6  126.39   10.00
  -1   6  -6   55.09    7.40
  -1   6  -6   48.40    7.30
  -1   6  -6   52.89    6.50
   1  -6   6   53.19    7.40
  -2   6  -6    1.60    2.60
  -2   6  -6    5.30    3.60
   2  -6   6   -0.80    2.50
   2  -6   6    3.80    3.30
  -3   6  -6   -3.00    2.40
   3  -6   6   -3.70    2.40
   3  -6   6    1.20    3.20
  -4   6  -6    3.30    3.60
  -4   6  -6    5.30    2.80
   4  -6   6    4.50    4.40
   4  -6   6    7.20    3.60
   8   5  -6   12.20    4.30
   8   5  -6   -1.10    3.10
  -8  -5   6    9.10    4.30
  -8  -5   6   18.00    5.30
   7   5  -6   49.60    7.70
   7   5  -6   56.59    7.60
  -7  -5   6   50.69    7.90
  -7  -5   6   45.50    7.20
   6   5  -6    0.30    2.70
   6   5  -6    5.30    3.30
  -6  -5   6   -1.80    2.50
  -6  -5   6   12.50    4.20
   5   5  -6  241.58   14.70
   5   5  -6  237.38   14.80
  -5  -5   6  241.78   15.00
  -5  -5   6  216.08   15.00
   4   5  -6   38.10    5.80
   4   5  -6   34.30    5.60
  -4  -5   6   36.40    6.10
  -4  -5   6   31.90    5.90
   3   5  -6   83.29    7.90
   3   5  -6   92.19    7.90
  -3  -5   6   84.49    8.10
   2   5  -6  397.06   20.80
   2   5  -6  392.26   21.20
   2   5  -6  391.66   21.60
  -2  -5   6  378.66   21.30
   1   5  -6   31.40    6.40
   1   5  -6   30.00    5.30
  -1  -5   6   25.40    5.20
   0   5  -6    4.20    2.80
   0   5  -6    3.70    2.80
   0   5  -6    0.20    2.00
   0  -5   6   -0.90    1.90
  -1   5  -6   28.60    4.80
  -1   5  -6   24.90    5.00
   1  -5   6   21.30    5.30
   1  -5   6   27.30    5.40
  -2   5  -6   16.00    4.50
  -2   5  -6   18.20    3.80
   2  -5   6   10.30    4.10
   2  -5   6    9.20    3.70
  -3   5  -6    5.90    3.50
  -3   5  -6    7.90    3.10
   3  -5   6    5.10    3.10
   3  -5   6    8.10    3.50
  -4   5  -6    1.70    2.30
  -4   5  -6    4.20    3.50
   4  -5   6   -1.70    2.20
   4  -5   6   -0.60    3.00
  -5   5  -6   -0.80    3.40
  -5   5  -6    3.20    2.40
   5  -5   6   -0.20    2.70
   5  -5   6   -0.10    3.40
   8   4  -6    0.60    3.00
   8   4  -6    0.70    3.10
  -8  -4   6    3.70    3.10
  -8  -4   6    1.60    3.60
   7   4  -6  290.87   17.10
   7   4  -6  285.97   17.10
  -7  -4   6  295.17   17.70
  -7  -4   6  291.07   17.70
   6   4  -6    1.50    2.80
   6   4  -6    6.00    3.20
  -6  -4   6    0.80    2.70
  -6  -4   6    6.30    3.30
   5   4  -6  114.79    8.90
   5   4  -6  114.89    9.10
  -5  -4   6  100.79    9.20
   4   4  -6  178.38   13.20
  -4  -4   6  171.68   11.40
  -4  -4   6  163.58   11.70
   3   4  -6   59.29    7.00
   3   4  -6   53.89    6.60
  -3  -4   6   40.80    6.30
  -3  -4   6   59.09    6.90
   2   4  -6   74.09    6.50
   2   4  -6   72.69    6.70
   2   4  -6   63.19    6.10
  -2  -4   6   58.29    8.20
   1   4  -6   21.70    4.10
   1   4  -6   32.20    4.90
   1   4  -6   23.60    4.70
  -1  -4   6   24.60    4.90
   0   4  -6   65.09    7.00
   0   4  -6   75.69    6.90
   0   4  -6   69.69    7.30
   0  -4   6   48.90    6.80
  -1   4  -6   37.30    5.50
  -1   4  -6   41.70    5.60
   1  -4   6   39.40    5.90
   1  -4   6   38.30    5.60
  -2   4  -6   25.10    4.90
  -2   4  -6   29.60    4.60
   2  -4   6   25.80    4.70
   2  -4   6   26.40    5.10
  -3   4  -6  218.88   12.50
  -3   4  -6  199.08   13.40
   3  -4   6  196.38   13.50
   3  -4   6  209.98   12.90
  -4   4  -6   24.80    5.50
  -4   4  -6   38.90    5.50
   4  -4   6   29.30    5.80
   4  -4   6   25.20    4.80
  -5   4  -6    6.40    2.70
  -5   4  -6    5.70    3.70
   5  -4   6    5.10    2.90
   5  -4   6   -2.10    3.00
  -6   4  -6   12.50    3.40
  -6   4  -6    8.90    5.00
   6  -4   6   10.80    3.40
   6  -4   6   10.30    4.80
   8   3  -6    7.10    3.40
   8   3  -6    6.90    3.40
  -8  -3   6   11.60    3.90
  -8  -3   6   12.20    4.40
   7   3  -6  120.99    9.80
   7   3  -6  137.39   10.20
  -7  -3   6  134.99   10.40
  -7  -3   6  133.29   10.40
   6   3  -6   58.39    7.20
   6   3  -6   54.79    6.70
  -6  -3   6   61.59    8.50
  -6  -3   6   48.20    6.80
   5   3  -6    1.60    1.80
   5   3  -6   -1.00    1.80
  -5  -3   6    2.00    2.50
   4   3  -6   17.80    3.90
   4   3  -6   19.80    4.00
  -4  -3   6   20.40    4.10
  -4  -3   6   18.90    4.20
   3   3  -6   41.90    5.40
   3   3  -6   40.70    5.50
  -3  -3   6   40.70    6.00
  -3  -3   6   42.20    5.60
   2   3  -6   43.60    5.70
   2   3  -6   42.80    5.50
   2   3  -6   41.70    5.30
  -2  -3   6   38.60    5.60
   1   3  -6   28.70    4.40
   1   3  -6   44.10    5.20
   1   3  -6   33.30    5.00
  -1  -3   6   25.80    4.50
   0   3  -6  265.67   14.90
   0   3  -6  255.67   14.90
   0   3  -6  274.17   14.70
   0  -3   6  280.47   15.40
  -1   3  -6  255.37   14.80
  -1   3  -6  267.07   14.70
   1  -3   6  263.27   15.10
   1  -3   6  290.47   15.40
  -2   3  -6    4.60    2.50
  -2   3  -6    1.10    2.40
   2  -3   6    1.80    4.00
   2  -3   6    3.30    2.20
  -3   3  -6  313.47   16.80
  -3   3  -6  341.57   18.20
   3  -3   6  301.27   17.00
   3  -3   6  328.97   18.20
  -4   3  -6  107.79    8.00
  -4   3  -6  114.99    9.30
   4  -3   6  121.09    8.60
   4  -3   6   99.99    9.00
  -5   3  -6   -0.30    3.00
  -5   3  -6    0.60    1.90
   5  -3   6    3.50    3.40
   5  -3   6    0.60    2.10
  -6   3  -6    8.50    4.30
  -6   3  -6   10.80    2.90
   6  -3   6   11.00    3.30
   8   2  -6   -1.60    2.40
   8   2  -6   -1.90    2.40
  -8  -2   6   -1.10    2.80
  -8  -2   6    0.70    2.60
   7   2  -6    3.00    2.60
   7   2  -6    0.50    2.40
  -7  -2   6    4.20    3.00
  -7  -2   6    5.60    3.20
   6   2  -6   16.80    3.60
  -6  -2   6   19.70    4.20
  -6  -2   6   29.20    5.10
   5   2  -6   21.80    3.80
   5   2  -6   21.30    4.00
  -5  -2   6   21.30    4.10
  -5  -2   6   23.90    4.60
   4   2  -6  193.68   11.00
   4   2  -6  178.08   11.10
  -4  -2   6  183.78   11.70
  -4  -2   6  164.98   10.80
   3   2  -6    0.00    1.60
   3   2  -6    2.70    1.90
  -3  -2   6    1.50    2.10
  -3  -2   6   -1.00    1.60
   2   2  -6   86.19    6.50
   2   2  -6   99.09    7.00
   2   2  -6   96.49    7.20
  -2  -2   6   82.89    7.10
   1   2  -6  725.93   33.10
   1   2  -6  717.23   33.50
   1   2  -6  730.73   32.90
  -1  -2   6  718.53   33.60
   0   2  -6   97.19    7.10
   0   2  -6   98.49    7.30
   0  -2   6  106.09    7.40
   0  -2   6   88.49    7.20
  -1   2  -6  308.47   15.80
  -1   2  -6  285.77   15.60
   1  -2   6  289.77   15.80
   1  -2   6  305.47   16.00
  -2   2  -6   29.20    4.70
  -2   2  -6   27.30    4.20
   2  -2   6   22.50    4.10
   2  -2   6   18.30    4.20
  -3   2  -6   11.60    3.60
  -3   2  -6   10.70    3.00
   3  -2   6   17.80    3.60
   3  -2   6   12.70    4.30
  -4   2  -6    8.80    2.90
  -4   2  -6    8.30    3.50
   4  -2   6    3.20    2.90
   4  -2   6   10.00    2.90
  -5   2  -6   27.20    5.60
  -5   2  -6   33.80    5.10
   5  -2   6   25.20    4.10
   5  -2   6   15.20    4.30
  -6   2  -6    2.60    3.60
  -6   2  -6    1.10    1.90
   6  -2   6    2.90    2.30
  -7   2  -6   11.20    3.00
  -7   2  -6    0.40    4.10
   7  -2   6    4.20    2.50
   7  -2   6    5.90    4.10
   8   1  -6    0.20    2.20
   8   1  -6   -1.60    2.30
  -8  -1   6   -0.90    2.50
  -8  -1   6   -0.30    2.10
   7   1  -6    7.50    3.20
   7   1  -6    6.50    2.80
  -7  -1   6    6.40    3.00
   6   1  -6   20.30    4.00
   6   1  -6   20.20    4.00
  -6  -1   6   14.30    3.60
  -6  -1   6   10.10    3.40
   5   1  -6   20.50    3.70
   5   1  -6   20.50    3.90
  -5  -1   6   24.50    4.10
  -5  -1   6   12.40    3.10
   4   1  -6  234.68   12.90
   4   1  -6  216.28   12.30
  -4  -1   6  233.18   12.50
  -4  -1   6  218.88   13.10
   3   1  -6   19.00    3.40
   3   1  -6   29.40    4.50
  -3  -1   6   19.20    3.30
  -3  -1   6   24.80    4.20
   2   1  -6   -0.40    1.50
   2   1  -6    1.30    1.90
  -2  -1   6    2.50    2.20
   1   1  -6   68.39    5.90
   1   1  -6   73.79    5.60
   1   1  -6   74.69    5.70
  -1  -1   6   81.89    6.40
   0   1  -6   15.50    3.30
   0   1  -6   10.90    2.70
   0  -1   6   12.90    3.20
   0  -1   6   10.50    2.80
  -1   1  -6  288.67   15.10
  -1   1  -6  295.87   14.90
   1  -1   6  287.47   15.20
   1  -1   6  275.67   14.90
  -2   1  -6   52.69    5.80
  -2   1  -6   49.40    5.60
   2  -1   6   60.99    6.30
   2  -1   6   43.30    5.20
  -3   1  -6    7.10    2.60
  -3   1  -6    3.80    2.60
   3  -1   6    6.70    3.00
   3  -1   6    6.40    2.50
  -4   1  -6    7.20    3.70
  -4   1  -6    3.40    2.20
   4  -1   6    1.50    2.10
   4  -1   6    4.20    2.80
  -5   1  -6   20.00    3.90
  -5   1  -6   31.10    5.80
   5  -1   6   23.30    4.00
   5  -1   6   17.90    4.30
  -6   1  -6   59.59    8.20
  -6   1  -6   93.69    6.80
   6  -1   6   87.29    6.80
  -7   1  -6   -1.80    3.00
  -7   1  -6    1.50    1.80
   7  -1   6    1.30    1.90
   8   0  -6   13.20    3.10
   8   0  -6    5.70    3.40
  -8   0   6   11.00    3.00
   7   0  -6   10.70    3.20
   7   0  -6   10.30    3.70
  -7   0   6   14.00    3.80
  -7   0   6   12.10    3.20
   6   0  -6   25.00    4.10
   6   0  -6   21.90    3.90
  -6   0   6   25.60    4.30
  -6   0   6   19.70    3.90
   5   0  -6   43.50    5.30
   5   0  -6   48.90    4.60
  -5   0   6   37.60    4.90
  -5   0   6   41.70    5.40
   4   0  -6  120.89    7.50
   4   0  -6  134.09    8.20
  -4   0   6  107.89    8.00
  -4   0   6  114.19    7.60
   3   0  -6  152.38    8.80
   3   0  -6  171.18    9.80
  -3   0   6  157.18    9.00
  -3   0   6  151.78    9.70
   2   0  -6  115.39    7.80
   2   0  -6  112.19    7.00
  -2   0   6  123.89    7.20
  -2   0   6  119.69    8.10
   1   0  -6  442.06   21.40
   1   0  -6  466.05   20.50
   1   0  -6  437.96   20.50
  -1   0   6  426.96   21.40
   0   0  -6  111.49    7.60
   0   0  -6  110.09    7.00
   0   0   6  115.59    7.10
   0   0   6  121.69    7.90
  -1   0  -6  697.33   30.60
  -1   0  -6  660.33   29.90
   1   0   6  661.33   30.00
   1   0   6  630.04   30.40
  -2   0  -6   61.09    5.50
  -2   0  -6   66.69    5.50
   2   0   6   58.59    5.40
   2   0   6   64.99    5.70
  -3   0  -6   31.70    4.60
  -3   0  -6   36.70    5.10
   3   0   6   41.60    5.10
   3   0   6   47.90    5.70
  -4   0  -6  136.39    8.90
  -4   0  -6  134.19    9.60
   4   0   6  137.59    9.50
   4   0   6  144.09    8.80
  -5   0  -6   46.60    5.70
  -5   0  -6   37.20    6.00
   5   0   6   45.20    6.30
  -6   0  -6   32.50    6.00
  -6   0  -6   33.70    4.80
   6   0   6   29.20    5.60
  -7   0  -6    2.50    3.20
  -7   0  -6   -0.40    1.60
   7   0   6    0.20    2.00
  -8   0  -6   -2.00    1.70
   8   0   6    0.50    2.10
   8   0   6   -2.50    3.80
   8  -1  -6   20.40    3.60
   8  -1  -6    8.40    3.40
  -8   1   6   14.40    4.10
  -8   1   6   10.10    2.50
   7  -1  -6    5.60    2.40
   7  -1  -6    2.80    2.40
  -7   1   6    3.50    2.10
  -7   1   6    3.40    2.70
   6  -1  -6    3.80    2.30
   6  -1  -6    1.00    1.90
  -6   1   6    1.60    1.80
  -6   1   6    0.90    1.60
   5  -1  -6   40.30    4.70
   5  -1  -6   38.40    4.40
  -5   1   6   32.60    4.40
  -5   1   6   39.60    5.00
   4  -1  -6    4.50    2.00
   4  -1  -6    1.00    1.40
  -4   1   6    0.70    1.50
  -4   1   6    2.70    2.20
   3  -1  -6   43.50    3.50
   3  -1  -6   38.60    4.80
  -3   1   6   39.80    5.00
  -3   1   6   37.40    3.60
   2  -1  -6  208.58   11.50
   2  -1  -6  210.68   10.30
  -2   1   6  208.08   11.60
  -2   1   6  208.18   10.40
   1  -1  -6  118.29    6.70
   1  -1  -6  120.79    6.60
   1  -1  -6  119.29    7.70
  -1   1   6  121.49    8.00
   0  -1  -6   16.20    3.20
   0  -1  -6   22.50    3.30
   0   1   6   18.00    2.80
   0   1   6   16.80    3.30
  -1  -1  -6  707.33   30.70
  -1  -1  -6  666.73   31.30
   1   1   6  680.63   31.40
   1   1   6  699.13   30.60
  -2  -1  -6  310.87   16.30
  -2  -1  -6  327.77   16.10
   2   1   6  320.47   16.00
   2   1   6  333.47   16.50
  -3  -1  -6    0.20    1.70
  -3  -1  -6    1.80    2.20
   3   1   6    3.10    2.20
   3   1   6    1.60    1.70
  -4  -1  -6   16.50    3.40
  -4  -1  -6   22.00    4.40
   4   1   6   16.70    3.40
   4   1   6   20.20    4.10
  -5  -1  -6  110.59    7.60
  -5  -1  -6  120.49   10.00
   5   1   6  104.39    7.40
   5   1   6   92.59    8.10
  -6  -1  -6    2.10    2.80
  -6  -1  -6   -1.70    1.50
   6   1   6   -1.40    1.70
   6   1   6    0.50    2.40
  -7  -1  -6    0.30    1.90
  -7  -1  -6    7.10    3.90
   7   1   6   -2.50    1.70
  -8  -1  -6   63.49    5.60
  -8  -1  -6   68.99    9.40
   8   1   6   48.10    5.40
   8  -2  -6   59.59    4.70
   8  -2  -6   52.09    6.70
  -8   2   6   70.99    8.20
   7  -2  -6   10.30    2.60
   7  -2  -6    4.50    3.20
  -7   2   6    8.00    3.30
  -7   2   6    6.00    2.20
   6  -2  -6    3.30    2.40
   6  -2  -6    2.00    1.70
  -6   2   6    2.00    1.80
  -6   2   6    0.10    2.10
   5  -2  -6    5.30    2.10
   5  -2  -6    3.80    2.10
  -5   2   6    2.30    1.90
  -5   2   6    4.40    2.20
   4  -2  -6   45.20    3.90
   4  -2  -6   47.90    4.50
  -4   2   6   44.10    4.00
  -4   2   6   53.09    4.80
   3  -2  -6   16.20    3.10
   3  -2  -6   14.80    2.20
  -3   2   6    6.60    1.70
  -3   2   6   15.50    3.00
   2  -2  -6    0.70    1.70
   2  -2  -6   -0.50    1.00
  -2   2   6   -0.40    1.10
  -2   2   6   -1.40    1.50
   1  -2  -6  134.49    6.80
   1  -2  -6  137.89    6.70
   1  -2  -6  140.29    8.40
  -1   2   6  129.79    8.30
   0  -2  -6  186.78    9.00
   0  -2  -6  183.68   10.50
   0   2   6  182.78    9.00
   0   2   6  178.58   10.40
  -1  -2  -6  629.04   28.00
   1   2   6  627.84   28.00
   1   2   6  564.74   26.50
  -2  -2  -6  851.91   38.30
  -2  -2  -6  835.12   37.30
   2   2   6  871.31   37.40
   2   2   6  839.22   38.10
  -3  -2  -6   84.59    6.60
  -3  -2  -6   90.29    6.60
   3   2   6   98.99    6.80
   3   2   6   87.49    6.50
  -4  -2  -6   13.10    3.30
  -4  -2  -6    9.50    2.80
   4   2   6   13.60    3.30
   4   2   6   13.20    3.10
  -5  -2  -6   -0.90    2.10
  -5  -2  -6    2.90    2.00
   5   2   6    0.50    1.90
  -6  -2  -6   83.29    9.10
  -6  -2  -6   74.19    6.30
   6   2   6   74.69    6.20
   6   2   6   68.99    8.00
  -7  -2  -6   61.49    5.80
  -7  -2  -6   39.50    7.00
   7   2   6   63.29    7.90
   7   2   6   65.49    6.60
  -8  -2  -6   12.50    3.30
  -8  -2  -6    4.80    3.80
   8   2   6   11.70    3.10
  -8   3   6    0.70    2.60
   7  -3  -6   -1.20    2.40
   7  -3  -6    0.40    1.70
  -7   3   6    2.90    2.50
  -7   3   6   -0.20    1.50
   6  -3  -6    2.90    2.30
   6  -3  -6    0.80    1.60
  -6   3   6    0.90    1.80
  -6   3   6    0.90    1.60
   5  -3  -6    0.90    1.50
   5  -3  -6   -0.20    1.80
  -5   3   6    0.00    1.50
  -5   3   6   -0.60    1.50
   4  -3  -6   13.80    3.00
   4  -3  -6   10.60    2.20
  -4   3   6    7.20    2.40
  -4   3   6    7.10    2.00
   3  -3  -6   49.20    4.70
   3  -3  -6   64.39    3.80
  -3   3   6   52.29    3.70
  -3   3   6   52.39    4.80
   2  -3  -6    4.80    1.00
   2  -3  -6    4.30    2.10
  -2   3   6    4.20    2.10
   1  -3  -6  292.27   14.70
  -1   3   6  277.27   14.60
   0  -3  -6  342.27   15.00
   0  -3  -6  360.36   17.30
   0   3   6  345.07   15.00
   0   3   6  320.17   16.90
  -1  -3  -6  111.89    6.20
  -1  -3  -6  112.79    7.60
   1   3   6  106.39    7.40
   1   3   6  108.39    6.70
  -2  -3  -6  118.29    7.20
  -2  -3  -6  122.29    8.10
   2   3   6  124.99    7.20
   2   3   6  125.79    8.10
  -3  -3  -6  185.58   10.50
  -3  -3  -6  179.98   10.90
   3   3   6  181.88   10.30
   3   3   6  197.08   11.00
  -4  -3  -6   65.89    5.80
  -4  -3  -6   59.09    6.40
   4   3   6   59.29    5.50
   4   3   6   59.69    5.50
  -5  -3  -6   20.50    4.30
  -5  -3  -6   30.30    4.50
   5   3   6   19.90    3.80
   5   3   6   18.60    4.20
  -6  -3  -6   50.29    7.10
  -6  -3  -6   63.29    7.00
   6   3   6   65.59    7.60
   6   3   6   54.69    6.40
  -7  -3  -6   70.19    8.50
  -7  -3  -6   75.89    6.60
   7   3   6   70.99    8.40
   7   3   6   67.19    6.30
  -8  -3  -6    1.70    3.30
   8   3   6    2.60    2.40
  -9  -3  -6   14.70    3.70
  -9  -3  -6   11.90    4.90
   9   3   6   12.50    3.40
   7  -4  -6    3.20    2.90
  -7   4   6    4.30    2.90
   6  -4  -6    1.80    2.30
   6  -4  -6   13.70    2.50
  -6   4   6    6.60    2.10
  -6   4   6   10.50    3.00
   5  -4  -6   45.80    4.50
   5  -4  -6   48.80    4.40
  -5   4   6   47.80    4.40
  -5   4   6   42.90    4.60
   4  -4  -6    0.00    1.50
   4  -4  -6    2.00    1.60
  -4   4   6   -1.00    1.60
  -4   4   6    1.80    1.70
   3  -4  -6   46.50    5.20
  -3   4   6   38.40    2.90
  -3   4   6   38.40    4.50
   2  -4  -6   47.30    5.20
  -2   4   6   44.20    5.00
   1  -4  -6   58.49    5.10
  -1   4   6   51.99    4.90
   0  -4  -6    7.40    2.40
   0   4   6   10.60    2.70
  -1  -4  -6   50.79    3.40
  -1  -4  -6   49.90    5.60
   1   4   6   43.10    5.10
   1   4   6   48.40    3.30
  -2  -4  -6   84.19    6.70
  -2  -4  -6   92.39    5.60
   2   4   6   82.09    6.50
   2   4   6   78.79    5.40
  -3  -4  -6   26.80    4.20
  -3  -4  -6   31.80    4.30
   3   4   6   32.70    4.90
   3   4   6   36.30    4.50
  -4  -4  -6  108.69    7.80
  -4  -4  -6   98.69    7.30
   4   4   6  108.79    7.80
   4   4   6  104.19    7.40
  -5  -4  -6   56.99    6.90
  -5  -4  -6   51.29    6.30
   5   4   6   44.70    5.80
   5   4   6   55.79    6.70
  -6  -4  -6    9.60    3.50
  -6  -4  -6    1.20    2.00
   6   4   6    7.00    2.80
   6   4   6    5.90    3.10
  -7  -4  -6   19.70    4.80
  -7  -4  -6   32.30    5.10
   7   4   6   27.80    4.70
   7   4   6   31.00    5.80
  -8  -4  -6    0.60    2.20
  -8  -4  -6   -0.20    3.10
   8   4   6    2.90    2.30
  -9  -4  -6   17.70    4.10
   9   4   6   16.20    5.00
   7  -5  -6   -0.80    2.70
  -7   5   6    1.30    2.60
   6  -5  -6   44.60    3.70
  -6   5   6   50.49    5.60
  -6   5   6   42.90    3.70
   5  -5  -6   60.29    5.00
   5  -5  -6   53.79    4.60
  -5   5   6   61.89    5.00
  -5   5   6   48.70    4.50
   4  -5  -6   12.20    2.60
   4  -5  -6   12.90    2.50
  -4   5   6   12.70    2.60
  -4   5   6   13.50    2.40
   3  -5  -6    3.70    2.10
   3  -5  -6    4.20    1.40
  -3   5   6    5.10    2.10
  -3   5   6    4.30    1.30
   2  -5  -6    5.10    2.20
  -2   5   6    2.80    2.00
   1  -5  -6   84.69    6.40
  -1   5   6   83.39    6.30
   0  -5  -6  119.49    8.20
   0   5   6  127.29    8.20
  -1  -5  -6  131.09    8.70
  -1  -5  -6  126.09    6.60
   1   5   6  140.79    8.70
   1   5   6  129.39    6.60
  -2  -5  -6  194.98   10.10
  -2  -5  -6  206.38   11.90
   2   5   6  192.98   10.10
   2   5   6  198.88   11.60
  -3  -5  -6  713.03   33.50
  -3  -5  -6  734.93   32.40
   3   5   6  717.63   33.50
   3   5   6  709.83   32.20
  -4  -5  -6    1.20    1.90
  -4  -5  -6    3.60    2.30
   4   5   6    2.10    1.90
   4   5   6    3.00    2.10
  -5  -5  -6  101.89    8.30
  -5  -5  -6  120.29    8.50
   5   5   6  118.09    8.30
   5   5   6  113.89    8.50
  -6  -5  -6   50.09    6.30
  -6  -5  -6   30.10    6.90
   6   5   6   37.80    5.50
   6   5   6   33.00    5.60
  -7  -5  -6   38.80    6.40
  -7  -5  -6   35.80    5.60
   7   5   6   44.80    6.70
   7   5   6   24.90    4.60
  -8  -5  -6    7.20    4.40
  -8  -5  -6   11.50    3.50
   8   5   6    8.30    3.30
   8   5   6    5.80    3.60
  -9  -5  -6   22.10    4.80
   9   5   6   31.60    5.60
   6  -6  -6   10.70    3.40
  -6   6   6   16.80    3.70
   5  -6  -6    2.20    2.30
   5  -6  -6    3.90    1.80
  -5   6   6    1.40    1.70
  -5   6   6    4.20    2.20
   4  -6  -6    0.20    1.70
   4  -6  -6   -2.00    1.50
  -4   6   6    0.00    1.30
  -4   6   6    1.30    1.70
   3  -6  -6   36.30    4.70
  -3   6   6   37.00    3.00
  -3   6   6   35.50    4.30
   2  -6  -6   49.10    5.50
  -2   6   6   48.00    3.00
  -2   6   6   55.19    4.90
  -2   6   6   47.90    2.90
   1  -6  -6   42.60    5.50
  -1   6   6   38.40    4.90
   0  -6  -6  110.29    8.00
   0   6   6  112.89    7.90
   0   6   6  118.59    5.60
   0   6   6  113.49    5.50
  -1  -6  -6    2.40    1.30
  -1  -6  -6    4.00    2.20
   1   6   6    0.70    1.60
   1   6   6    1.30    1.20
  -2  -6  -6   23.20    3.10
  -2  -6  -6   26.30    4.60
   2   6   6   16.00    3.40
   2   6   6   21.10    3.10
  -3  -6  -6   29.10    5.20
  -3  -6  -6   16.60    3.10
   3   6   6   22.50    4.40
   3   6   6   24.20    3.70
  -4  -6  -6   67.49    7.80
  -4  -6  -6   69.19    7.20
   4   6   6   60.59    5.50
   4   6   6   52.79    6.50
  -5  -6  -6   14.70    3.80
  -5  -6  -6    7.50    3.10
   5   6   6   20.20    4.20
   5   6   6    9.60    3.10
  -6  -6  -6   31.50    7.10
  -6  -6  -6   12.30    3.70
   6   6   6   23.30    4.60
  -7  -6  -6  215.48   14.20
   7   6   6  238.88   14.10
   7   6   6  209.28   14.00
  -8  -6  -6    0.80    3.10
  -8  -6  -6    0.40    2.30
   8   6   6    2.50    3.60
   8   6   6    1.10    2.50
  -9  -6  -6   24.50    5.20
  -9  -6  -6   32.60    8.20
   9   6   6   10.60    4.80
   9   6   6   21.70    5.20
   6  -7  -6    0.90    2.70
  -6   7   6    3.90    2.80
   5  -7  -6   79.89    5.50
  -5   7   6   63.59    5.10
  -5   7   6   80.89    6.10
   4  -7  -6   13.80    2.90
   4  -7  -6   14.40    2.90
  -4   7   6   10.50    2.70
  -4   7   6   13.50    2.70
   3  -7  -6   18.40    3.40
  -3   7   6   20.60    3.50
  -3   7   6   14.80    2.90
   2  -7  -6   67.29    6.10
  -2   7   6   72.19    5.90
  -2   7   6   78.09    4.60
  -2   7   6   75.79    4.50
   1  -7  -6    6.20    2.70
  -1   7   6    7.50    2.50
  -1   7   6    9.70    1.60
  -1   7   6    6.60    1.40
   0  -7  -6    0.80    1.80
   0   7   6    0.70    1.20
   0   7   6    2.30    1.90
   0   7   6   -0.10    0.90
  -1  -7  -6   13.80    2.30
  -1  -7  -6   11.80    3.30
   1   7   6   12.50    2.20
   1   7   6    8.90    3.00
  -2  -7  -6   22.20    4.20
  -2  -7  -6   18.50    3.10
   2   7   6   22.70    3.30
   2   7   6   20.70    4.00
  -3  -7  -6    1.10    1.70
  -3  -7  -6   -0.30    2.00
   3   7   6   -0.20    1.90
   3   7   6   -1.40    1.50
  -4  -7  -6    2.50    2.60
  -4  -7  -6    1.30    1.90
   4   7   6    1.50    1.90
   4   7   6    0.50    2.00
  -5  -7  -6  123.69    9.40
  -5  -7  -6  116.99    8.60
   5   7   6  103.79    8.20
   5   7   6  125.19    9.40
  -6  -7  -6   22.40    5.20
  -6  -7  -6   24.40    5.20
   6   7   6   13.50    4.00
   6   7   6   15.00    4.00
  -7  -7  -6   97.29    8.70
  -7  -7  -6   99.89    8.80
   7   7   6   93.99    8.60
   7   7   6   97.99    8.50
  -8  -7  -6   23.30    5.20
  -8  -7  -6   29.00    5.80
   8   7   6   18.00    4.90
   8   7   6   25.30    5.20
  -9  -7  -6   -1.40    2.70
  -9  -7  -6    3.40    7.00
   9   7   6   -0.20    2.40
   9   7   6   -0.40    3.00
   5  -8  -6   17.10    3.70
  -5   8   6    6.40    2.10
  -5   8   6   17.20    2.90
  -5   8   6   16.40    3.40
   4  -8  -6   70.59    5.80
   4  -8  -6   56.49    5.30
  -4   8   6   69.99    5.30
  -4   8   6   59.29    5.30
   3  -8  -6    5.90    2.50
  -3   8   6   10.90    2.30
  -3   8   6   10.10    2.40
  -3   8   6    7.60    2.70
   2  -8  -6   77.69    6.50
  -2   8   6   50.09    4.30
  -2   8   6   74.59    6.00
  -2   8   6   76.69    4.80
   1  -8  -6    2.60    2.00
  -1   8   6   -0.30    1.50
  -1   8   6    2.10    1.50
  -1   8   6    2.10    1.40
   0  -8  -6   51.19    6.40
   0   8   6   55.19    4.00
   0   8   6   57.69    6.70
  -1  -8  -6    8.40    3.10
  -1  -8  -6   14.80    2.70
   1   8   6    9.00    2.10
   1   8   6   13.20    3.80
  -2  -8  -6   -1.80    1.60
  -2  -8  -6   -0.90    1.50
   2   8   6   -0.10    1.60
   2   8   6    0.60    1.70
  -3  -8  -6   42.90    6.20
  -3  -8  -6   49.80    4.70
   3   8   6   51.89    5.60
  -4  -8  -6   29.70    4.60
  -4  -8  -6   25.30    5.70
   4   8   6   28.70    4.60
   4   8   6   18.50    4.20
  -5  -8  -6   78.89    8.90
  -5  -8  -6   72.79    6.80
   5   8   6   83.39    7.70
   5   8   6   67.29    6.50
  -6  -8  -6   21.20    4.80
  -6  -8  -6   21.00    4.80
   6   8   6   33.30    5.80
   6   8   6   24.00    5.00
  -7  -8  -6   18.00    4.90
  -7  -8  -6   28.00    5.90
   7   8   6   26.30    5.30
   7   8   6   23.60    5.10
  -8  -8  -6    1.90    2.80
  -8  -8  -6   -0.20    2.70
   8   8   6    3.60    3.50
   8   8   6   -1.90    2.60
  -9  -8  -6   79.29    9.50
   9   8   6   65.09    9.40
   9   8   6   62.39    8.60
  -4   9   6   -0.70    2.00
  -4   9   6    3.10    2.20
   3  -9  -6    1.60    2.50
  -3   9   6    1.70    2.10
  -3   9   6    5.60    2.10
  -3   9   6    3.10    1.90
   2  -9  -6    1.60    2.20
  -2   9   6   -0.90    1.50
  -2   9   6    0.10    1.60
  -2   9   6   -0.30    1.60
   1  -9  -6    5.80    2.70
  -1   9   6    6.00    2.10
  -1   9   6    6.60    2.10
  -1   9   6    3.10    2.10
   0  -9  -6   88.79    7.50
   0   9   6   72.69    5.40
   0   9   6   69.99    6.80
   0   9   6   81.59    5.40
  -1  -9  -6   38.80    5.80
   1   9   6   43.10    3.90
  -2  -9  -6    2.20    1.80
  -2  -9  -6   -0.20    2.00
   2   9   6    1.90    1.70
   2   9   6    2.20    2.40
  -3  -9  -6   90.39    8.20
  -3  -9  -6   89.09    6.80
   3   9   6   86.09    8.00
   3   9   6   95.59    6.90
  -4  -9  -6   41.90    6.50
  -4  -9  -6   41.50    5.60
   4   9   6   25.40    5.30
   4   9   6   30.90    4.90
  -5  -9  -6  138.99    9.70
  -5  -9  -6  152.18   11.20
   5   9   6  110.99   10.10
   5   9   6  134.69   10.50
  -6  -9  -6    2.90    2.90
  -6  -9  -6    3.30    2.80
   6   9   6    0.60    2.30
   6   9   6    6.60    3.50
  -7  -9  -6   49.80    7.60
  -7  -9  -6   50.69    7.60
   7   9   6   40.00    6.70
   7   9   6   46.30    7.20
  -8  -9  -6    7.10    4.00
  -8  -9  -6    1.20    3.50
   8   9   6   11.20    4.30
   8   9   6    6.10    3.80
  -4  10   6   -1.30    2.40
  -4  10   6    1.60    2.40
  -4  10   6   -0.70    1.80
  -4  10   6   -0.20    2.20
  -3  10   6    6.90    2.40
  -3  10   6    5.60    2.60
  -3  10   6    5.10    2.70
  -3  10   6    7.60    2.90
   2 -10  -6   17.50    4.20
  -2  10   6   21.70    3.60
  -2  10   6   21.00    3.30
  -2  10   6   35.50    5.50
   1 -10  -6    0.90    2.50
  -1  10   6   -0.30    1.90
  -1  10   6    3.20    2.10
  -1  10   6    5.20    2.30
   0 -10  -6   84.49   10.50
   0  10   6   64.99    5.20
   0  10   6   74.09    8.30
   0  10   6   61.29    5.40
  -1 -10  -6   37.40    6.40
   1  10   6   62.69    8.10
   1  10   6   45.40    5.30
   1  10   6   53.19    5.80
  -2 -10  -6    9.50    2.90
  -2 -10  -6    6.30    3.30
   2  10   6    6.60    3.40
   2  10   6    5.60    2.30
  -3 -10  -6    1.70    2.20
  -3 -10  -6   -0.50    2.00
   3  10   6   -0.50    1.90
   3  10   6    1.90    2.70
  -4 -10  -6    2.60    2.60
  -4 -10  -6    2.80    3.20
   4  10   6    5.00    3.00
   4  10   6    5.20    3.00
  -5 -10  -6   10.30    4.00
   5  10   6   11.60    3.80
   5  10   6    3.60    3.10
  -6 -10  -6  108.49   10.10
  -6 -10  -6  103.19    9.10
   6  10   6  108.49    9.80
   6  10   6  110.59    9.10
  -7 -10  -6   55.49    7.90
  -7 -10  -6   47.80    7.70
   7  10   6   43.60    7.00
   7  10   6   27.90    6.20
  -8 -10  -6    2.50    3.40
  -8 -10  -6    3.90    3.50
   8  10   6   -0.10    3.60
   8  10   6   -2.40    3.20
  -3  11   6    9.90    3.60
  -3  11   6    5.10    3.00
  -3  11   6    8.40    3.90
  -3  11   6    4.20    2.60
  -2  11   6   32.70    4.70
  -2  11   6   37.30    5.80
  -2  11   6   29.50    4.20
  -1  11   6    2.10    2.00
  -1  11   6    0.80    2.40
  -1  11   6   -0.20    2.20
   0 -11  -6   15.10    4.40
   0  11   6   15.80    4.20
   0  11   6    4.60    2.10
   0  11   6    9.80    3.10
  -1 -11  -6   31.80    6.00
   1  11   6   39.50    5.00
   1  11   6   37.70    5.40
   1  11   6   36.70    6.00
  -2 -11  -6    4.00    3.40
  -2 -11  -6   -1.50    2.00
   2  11   6    4.50    3.30
   2  11   6    2.40    2.20
  -3 -11  -6   18.50    5.00
  -3 -11  -6   18.20    4.10
   3  11   6   16.70    4.90
   3  11   6   19.00    4.10
  -4 -11  -6    6.60    3.60
  -4 -11  -6    3.40    2.90
   4  11   6    9.00    3.50
   4  11   6    5.80    3.30
  -5 -11  -6   15.50    4.30
  -5 -11  -6    3.60    3.60
   5  11   6   -1.70    1.90
   5  11   6    6.90    3.50
  -6 -11  -6   91.89    8.90
  -6 -11  -6  116.49   12.60
   6  11   6  125.59   13.50
   6  11   6   92.59    8.70
  -7 -11  -6   12.40    4.80
  -7 -11  -6    7.20    4.40
   7  11   6    9.00    4.10
  -8 -11  -6   18.90    5.40
   8  11   6   20.70    5.70
   8  11   6   19.10    5.80
   8  11   6   14.20    5.60
  -1  12   6    3.30    2.40
  -1  12   6    2.20    2.90
  -1  12   6    1.30    2.50
  -1  12   6    4.20    2.90
   0  12   6    3.10    2.40
   0  12   6    0.90    2.50
   0  12   6    4.20    2.90
   0  12   6    1.90    3.00
   1  12   6   17.70    4.20
   1  12   6   14.80    4.80
   1  12   6   11.10    3.30
  -2 -12  -6    3.10    3.40
   2  12   6    9.00    4.00
   2  12   6    7.30    3.10
   2  12   6    1.80    2.30
  -3 -12  -6   23.00    5.10
  -3 -12  -6   29.70    6.30
   3  12   6   24.40    6.00
   3  12   6   34.10    5.50
  -4 -12  -6   20.30    4.80
  -4 -12  -6   19.50    5.30
   4  12   6   25.10    5.20
   4  12   6   15.60    4.90
  -5 -12  -6   17.60    5.50
  -5 -12  -6   28.30    5.70
   5  12   6   30.70    6.10
  -6 -12  -6    7.80    4.20
   6  12   6    2.30    3.20
  -7 -12  -6    2.60    3.10
   7  12   6    5.80    3.90
   7  12   6    2.20    3.60
   7  12   6    6.90    4.10
   0  13   6   -2.10    2.50
   0  13   6    2.70    3.10
   0  13   6   -2.30    2.50
   1  13   6   -1.80    2.40
   1  13   6    0.50    2.50
   1  13   6   -0.80    2.60
   1  13   6   -2.90    2.50
   2  13   6    4.40    3.00
   2  13   6    7.00    4.00
   2  13   6    2.20    3.50
   2  13   6    4.70    3.80
  -3 -13  -6   39.90    6.80
   3  13   6   26.60    5.50
   3  13   6   26.00    6.20
   3  13   6   23.00    5.90
  -4 -13  -6    9.90    4.00
   4  13   6   10.70    4.10
   4  13   6    3.10    3.60
  -5 -13  -6    4.10    3.70
   5  13   6   12.30    4.40
  -6 -13  -6    2.50    3.30
   6  13   6   -1.00    3.20
   6  13   6    0.80    3.20
   6  13   6    0.40    2.90
   3   9  -7   32.80    6.80
   3   9  -7   32.60    7.20
   3   9  -7   29.40    6.80
  -3  -9   7   22.20    5.90
   2   9  -7    2.10    3.50
   2   9  -7   -0.10    3.70
   2   9  -7   -0.30    3.40
  -2  -9   7    1.20    3.40
   5   8  -7   -1.50    3.40
   5   8  -7    6.40    4.60
   5   8  -7    0.10    2.80
  -5  -8   7    0.10    3.70
   4   8  -7    8.30    4.40
   4   8  -7   -4.80    2.80
   3   8  -7   63.09    8.70
   3   8  -7   85.49    9.70
   2   8  -7    6.00    3.70
   2   8  -7    6.50    3.90
   1   8  -7   49.00    7.80
   1   8  -7   54.59    7.90
   0   8  -7   77.59   10.10
   0   8  -7   78.99    9.30
   0  -8   7   55.29    8.70
  -1   8  -7   24.60    5.90
  -1   8  -7   26.80    5.40
   1  -8   7   25.70    6.10
   6   7  -7    4.70    3.80
  -6  -7   7   10.70    4.80
  -6  -7   7   -2.10    5.70
   5   7  -7    0.00    2.90
   5   7  -7   -1.80    2.60
  -5  -7   7   -2.10    3.00
  -5  -7   7   -2.30    2.60
   4   7  -7   -0.20    2.80
   4   7  -7   -1.70    2.90
   4   7  -7   -2.50    2.50
   3   7  -7   97.99    9.20
   3   7  -7  106.49    9.20
   3   7  -7   73.39    9.00
   2   7  -7   17.80    4.70
   2   7  -7   13.40    4.50
   2   7  -7   13.50    4.50
  -2  -7   7   10.00    4.20
   1   7  -7   25.50    5.70
   1   7  -7   35.40    6.30
   1   7  -7   27.80    5.50
  -1  -7   7   31.70    6.70
   0   7  -7    3.20    3.10
   0   7  -7    6.20    3.90
   0   7  -7    1.70    3.10
   0  -7   7   -0.20    3.10
  -1   7  -7   -1.20    2.40
  -1   7  -7   -0.50    3.20
   1  -7   7    1.20    2.80
  -2   7  -7   -0.10    4.30
  -2   7  -7    0.00    2.90
   2  -7   7   -2.10    2.90
   7   6  -7   -0.90    2.80
  -7  -6   7   -0.80    3.10
  -7  -6   7    3.50    3.90
   6   6  -7   20.00    5.10
   6   6  -7   21.30    5.70
  -6  -6   7   19.60    5.50
  -6  -6   7   27.60    6.00
   5   6  -7    9.60    4.00
   5   6  -7   20.10    5.20
  -5  -6   7   19.80    5.70
  -5  -6   7   11.00    4.30
   4   6  -7    1.60    2.80
   4   6  -7   -1.90    2.20
   4   6  -7   -0.10    2.40
  -4  -6   7   -0.90    2.90
   3   6  -7    4.90    3.30
   3   6  -7    1.70    2.50
   3   6  -7    0.00    2.50
  -3  -6   7    1.50    2.60
   2   6  -7    4.90    3.00
   2   6  -7    1.80    2.70
   2   6  -7    6.80    3.40
  -2  -6   7    3.60    3.00
   1   6  -7   32.30    5.60
   1   6  -7   35.40    6.30
   1   6  -7   17.30    4.60
  -1  -6   7   24.50    5.60
   0   6  -7   10.30    3.30
   0   6  -7   15.10    4.90
   0   6  -7   11.90    4.00
   0  -6   7   10.20    3.90
  -1   6  -7   16.60    4.80
  -1   6  -7   16.60    4.50
  -1   6  -7    7.20    3.90
   1  -6   7   12.90    4.30
  -2   6  -7   55.89    7.20
  -2   6  -7   50.79    7.50
   2  -6   7   46.40    7.20
  -3   6  -7   16.40    4.80
  -3   6  -7   21.90    4.60
   3  -6   7   25.20    5.50
  -4   6  -7    7.20    3.50
   4  -6   7    1.10    3.30
   7   5  -7   22.10    5.70
   7   5  -7   13.60    4.20
  -7  -5   7   35.50    6.60
  -7  -5   7   19.20    5.40
   6   5  -7    9.40    4.10
   6   5  -7   10.50    3.90
  -6  -5   7    8.20    4.10
  -6  -5   7    6.20    3.70
   5   5  -7    5.00    3.50
   5   5  -7   -1.30    2.30
  -5  -5   7   -0.10    2.60
  -5  -5   7    3.00    3.10
   4   5  -7  155.78   11.30
   4   5  -7  143.09   11.20
  -4  -5   7  162.78   12.30
  -4  -5   7  158.68   11.50
   3   5  -7    4.20    2.70
   3   5  -7    1.60    2.30
   3   5  -7    0.10    2.40
  -3  -5   7    0.50    2.30
   2   5  -7   81.19    7.60
   2   5  -7   81.69    7.70
   2   5  -7   80.19    7.40
  -2  -5   7   68.19    8.60
   1   5  -7   62.69    7.50
   1   5  -7   67.69    7.60
   1   5  -7   81.39    7.50
  -1  -5   7   55.29    7.70
   0   5  -7   33.80    5.90
   0   5  -7   30.80    5.40
   0   5  -7   23.70    4.70
   0  -5   7   22.00    4.90
  -1   5  -7   -1.90    2.70
  -1   5  -7    2.60    2.60
   1  -5   7    2.00    2.60
  -2   5  -7    2.40    2.40
  -2   5  -7    7.50    3.80
   2  -5   7    2.10    3.30
   2  -5   7    0.70    2.50
  -3   5  -7   12.50    4.30
  -3   5  -7   30.60    5.30
   3  -5   7   19.90    4.80
  -4   5  -7   51.69    6.90
  -4   5  -7   46.80    7.50
   4  -5   7   63.49    8.00
   8   4  -7    1.20    3.00
   8   4  -7    3.80    3.40
  -8  -4   7    6.50    3.90
  -8  -4   7    2.60    3.40
   7   4  -7   39.70    6.50
   7   4  -7   25.30    5.30
  -7  -4   7   35.20    6.50
  -7  -4   7   36.90    6.70
   6   4  -7   15.90    4.80
   6   4  -7   13.60    4.30
  -6  -4   7   19.30    4.70
  -6  -4   7   14.90    4.80
   5   4  -7   35.80    5.80
   5   4  -7   42.80    6.10
  -5  -4   7   33.40    6.30
  -5  -4   7   22.30    4.80
   4   4  -7    2.00    2.40
   4   4  -7    3.20    2.80
  -4  -4   7    4.30    4.40
  -4  -4   7    1.10    2.60
   3   4  -7  103.79    8.50
   3   4  -7  119.09    8.60
   3   4  -7  112.89    9.00
  -3  -4   7  103.19    9.30
   2   4  -7  149.49    9.90
   2   4  -7  156.58   10.50
   2   4  -7  139.29   10.30
  -2  -4   7  132.59   10.60
   1   4  -7    2.70    2.70
   1   4  -7    7.60    3.10
   1   4  -7    7.30    3.50
  -1  -4   7    6.90    3.20
   0   4  -7   22.60    4.60
   0   4  -7   31.00    6.60
   0   4  -7   18.70    5.70
   0  -4   7   26.00    5.10
  -1   4  -7    1.20    2.40
  -1   4  -7    1.20    2.30
   1  -4   7   -1.30    2.40
   1  -4   7    0.70    2.20
  -2   4  -7   -1.50    2.60
  -2   4  -7    0.70    2.20
   2  -4   7    1.70    2.40
   2  -4   7    2.30    3.00
  -3   4  -7    1.10    3.00
  -3   4  -7    4.00    2.90
   3  -4   7    3.90    3.30
   3  -4   7    1.80    2.50
  -4   4  -7    0.50    3.10
  -4   4  -7    1.80    2.40
  -5   4  -7   93.79   11.00
  -5   4  -7   98.59    8.10
   5  -4   7   88.19    8.40
   8   3  -7    0.10    2.50
   8   3  -7   -1.60    2.90
  -8  -3   7    0.00    3.10
  -8  -3   7    0.50    2.70
   7   3  -7  105.69    8.90
  -7  -3   7  103.39    9.60
  -7  -3   7   96.69    9.10
   6   3  -7   38.10    6.10
  -6  -3   7   53.19    7.20
  -6  -3   7   51.99    7.30
   5   3  -7    1.80    2.20
   5   3  -7    4.50    2.90
  -5  -3   7    6.50    3.70
  -5  -3   7    1.90    2.80
   4   3  -7   -2.00    2.20
   4   3  -7    0.20    1.80
  -4  -3   7    2.10    2.60
  -4  -3   7   -1.20    1.70
   3   3  -7   -2.00    1.80
   3   3  -7    3.80    2.50
  -3  -3   7    7.00    3.00
   2   3  -7   31.20    4.70
   2   3  -7   28.30    4.70
   2   3  -7   32.40    4.90
  -2  -3   7   30.10    5.70
   1   3  -7    1.50    2.30
   1   3  -7    1.80    2.20
   1   3  -7    0.50    2.20
  -1  -3   7    4.50    3.10
   0   3  -7   13.60    3.30
   0   3  -7   14.50    3.70
   0   3  -7   17.80    4.10
   0  -3   7   16.40    4.20
  -1   3  -7    6.20    3.00
  -1   3  -7    0.60    1.90
   1  -3   7    3.50    2.90
   1  -3   7    1.90    2.40
  -2   3  -7   47.40    6.20
  -2   3  -7   66.29    7.40
   2  -3   7   43.30    6.30
   2  -3   7   55.49    6.90
  -3   3  -7   61.79    6.90
  -3   3  -7   47.60    6.90
   3  -3   7   51.99    6.80
   3  -3   7   50.09    7.10
  -4   3  -7   38.30    5.40
  -4   3  -7   36.90    6.10
   4  -3   7   31.70    5.90
   4  -3   7   26.30    4.80
  -5   3  -7   48.40    6.40
  -5   3  -7   41.40    7.10
   5  -3   7   40.70    5.70
  -6   3  -7    0.10    2.30
   6  -3   7   -0.20    2.40
   8   2  -7    0.10    2.70
   8   2  -7    1.40    2.60
  -8  -2   7    2.70    3.30
  -8  -2   7   -1.50    2.40
   7   2  -7   -0.60    2.20
   7   2  -7   -0.30    2.60
  -7  -2   7    0.00    2.60
  -7  -2   7    2.50    2.70
   6   2  -7   14.00    3.80
   6   2  -7    9.50    5.80
  -6  -2   7   16.40    4.40
  -6  -2   7   18.80    4.40
   5   2  -7    7.30    3.20
   5   2  -7    5.00    2.80
  -5  -2   7   11.00    3.60
  -5  -2   7   11.20    3.60
   4   2  -7  163.28   10.40
   4   2  -7  154.38   10.80
  -4  -2   7  173.48   10.70
  -4  -2   7  168.98   13.70
   3   2  -7   64.19    5.70
   3   2  -7   59.19    6.90
  -3  -2   7   54.39    6.30
  -3  -2   7   48.90    6.70
   2   2  -7   51.89    5.00
   2   2  -7   46.10    5.40
   2   2  -7   55.19    6.70
  -2  -2   7   50.49    6.60
   1   2  -7   20.20    3.70
   1   2  -7   15.80    3.60
   1   2  -7   15.50    3.60
  -1  -2   7   16.00    3.70
   0   2  -7   25.80    4.30
   0   2  -7   32.00    5.10
   0   2  -7   25.00    4.40
   0  -2   7   32.50    5.30
  -1   2  -7   62.79    6.90
  -1   2  -7   54.89    6.30
   1  -2   7   52.79    6.20
   1  -2   7   50.59    6.20
  -2   2  -7   40.00    5.60
  -2   2  -7   39.80    5.40
   2  -2   7   36.90    5.50
  -3   2  -7   61.89    7.20
  -3   2  -7   67.29    7.60
   3  -2   7   82.79    7.60
   3  -2   7   68.79    6.60
  -4   2  -7    7.90    3.20
  -4   2  -7   11.90    4.10
   4  -2   7    8.60    3.60
   4  -2   7    8.30    3.00
  -5   2  -7    4.40    2.50
  -5   2  -7    0.60    3.30
   5  -2   7    0.30    3.40
   5  -2   7    6.30    3.10
  -6   2  -7   39.30    5.70
  -6   2  -7   32.50    6.60
   6  -2   7   34.90    5.30
  -7   2  -7    3.10    2.50
   7  -2   7    4.80    3.00
   8   1  -7   26.10    5.00
   8   1  -7   21.00    4.60
  -8  -1   7   22.50    4.70
  -8  -1   7   22.90    5.60
   7   1  -7    2.20    2.70
   7   1  -7    8.30    3.10
  -7  -1   7    6.90    3.00
   6   1  -7  113.09    8.50
   6   1  -7   96.69    8.30
  -6  -1   7  119.99    8.80
  -6  -1   7  126.39    9.30
   5   1  -7    3.60    2.40
   5   1  -7    0.80    2.00
  -5  -1   7    0.00    2.00
  -5  -1   7    1.60    2.00
   4   1  -7   89.39    7.30
   4   1  -7   99.29    7.00
  -4  -1   7   86.49    6.90
  -4  -1   7   84.59    7.50
   3   1  -7    2.10    2.00
   3   1  -7    4.40    2.20
  -3  -1   7    5.60    2.70
  -3  -1   7    6.80    2.50
   2   1  -7  110.09    7.10
   2   1  -7  103.59    7.80
   2   1  -7   95.79    7.10
  -2  -1   7  110.09    8.10
   1   1  -7    3.40    2.20
   1   1  -7    3.40    2.30
   1   1  -7    9.10    3.00
  -1  -1   7    0.40    1.80
   0   1  -7   95.79    7.30
   0   1  -7   92.39    6.80
   0  -1   7   92.59    7.40
   0  -1   7   89.09    6.90
  -1   1  -7  159.68   10.10
  -1   1  -7  152.18    9.70
   1  -1   7  159.98    9.90
   1  -1   7  157.88   10.20
  -2   1  -7   -1.10    1.50
  -2   1  -7    1.30    2.10
   2  -1   7    0.90    2.20
   2  -1   7    0.80    1.90
  -3   1  -7   26.20    4.40
  -3   1  -7   23.50    4.40
   3  -1   7   34.60    4.80
  -4   1  -7    6.40    3.10
  -4   1  -7    7.00    2.90
   4  -1   7    8.50    2.90
   4  -1   7   11.90    4.00
  -5   1  -7   40.00    6.60
  -5   1  -7   33.90    5.30
   5  -1   7   29.10    5.50
   5  -1   7   31.20    4.90
  -6   1  -7    7.20    2.90
  -6   1  -7    5.20    3.80
   6  -1   7    8.00    3.50
  -7   1  -7   78.69    6.70
  -7   1  -7   57.29   10.10
   7  -1   7   69.39    6.60
   8   0  -7   17.20    4.10
   8   0  -7   13.80    3.70
  -8   0   7   12.80    3.70
  -8   0   7   23.50    5.30
   7   0  -7    6.50    3.00
   7   0  -7   11.00    3.40
  -7   0   7   16.70    4.30
  -7   0   7   11.60    3.70
   6   0  -7    5.40    2.80
   6   0  -7    7.30    2.70
  -6   0   7   12.70    3.40
  -6   0   7    5.30    2.90
   5   0  -7   -0.90    1.70
   5   0  -7   -0.20    1.90
  -5   0   7    1.90    2.00
  -5   0   7   -0.90    1.80
   4   0  -7   31.90    4.20
   4   0  -7   37.50    5.10
  -4   0   7   46.50    6.00
  -4   0   7   40.50    4.70
   3   0  -7  229.28   13.20
   3   0  -7  237.28   12.30
  -3   0   7  236.58   12.40
  -3   0   7  231.68   13.40
   2   0  -7   61.29    5.10
   2   0  -7   70.99    6.10
   2   0  -7   77.09    5.30
  -2   0   7   68.89    6.20
   1   0  -7    5.70    2.00
   1   0  -7    0.00    1.70
   1   0  -7    3.10    2.10
  -1   0   7    2.80    2.40
   0   0  -7  215.58   12.90
   0   0  -7  239.58   12.30
   0   0   7  253.47   13.50
   0   0   7  228.68   12.30
  -1   0  -7  169.88    9.80
  -1   0  -7  153.78   10.00
   1   0   7  161.98   10.30
   1   0   7  163.68    9.70
  -2   0  -7   15.00    3.30
  -2   0  -7   26.60    4.20
   2   0   7   19.40    3.90
   2   0   7   22.50    3.90
  -3   0  -7    1.80    1.90
  -3   0  -7    1.30    2.20
   3   0   7    0.00    2.00
   3   0   7    2.00    2.60
  -4   0  -7    9.30    4.00
  -4   0  -7    2.90    2.20
   4   0   7    2.60    2.30
   4   0   7    4.70    3.10
  -5   0  -7   60.19    7.80
  -5   0  -7   77.39    6.70
   5   0   7   83.69    7.80
  -6   0  -7   42.60    5.60
  -6   0  -7   24.60    5.30
   6   0   7   23.70    4.30
   6   0   7   31.30    5.90
  -7   0  -7   72.49    9.70
  -7   0  -7   96.49    7.60
   7   0   7   98.59    7.60
   8  -1  -7   -0.30    2.10
   8  -1  -7   -1.40    2.50
  -8   1   7   -0.10    2.50
  -8   1   7    1.50    2.30
   7  -1  -7    6.00    2.90
   7  -1  -7    1.50    2.40
  -7   1   7    4.40    2.80
  -7   1   7    3.60    2.70
   6  -1  -7   -1.10    1.80
   6  -1  -7    0.10    1.80
  -6   1   7    2.10    2.30
  -6   1   7    2.30    2.30
   5  -1  -7    2.70    2.20
   5  -1  -7    2.80    1.90
  -5   1   7   -1.20    1.90
  -5   1   7    2.50    1.90
   4  -1  -7   87.29    6.00
   4  -1  -7   89.79    6.90
  -4   1   7   87.49    6.10
  -4   1   7   94.09    7.20
   3  -1  -7    2.00    1.40
   3  -1  -7    1.60    1.90
  -3   1   7    1.90    2.10
  -3   1   7    2.80    1.90
   2  -1  -7   49.90    5.70
   2  -1  -7   46.60    3.90
   2  -1  -7   46.30    3.80
  -2   1   7   49.40    5.80
   1  -1  -7  156.28    8.70
   1  -1  -7  169.68    8.70
   1  -1  -7  161.78   10.00
  -1   1   7  160.58   10.20
   0  -1  -7   89.49    6.90
   0  -1  -7   93.09    6.00
   0   1   7   93.19    7.00
   0   1   7   83.99    5.90
  -1  -1  -7   64.09    5.00
  -1  -1  -7   57.39    5.50
   1   1   7   51.09    4.80
   1   1   7   67.39    5.70
  -2  -1  -7   -0.50    1.80
  -2  -1  -7    1.40    1.80
   2   1   7    3.10    2.30
   2   1   7    1.60    1.90
  -3  -1  -7    0.10    1.70
  -3  -1  -7    0.30    2.10
   3   1   7    1.30    2.00
   3   1   7   -0.70    1.60
  -4  -1  -7   -1.30    1.40
  -4  -1  -7    1.00    2.10
   4   1   7    0.00    2.00
   4   1   7    1.00    2.40
  -5  -1  -7    7.70    2.80
  -5  -1  -7    4.20    2.90
   5   1   7    7.00    2.70
   5   1   7    3.80    2.90
  -6  -1  -7   72.19    8.80
  -6  -1  -7   92.09    7.30
   6   1   7   79.09    6.70
   6   1   7   75.89    8.60
  -7  -1  -7   11.70    3.60
  -7  -1  -7   11.90    5.00
   7   1   7   11.20    3.40
  -8  -1  -7    6.60    4.50
  -8  -1  -7    9.30    3.20
   8   1   7    7.60    3.10
   8  -2  -7   10.80    3.00
  -8   2   7    9.50    3.70
  -8   2   7   14.10    3.00
   7  -2  -7   11.30    3.10
   7  -2  -7    6.60    3.30
  -7   2   7    4.70    2.70
  -7   2   7    8.10    2.70
   6  -2  -7    7.80    2.80
   6  -2  -7    8.60    2.90
  -6   2   7   10.90    2.90
  -6   2   7    9.90    3.00
   5  -2  -7   13.40    3.40
   5  -2  -7   16.60    3.10
  -5   2   7   17.30    3.30
  -5   2   7   15.80    3.40
   4  -2  -7    1.30    1.70
   4  -2  -7   -0.10    1.50
  -4   2   7    1.70    2.20
  -4   2   7   -0.40    1.40
   3  -2  -7    7.60    2.50
   3  -2  -7    7.90    1.80
  -3   2   7    4.90    1.90
  -3   2   7    1.70    1.90
   2  -2  -7   -0.20    1.60
   2  -2  -7    2.30    1.40
   2  -2  -7   -1.20    1.20
  -2   2   7   -0.20    1.90
   1  -2  -7   44.40    5.50
   1  -2  -7   18.20    3.10
   1  -2  -7   31.50    2.80
  -1   2   7   33.70    4.90
   0  -2  -7  110.29    7.60
   0  -2  -7   97.89    6.10
   0   2   7  119.59    7.90
   0   2   7  110.59    6.30
  -1  -2  -7   27.40    3.60
  -1  -2  -7   20.50    3.90
   1   2   7   32.00    4.80
   1   2   7   28.50    3.50
  -2  -2  -7   70.69    5.60
  -2  -2  -7   76.19    6.30
   2   2   7   67.99    5.50
   2   2   7   75.69    6.20
  -3  -2  -7   86.59    6.90
  -3  -2  -7   87.39    6.70
   3   2   7   84.69    6.80
   3   2   7   89.49    6.70
  -4  -2  -7  107.89    8.10
  -4  -2  -7  103.79    8.00
   4   2   7  112.09    8.00
   4   2   7  110.19    8.10
  -5  -2  -7   45.60    6.00
   5   2   7   42.60    6.10
   5   2   7   35.30    5.10
  -6  -2  -7  122.49    9.10
  -6  -2  -7  119.19   10.10
   6   2   7  128.09   10.10
   6   2   7  141.59    9.20
  -7  -2  -7    2.50    2.50
  -7  -2  -7    0.10    2.70
   7   2   7    0.40    2.30
   7   2   7    0.40    3.40
  -8  -2  -7   20.50    5.80
  -8  -2  -7   32.10    5.10
   8   2   7   34.60    5.30
   7  -3  -7    0.40    1.60
   7  -3  -7    0.90    2.60
  -7   3   7    1.60    2.60
  -7   3   7   -1.70    1.70
   6  -3  -7   -0.50    2.30
   6  -3  -7    1.10    1.70
  -6   3   7    0.00    2.10
  -6   3   7    2.20    2.00
   5  -3  -7    0.50    1.80
  -5   3   7    2.20    2.10
  -5   3   7    0.60    1.40
   4  -3  -7   42.10    5.20
   4  -3  -7   44.90    3.70
  -4   3   7   56.79    5.90
  -4   3   7   40.40    3.70
   3  -3  -7   10.50    2.80
   3  -3  -7   12.50    2.00
  -3   3   7   15.60    3.40
  -3   3   7   11.70    1.90
   2  -3  -7    1.00    0.90
   2  -3  -7    0.90    0.80
   2  -3  -7    1.60    1.70
  -2   3   7    0.40    1.50
   1  -3  -7   69.39    5.70
   1  -3  -7   61.89    3.40
   1  -3  -7   59.79    3.40
  -1   3   7   57.89    5.40
   0  -3  -7    0.90    1.20
   0  -3  -7    0.60    1.50
   0   3   7    0.40    1.80
   0   3   7    2.10    1.20
  -1  -3  -7   76.99    6.50
  -1  -3  -7   90.49    6.20
   1   3   7   84.09    5.30
   1   3   7   89.59    6.80
  -2  -3  -7  122.19    7.20
  -2  -3  -7  108.09    8.10
   2   3   7  107.59    7.90
   2   3   7  117.29    7.20
  -3  -3  -7   27.50    4.20
  -3  -3  -7   19.40    4.00
   3   3   7   26.10    3.90
   3   3   7   29.10    4.60
  -4  -3  -7   48.50    6.20
  -4  -3  -7   44.70    5.80
   4   3   7   54.19    6.10
   4   3   7   46.90    6.10
  -5  -3  -7    1.70    2.60
  -5  -3  -7    0.90    1.90
   5   3   7   -0.20    2.00
   5   3   7   -1.40    2.10
  -6  -3  -7   57.19    7.60
  -6  -3  -7   75.19    6.70
   6   3   7   61.79    7.60
   6   3   7   70.99    6.50
  -7  -3  -7    7.20    3.90
  -7  -3  -7    2.00    2.20
   7   3   7   -0.40    2.10
   7   3   7    4.70    3.30
  -8  -3  -7  100.09    8.10
  -8  -3  -7   86.49   10.60
   8   3   7   87.29    7.60
   7  -4  -7    2.80    1.90
   7  -4  -7    3.40    3.00
  -7   4   7    4.40    2.20
  -7   4   7    5.40    3.10
   6  -4  -7    6.70    2.40
   6  -4  -7    3.60    2.50
  -6   4   7    6.50    2.40
  -6   4   7    3.90    2.40
   5  -4  -7    0.50    1.80
   5  -4  -7    1.60    1.80
  -5   4   7    4.30    2.40
  -5   4   7    0.90    1.90
   4  -4  -7   -0.90    1.30
   4  -4  -7   -0.60    1.40
  -4   4   7   -1.70    1.30
  -4   4   7    2.10    1.90
   3  -4  -7    9.50    1.40
   3  -4  -7   14.20    3.20
  -3   4   7   11.50    1.60
  -3   4   7   10.10    2.80
   2  -4  -7   14.70    3.40
  -2   4   7   15.20    3.30
   1  -4  -7  143.99    9.40
  -1   4   7  147.99    9.30
   0  -4  -7  124.89    6.10
   0  -4  -7  133.19    8.80
   0   4   7  128.99    6.10
   0   4   7  149.79    9.00
  -1  -4  -7   25.40    2.90
  -1  -4  -7   23.90    4.30
   1   4   7   22.90    3.30
   1   4   7   24.00    4.30
  -2  -4  -7  168.28   10.70
  -2  -4  -7  178.38    9.50
   2   4   7  180.38    9.40
   2   4   7  176.98   10.80
  -3  -4  -7    4.40    2.20
  -3  -4  -7   12.10    2.90
   3   4   7   12.50    2.90
   3   4   7    6.10    2.50
  -4  -4  -7    1.70    2.00
  -4  -4  -7    0.00    2.10
   4   4   7    5.80    2.40
   4   4   7    1.90    2.30
  -5  -4  -7  119.19    8.80
  -5  -4  -7   98.59    8.30
   5   4   7  125.09    8.80
   5   4   7  117.29    8.60
  -6  -4  -7  155.98   11.20
  -6  -4  -7  165.18   11.10
   6   4   7  157.88   10.60
   6   4   7  165.98   11.20
  -7  -4  -7   97.09    7.90
  -7  -4  -7   61.69    8.30
   7   4   7   75.59    9.20
   7   4   7   98.39    8.80
  -8  -4  -7   14.30    5.00
  -8  -4  -7    7.40    3.30
   8   4   7    9.30    4.10
   8   4   7   13.30    4.10
  -9  -4  -7   23.70    5.20
   7  -5  -7    0.30    2.90
   7  -5  -7    2.30    1.60
  -7   5   7   -0.70    1.60
  -7   5   7   -0.10    2.50
   6  -5  -7    8.70    2.50
   6  -5  -7    3.90    2.60
  -6   5   7    7.30    2.40
  -6   5   7   11.20    3.00
   5  -5  -7    2.30    2.10
   5  -5  -7    2.50    2.00
  -5   5   7    1.00    1.90
  -5   5   7    2.00    1.80
   4  -5  -7   46.90    5.30
   4  -5  -7   38.30    3.50
  -4   5   7   47.30    5.20
  -4   5   7   40.80    3.60
   3  -5  -7   20.90    3.80
  -3   5   7   13.40    3.00
   2  -5  -7   20.40    3.70
  -2   5   7   15.80    3.20
   1  -5  -7   34.40    5.00
  -1   5   7   33.30    4.80
   0  -5  -7   29.20    4.60
   0   5   7   27.00    4.60
  -1  -5  -7   27.60    4.80
  -1  -5  -7   24.80    2.70
   1   5   7   25.50    4.20
   1   5   7   23.90    2.60
  -2  -5  -7   30.20    5.00
  -2  -5  -7   29.10    3.50
   2   5   7   26.90    4.40
   2   5   7   29.90    3.50
  -3  -5  -7   72.59    5.60
  -3  -5  -7   72.49    6.50
   3   5   7   69.39    6.30
   3   5   7   69.09    5.40
  -4  -5  -7  183.68   11.80
  -4  -5  -7  187.78   11.10
   4   5   7  180.68   10.90
   4   5   7  195.48   11.80
  -5  -5  -7   32.30    5.40
  -5  -5  -7   37.90    5.50
   5   5   7   38.50    5.50
   5   5   7   45.10    6.30
  -6  -5  -7   77.99    7.50
  -6  -5  -7   78.29    7.40
   6   5   7   75.49    7.30
  -7  -5  -7   63.69    9.10
  -7  -5  -7   69.89    9.10
   7   5   7   70.69    8.70
   7   5   7   74.59    8.70
  -8  -5  -7    5.30    3.90
  -8  -5  -7   -0.60    2.00
   8   5   7   -0.10    2.20
   8   5   7   -1.20    3.20
  -9  -5  -7   41.80    6.30
  -9  -5  -7   21.50    6.10
   9   5   7   45.50    6.70
   9   5   7   35.70    7.10
   6  -6  -7   17.70    3.50
   6  -6  -7   16.90    2.90
  -6   6   7   15.70    2.90
  -6   6   7   16.50    3.30
   5  -6  -7   -1.10    1.60
   5  -6  -7   -1.10    1.70
  -5   6   7   -0.90    1.80
  -5   6   7    1.60    1.60
   4  -6  -7   35.20    3.40
   4  -6  -7   36.10    4.80
  -4   6   7   33.00    4.60
  -4   6   7   38.20    4.10
   3  -6  -7   14.40    3.40
  -3   6   7    9.00    2.80
   2  -6  -7   47.50    6.00
  -2   6   7   65.59    5.60
   1  -6  -7    3.30    2.20
  -1   6   7    0.80    1.90
   0  -6  -7  106.19    7.90
   0   6   7  100.39    7.60
  -1  -6  -7    0.80    1.00
  -1  -6  -7    0.50    1.80
   1   6   7   -1.90    1.40
   1   6   7    0.00    1.10
  -2  -6  -7   89.49    5.80
  -2  -6  -7   99.29    7.70
   2   6   7   83.39    5.50
   2   6   7   90.09    7.20
  -3  -6  -7   11.00    3.30
  -3  -6  -7   15.10    3.20
   3   6   7   13.10    2.90
   3   6   7   14.80    3.60
  -4  -6  -7  262.57   14.20
  -4  -6  -7  277.67   15.80
   4   6   7  246.48   15.10
   4   6   7  268.37   14.20
  -5  -6  -7   49.80    6.50
  -5  -6  -7   49.50    6.80
   5   6   7   52.99    6.20
   5   6   7   38.70    6.50
  -6  -6  -7  107.59    8.90
   6   6   7  116.39    9.00
   6   6   7  112.19    9.00
  -7  -6  -7    0.60    2.50
  -7  -6  -7   -3.40    2.40
   7   6   7    1.30    2.40
   7   6   7   -0.30    2.90
  -8  -6  -7    5.00    3.60
  -8  -6  -7   12.90    4.00
   8   6   7   14.70    5.00
   8   6   7   18.80    4.60
  -9  -6  -7   62.19    8.10
  -9  -6  -7   61.29    9.50
   9   6   7   72.49    8.90
   9   6   7   53.89    8.40
   6  -7  -7    3.70    2.80
  -6   7   7    2.20    2.40
  -6   7   7   -0.10    1.80
   5  -7  -7   -2.30    1.90
   5  -7  -7    4.20    2.20
  -5   7   7    2.20    2.20
  -5   7   7    0.80    2.00
   4  -7  -7    3.70    1.90
   4  -7  -7    5.10    2.60
  -4   7   7    4.50    2.20
  -4   7   7    2.40    1.80
   3  -7  -7    5.00    2.40
  -3   7   7    6.50    1.50
  -3   7   7    5.50    1.50
  -3   7   7    3.50    2.30
   2  -7  -7    1.50    1.90
  -2   7   7    1.30    1.90
   1  -7  -7   34.90    5.40
  -1   7   7   40.30    5.60
   0  -7  -7    2.10    2.10
   0   7   7    3.50    2.20
   0   7   7    3.10    1.00
  -1  -7  -7  261.27   15.50
  -1  -7  -7  266.17   12.70
   1   7   7  299.87   14.80
   1   7   7  269.07   15.40
  -2  -7  -7   23.30    4.60
  -2  -7  -7   20.20    2.90
   2   7   7   18.90    3.90
  -3  -7  -7    0.50    2.00
  -3  -7  -7    0.30    1.60
   3   7   7    1.40    1.90
   3   7   7   -0.10    1.60
  -4  -7  -7  159.98    9.60
  -4  -7  -7  138.39   10.50
   4   7   7  138.09   10.20
   4   7   7  145.29    9.20
  -5  -7  -7   13.50    3.60
  -5  -7  -7    9.10    3.90
   5   7   7   14.40    4.00
   5   7   7   13.90    3.60
  -6  -7  -7   43.10    6.70
  -6  -7  -7   31.90    6.10
   6   7   7   46.60    6.40
   6   7   7   39.60    6.50
  -7  -7  -7    4.30    3.40
  -7  -7  -7    5.30    3.60
   7   7   7    1.80    2.80
   7   7   7   -1.00    2.90
  -8  -7  -7    5.80    3.60
  -8  -7  -7    4.10    3.50
   8   7   7    2.80    3.60
   8   7   7    9.50    3.70
  -9  -7  -7   27.30    7.00
  -9  -7  -7   33.70    6.10
   9   7   7   31.20    6.10
   5  -8  -7   23.10    3.50
   5  -8  -7   19.40    3.70
  -5   8   7   30.20    4.10
  -5   8   7   31.30    4.00
   4  -8  -7   22.90    3.90
  -4   8   7   21.20    3.80
  -4   8   7   17.60    2.80
   3  -8  -7   -2.30    1.70
  -3   8   7   -1.30    2.40
  -3   8   7    0.80    1.30
  -3   8   7    1.30    1.80
   2  -8  -7   -1.60    1.90
  -2   8   7   -0.60    0.90
  -2   8   7    0.90    1.00
  -2   8   7    1.00    1.80
   1  -8  -7   25.40    4.60
  -1   8   7   22.80    2.00
  -1   8   7   20.90    2.00
  -1   8   7   16.60    3.70
   0  -8  -7  114.19    9.00
   0   8   7  113.69    6.20
   0   8   7  122.99    6.10
   0   8   7  118.69    8.70
  -1  -8  -7    5.10    1.90
  -1  -8  -7    5.50    3.00
   1   8   7    8.90    3.10
   1   8   7    7.90    1.90
  -2  -8  -7   19.20    3.00
  -2  -8  -7   20.10    4.60
   2   8   7   24.30    3.40
   2   8   7   31.30    6.30
  -3  -8  -7   52.49    5.40
  -3  -8  -7   65.89    9.40
   3   8   7   48.00    5.40
   3   8   7   42.80    6.40
  -4  -8  -7   -0.20    1.80
  -4  -8  -7   -1.70    1.80
   4   8   7    2.00    1.90
   4   8   7   -0.10    2.10
  -5  -8  -7   47.40    6.30
  -5  -8  -7   47.80    7.00
   5   8   7   30.70    5.30
   5   8   7   38.70    5.70
  -6  -8  -7   17.00    4.70
  -6  -8  -7   25.70    5.70
   6   8   7    9.30    3.70
   6   8   7   17.00    4.30
  -7  -8  -7   23.50    5.50
  -7  -8  -7   18.80    5.30
   7   8   7   26.90    5.80
   7   8   7   23.70    5.10
  -8  -8  -7    2.00    3.70
  -8  -8  -7   13.80    4.40
   8   8   7    4.10    3.30
   8   8   7    3.30    3.80
   4  -9  -7    0.80    2.20
  -4   9   7    1.40    2.00
  -4   9   7   -0.20    2.00
  -4   9   7    3.10    1.90
   3  -9  -7    8.70    2.90
  -3   9   7   10.50    2.40
  -3   9   7   10.70    3.10
  -3   9   7    8.70    2.10
   2  -9  -7    8.40    3.10
  -2   9   7    8.00    1.90
  -2   9   7   10.50    3.20
   1  -9  -7   -1.70    1.90
  -1   9   7    1.00    1.30
  -1   9   7   -1.60    1.50
  -1   9   7   -0.70    2.30
   0  -9  -7   19.90    4.40
   0   9   7   23.20    5.60
   0   9   7   22.30    2.80
  -1  -9  -7    3.70    2.60
   1   9   7    1.40    2.20
   1   9   7    4.50    1.80
  -2  -9  -7    0.30    1.50
  -2  -9  -7    3.10    2.50
   2   9   7   -0.40    1.70
   2   9   7    1.80    2.30
  -3  -9  -7   -0.20    2.10
  -3  -9  -7    0.50    1.80
   3   9   7    1.20    2.20
   3   9   7   -1.10    1.60
  -4  -9  -7   13.70    3.50
  -4  -9  -7    9.00    3.40
   4   9   7    8.20    3.10
   4   9   7   16.80    4.70
  -5  -9  -7   28.80    5.00
  -5  -9  -7   29.70    5.60
   5   9   7   30.20    5.70
  -6  -9  -7   18.80    4.80
  -6  -9  -7   26.30    5.30
   6   9   7   14.40    4.50
   6   9   7   15.40    4.60
  -7  -9  -7  169.28   12.70
  -7  -9  -7  160.08   12.00
   7   9   7  174.78   12.70
   7   9   7  151.28   11.70
  -8  -9  -7  107.99   10.30
  -8  -9  -7  120.19   10.70
   8   9   7  121.29   10.50
   8   9   7  114.39   10.40
   3 -10  -7    8.90    3.40
  -3  10   7    5.70    2.20
  -3  10   7    6.30    2.30
  -3  10   7    9.60    3.30
   2 -10  -7    2.20    2.60
  -2  10   7    1.30    1.90
  -2  10   7    0.60    2.60
  -2  10   7    0.50    1.70
   1 -10  -7   -1.90    2.30
  -1  10   7    1.20    1.80
  -1  10   7   -0.60    1.40
  -1  10   7    0.50    2.10
   0 -10  -7    3.60    2.80
   0  10   7    0.40    2.00
   0  10   7    3.10    1.80
   0  10   7    3.10    2.10
  -1 -10  -7   31.20    5.90
   1  10   7   35.60    4.10
   1  10   7   30.80    6.00
   1  10   7   33.60    4.30
  -2 -10  -7   44.80    5.10
  -2 -10  -7   43.50    6.70
   2  10   7   47.30    5.40
   2  10   7   31.40    5.90
  -3 -10  -7    2.00    2.50
  -3 -10  -7   11.30    3.10
   3  10   7    3.70    2.90
   3  10   7    8.30    2.90
  -4 -10  -7   17.60    4.70
  -4 -10  -7   20.50    4.30
   4  10   7   14.70    4.30
   4  10   7   23.00    4.70
  -5 -10  -7  312.77   19.20
  -5 -10  -7  304.97   18.10
   5  10   7  320.87   17.30
   5  10   7  298.57   18.70
  -6 -10  -7   19.50    5.10
  -6 -10  -7   25.50    5.40
   6  10   7   22.70    5.10
   6  10   7   20.60    5.20
  -7 -10  -7   49.40    7.30
  -7 -10  -7   25.50    5.80
   7  10   7   25.90    5.80
   7  10   7   35.30    7.00
  -8 -10  -7   19.50    5.70
  -8 -10  -7   16.60    5.20
   8  10   7   25.60    6.00
   2 -11  -7    4.10    3.40
  -2  11   7    3.60    2.30
  -2  11   7   -0.30    1.90
  -2  11   7    1.00    2.00
   1 -11  -7    0.70    2.70
  -1  11   7    2.00    1.70
  -1  11   7    1.80    2.60
  -1  11   7    0.40    2.10
   0 -11  -7   29.90    5.90
   0  11   7   38.10    4.40
   0  11   7   33.90    4.30
   0  11   7   36.00    6.20
  -1 -11  -7    9.20    3.80
   1  11   7    9.90    3.80
   1  11   7   11.80    3.00
   1  11   7    8.20    3.00
  -2 -11  -7   58.99    8.00
  -2 -11  -7   57.09    5.40
   2  11   7   48.50    7.40
   2  11   7   57.39    5.30
  -3 -11  -7    8.10    3.10
  -3 -11  -7    9.80    4.00
   3  11   7    3.90    2.50
   3  11   7    8.20    3.50
  -4 -11  -7    9.20    4.20
  -4 -11  -7   11.00    3.80
   4  11   7    9.20    3.30
   4  11   7   13.10    4.80
  -5 -11  -7   30.20    6.40
  -5 -11  -7   39.70    6.50
   5  11   7   39.00    6.40
  -6 -11  -7  128.89   11.60
  -6 -11  -7  137.89   10.70
   6  11   7  126.79   10.30
  -7 -11  -7   37.30    7.30
  -7 -11  -7   43.40    7.60
   7  11   7   36.20    6.90
  -1  12   7    0.00    2.30
  -1  12   7    2.10    2.10
  -1  12   7   -0.90    2.30
   0 -12  -7    5.60    3.60
   0  12   7   10.70    3.90
   0  12   7   12.80    3.20
   0  12   7    7.10    2.80
  -1 -12  -7   11.70    4.10
   1  12   7   15.70    3.50
   1  12   7   16.20    4.90
   1  12   7   17.40    3.90
  -2 -12  -7    7.00    3.80
   2  12   7    9.80    3.00
   2  12   7   10.10    4.30
  -3 -12  -7   21.50    5.50
  -3 -12  -7   28.70    5.00
   3  12   7   23.60    4.60
   3  12   7   23.30    5.90
  -4 -12  -7   41.10    7.70
   4  12   7   29.90    9.40
   4  12   7   39.90    6.50
  -5 -12  -7    2.90    3.80
  -5 -12  -7    7.70    3.70
   5  12   7    9.20    3.70
  -6 -12  -7   11.90    4.50
  -6 -12  -7    5.80    3.90
   6  12   7   11.10    4.30
   6  12   7    7.80    4.30
  -7 -12  -7   25.00    6.00
  -7 -12  -7   34.30    7.50
   7  12   7   29.80    6.50
   7  12   7   30.70    7.20
   1  13   7    6.20    2.80
   1  13   7    1.80    3.20
   1  13   7    2.20    3.00
  -2 -13  -7   46.90    8.20
   2  13   7   46.50    6.40
   2  13   7   58.49    9.00
   2  13   7   53.29    6.80
  -3 -13  -7    3.80    3.70
   3  13   7    2.10    2.60
   3  13   7    1.20    3.50
  -4 -13  -7  140.79   12.80
  -4 -13  -7  116.19    9.90
   4  13   7  155.68   12.80
   4  13   7  142.19   10.30
  -5 -13  -7  132.39   10.60
  -5 -13  -7  128.09   14.40
   5  13   7  132.39   10.50
   3   8  -8   37.70    6.90
   3   8  -8   37.20    7.20
   3   8  -8   36.60    7.50
  -3  -8   8   40.10    8.20
   2   8  -8   33.60    7.70
   2   8  -8   28.40    6.50
   2   8  -8   46.70    8.20
  -2  -8   8   36.00    7.60
   1   8  -8   -1.30    3.40
   1   8  -8   -2.10    3.40
   1   8  -8   -0.90    3.30
  -1  -8   8   -1.20    2.90
   5   7  -8   48.10   12.10
   5   7  -8   68.19    8.70
  -5  -7   8   64.99   10.00
   4   7  -8   21.50    5.40
   4   7  -8   28.00    5.50
   3   7  -8    8.80    4.10
   3   7  -8    9.50    3.90
   2   7  -8   20.90    5.10
   2   7  -8   22.50    5.50
   1   7  -8   14.20    4.60
   1   7  -8    5.40    3.40
  -1  -7   8   -2.50    3.30
   0   7  -8   71.19    8.80
   0   7  -8   74.99    9.60
  -1   7  -8   54.29    7.70
  -1   7  -8   41.90    7.70
  -1   7  -8   50.69    9.50
   1  -7   8   72.09    9.70
   6   6  -8    2.40    3.60
  -6  -6   8    2.40    4.70
  -6  -6   8   -0.20    3.30
   5   6  -8   61.89    8.60
   5   6  -8   40.50    7.10
  -5  -6   8   67.89    9.00
  -5  -6   8   68.49   10.00
   4   6  -8   48.20    7.80
   4   6  -8   43.60    7.50
   4   6  -8   40.00    6.70
   3   6  -8   13.00    4.00
   3   6  -8   17.60    4.90
   3   6  -8   16.30    4.40
   2   6  -8    6.80    3.80
   2   6  -8    9.50    4.00
   2   6  -8   10.60    4.30
  -2  -6   8    5.80    4.10
   1   6  -8   21.00    5.20
   1   6  -8   23.80    5.40
   1   6  -8   25.90    5.40
  -1  -6   8   17.40    4.80
   0   6  -8   35.30    6.20
   0   6  -8   29.40    5.60
   0   6  -8   44.10    7.30
   0  -6   8   39.70    7.10
  -1   6  -8   27.80    5.70
  -1   6  -8   24.40    5.70
   1  -6   8   32.70    6.70
  -2   6  -8   16.80    4.60
  -2   6  -8   19.00    5.30
   2  -6   8   14.90    4.70
  -3   6  -8   63.19    7.90
  -3   6  -8   39.80    7.10
   3  -6   8   53.09    7.80
   7   5  -8   -0.40    2.90
  -7  -5   8    1.50    3.60
  -7  -5   8   -2.40    3.10
   6   5  -8    7.50    3.70
   6   5  -8   11.20    4.40
  -6  -5   8   11.30    4.70
  -6  -5   8   11.30    4.70
   5   5  -8   47.90    7.20
   5   5  -8   51.69    7.60
  -5  -5   8   31.30    6.60
  -5  -5   8   49.90    7.50
   4   5  -8   30.90    5.60
   4   5  -8   21.80    5.20
   4   5  -8   27.30    5.40
  -4  -5   8   20.30    5.10
   3   5  -8  120.39    9.50
   3   5  -8  121.89    9.90
   3   5  -8  115.79   10.10
  -3  -5   8  124.69   10.80
   2   5  -8  193.18   12.90
   2   5  -8  202.48   12.90
  -2  -5   8  167.78   13.30
   1   5  -8   48.50    7.10
   1   5  -8   42.50    6.20
   1   5  -8   47.30    6.60
  -1  -5   8   33.40    6.40
   0   5  -8    7.00    3.40
   0   5  -8    5.40    3.60
   0   5  -8    2.40    3.00
   0  -5   8    4.00    3.00
  -1   5  -8   13.50    4.60
  -1   5  -8   31.00    5.80
  -1   5  -8   18.60    4.50
   1  -5   8   18.20    4.80
  -2   5  -8   20.30    4.70
  -2   5  -8   17.60    5.20
   2  -5   8   14.00    4.30
  -3   5  -8   34.60    6.40
  -3   5  -8   54.09    7.00
   3  -5   8   46.00    7.20
  -4   5  -8   37.30    5.90
  -4   5  -8   19.70    5.40
   4  -5   8   13.80    4.20
   7   4  -8   45.60    7.00
  -7  -4   8   35.60    6.70
  -7  -4   8   40.70    7.30
   6   4  -8   42.20    6.90
   6   4  -8   28.20    5.60
  -6  -4   8   45.30    7.60
  -6  -4   8   42.20    6.70
   5   4  -8   31.00    5.80
  -5  -4   8   30.50    6.40
  -5  -4   8   29.20    5.70
   4   4  -8  256.17   15.40
  -4  -4   8  247.28   16.50
   3   4  -8    6.10    3.20
   3   4  -8    6.40    3.10
   3   4  -8    7.10    3.10
  -3  -4   8    9.30    3.90
   2   4  -8  103.09    8.30
   2   4  -8  101.49    8.80
   2   4  -8   93.69    8.30
  -2  -4   8  100.69    9.10
   1   4  -8  115.49    9.50
   1   4  -8  122.59    9.50
   1   4  -8  122.39    9.20
  -1  -4   8  104.49    9.60
   0   4  -8    2.60    2.80
   0   4  -8    4.60    3.00
   0   4  -8    1.80    2.90
   0  -4   8   -1.70    1.80
  -1   4  -8   10.60    3.60
  -1   4  -8    9.20    3.70
   1  -4   8    9.70    4.10
   1  -4   8    8.60    3.60
  -2   4  -8   10.30    4.10
  -2   4  -8   16.20    4.30
   2  -4   8   13.70    3.80
   2  -4   8   14.70    4.40
  -3   4  -8    5.50    3.70
  -3   4  -8    9.70    3.40
   3  -4   8   13.60    4.20
   3  -4   8    3.60    3.80
  -4   4  -8    6.60    3.30
  -4   4  -8   -1.60    3.20
   4  -4   8    5.90    3.50
  -5   4  -8    9.30    3.90
  -5   4  -8   11.20    4.50
   5  -4   8    7.90    3.80
   7   3  -8  143.39   11.00
  -7  -3   8  170.08   12.60
  -7  -3   8  148.49   11.70
   6   3  -8   14.70    4.10
   6   3  -8    6.30    3.40
  -6  -3   8   15.40    4.60
  -6  -3   8   15.40    4.80
   5   3  -8   79.49    7.40
  -5  -3   8   62.39    8.70
  -5  -3   8   82.29    8.80
   4   3  -8  320.77   16.90
  -4  -3   8  245.88   17.30
  -4  -3   8  313.47   17.20
   3   3  -8    3.80    3.00
   3   3  -8    3.10    2.50
  -3  -3   8    2.90    2.80
   2   3  -8   13.20    3.70
   2   3  -8   12.80    3.50
  -2  -3   8    9.60    3.40
   1   3  -8   -3.00    2.40
   1   3  -8    3.70    2.90
   1   3  -8   -2.10    2.00
  -1  -3   8   -0.90    2.00
   0   3  -8   16.40    4.10
   0   3  -8   20.10    4.40
   0   3  -8   15.60    4.10
   0  -3   8   21.30    4.50
  -1   3  -8  110.79    8.80
  -1   3  -8  104.99    8.70
   1  -3   8  113.49    9.30
   1  -3   8  115.69    9.20
  -2   3  -8    6.50    3.60
  -2   3  -8    5.60    3.10
   2  -3   8   10.00    3.40
   2  -3   8    9.00    4.10
  -3   3  -8    1.40    2.90
  -3   3  -8    2.00    3.20
   3  -3   8   -2.20    2.20
   3  -3   8    7.60    3.90
  -4   3  -8  189.08   14.60
  -4   3  -8  223.08   14.70
   4  -3   8  227.18   14.10
  -5   3  -8    2.60    3.80
  -5   3  -8   -2.70    4.20
   5  -3   8   -1.70    2.10
   7   2  -8   23.50    5.10
   7   2  -8   16.40    4.50
  -7  -2   8   29.20    5.70
  -7  -2   8   25.90    5.10
   6   2  -8   -1.00    2.60
   6   2  -8    0.40    2.50
  -6  -2   8    0.20    2.50
  -6  -2   8   -0.10    2.90
   5   2  -8    1.20    2.60
  -5  -2   8    0.50    2.40
  -5  -2   8    2.00    2.50
   4   2  -8   56.09    7.00
   4   2  -8   56.79    6.60
  -4  -2   8   50.59    6.20
  -4  -2   8   48.40    6.80
   3   2  -8    0.20    2.10
   3   2  -8   -1.90    1.60
   3   2  -8   -0.70    1.80
  -3  -2   8    0.20    2.20
   2   2  -8  240.88   16.80
   2   2  -8  257.67   14.10
   2   2  -8  263.77   14.40
  -2  -2   8  261.17   15.50
   1   2  -8  198.88   12.60
   1   2  -8  194.08   12.10
   1   2  -8  218.88   12.20
  -1  -2   8  194.08   12.80
   0   2  -8   75.69    7.10
   0   2  -8   86.29    7.20
   0   2  -8   77.59    6.80
   0  -2   8   74.79    8.40
  -1   2  -8  550.64   27.20
  -1   2  -8  543.25   26.70
   1  -2   8  551.54   27.60
  -2   2  -8   55.49    6.90
  -2   2  -8   45.50    6.00
   2  -2   8   49.70    6.90
   2  -2   8   66.39    7.50
  -3   2  -8   12.80    4.00
  -3   2  -8    8.90    3.20
   3  -2   8   12.30    4.00
   3  -2   8    7.50    3.70
  -4   2  -8   68.29    7.60
  -4   2  -8   59.29    7.80
   4  -2   8   54.49    7.60
   4  -2   8   48.60    6.60
  -5   2  -8   34.90    6.40
  -5   2  -8   46.40    6.50
   5  -2   8   28.60    5.40
  -6   2  -8   13.40    4.00
   7   1  -8    2.50    3.20
   7   1  -8    8.30    3.30
  -7  -1   8    2.30    3.10
  -7  -1   8    9.50    3.90
   6   1  -8   22.20    4.80
  -6  -1   8   24.20    5.20
  -6  -1   8   18.30    4.30
   5   1  -8   43.90    5.60
  -5  -1   8   43.00    6.40
  -5  -1   8   38.60    5.30
   4   1  -8  359.26   18.00
   4   1  -8  356.66   18.90
  -4  -1   8  349.96   18.10
  -4  -1   8  322.17   19.00
   3   1  -8   51.39    6.50
   3   1  -8   41.00    5.30
   3   1  -8   53.39    5.70
  -3  -1   8   53.99    7.70
   2   1  -8  240.18   13.10
   2   1  -8  232.38   14.20
   2   1  -8  254.87   13.50
  -2  -1   8  250.77   16.20
   1   1  -8  264.67   14.00
   1   1  -8  256.57   13.60
   1   1  -8  240.18   14.40
  -1  -1   8  244.28   14.60
   0   1  -8    1.30    2.20
   0   1  -8   -0.40    2.00
   0   1  -8    3.40    2.40
   0  -1   8    1.80    2.20
  -1   1  -8  306.57   17.10
  -1   1  -8  312.07   16.60
   1  -1   8  311.97   17.30
   1  -1   8  330.67   17.00
  -2   1  -8   27.90    4.50
  -2   1  -8   23.00    4.60
   2  -1   8   18.60    4.30
   2  -1   8   31.90    5.20
  -3   1  -8   26.70    5.00
  -3   1  -8   28.50    4.90
   3  -1   8   29.50    5.20
   3  -1   8   30.30    5.20
  -4   1  -8  117.49    9.00
  -4   1  -8  107.39    9.40
   4  -1   8  121.49    9.80
   4  -1   8  122.09    9.20
  -5   1  -8    3.40    2.70
  -5   1  -8    0.00    3.20
   5  -1   8    4.40    3.10
   5  -1   8    1.60    3.30
  -6   1  -8   66.09    8.90
  -6   1  -8   79.69    7.30
   6  -1   8   65.39    7.80
  -7   1  -8   23.00    4.70
   7  -1   8   18.80    4.50
   7   0  -8    0.60    2.70
   7   0  -8    5.50    2.90
  -7   0   8    1.40    2.80
   6   0  -8   25.80    4.40
  -6   0   8   35.10    5.10
  -6   0   8   31.20    5.90
   5   0  -8    1.00    2.00
   5   0  -8    2.10    2.50
  -5   0   8   -0.60    2.10
   4   0  -8   53.59    6.70
   4   0  -8   44.80    5.30
  -4   0   8   60.69    5.40
  -4   0   8   58.49    7.10
   3   0  -8  157.58    9.10
   3   0  -8  136.79    9.90
  -3   0   8  168.68   10.80
   2   0  -8   51.49    6.50
   2   0  -8   52.89    4.60
   2   0  -8   49.99    4.70
  -2   0   8   47.50    6.60
   1   0  -8   68.19    6.40
   1   0  -8   80.79    5.90
   1   0  -8   64.49    5.50
  -1   0   8   75.49    6.80
   0   0  -8    1.60    2.10
   0   0  -8    0.20    1.70
   0   0   8    4.40    2.60
  -1   0  -8  189.28   11.60
  -1   0  -8  185.18   10.80
   1   0   8  173.58   11.40
   1   0   8  175.98   10.70
  -2   0  -8    1.90    2.30
  -2   0  -8    0.00    2.00
   2   0   8    0.60    2.30
   2   0   8    0.20    1.90
  -3   0  -8  220.18   12.90
  -3   0  -8  210.78   12.60
   3   0   8  188.08   12.40
  -4   0  -8   42.80    6.70
  -4   0  -8   56.19    6.80
   4   0   8   43.70    6.20
   4   0   8   40.40    5.60
  -5   0  -8    6.60    2.80
  -5   0  -8   11.10    4.10
   5   0   8    6.70    3.60
   5   0   8    6.10    3.10
  -6   0  -8  132.79    9.50
  -6   0  -8  116.29   10.60
   6   0   8  128.69    9.50
   6   0   8  119.69   10.60
  -7   0  -8    0.80    6.20
  -7   0  -8   -0.50    2.30
   7   0   8    2.10    2.80
   7  -1  -8    4.90    3.70
   7  -1  -8    7.30    2.80
  -7   1   8    6.50    3.00
  -7   1   8    6.90    3.40
   6  -1  -8  117.39    9.00
   6  -1  -8  122.09    8.50
  -6   1   8  123.19    9.40
  -6   1   8  145.09    9.20
   5  -1  -8   14.30    3.00
   5  -1  -8   16.80    4.00
  -5   1   8   18.40    4.20
  -5   1   8   13.10    3.20
   4  -1  -8   15.00    3.50
   4  -1  -8   23.40    3.50
  -4   1   8   19.40    4.10
  -4   1   8   14.70    3.00
   3  -1  -8   36.40    4.10
   3  -1  -8   39.00    5.40
  -3   1   8   32.90    5.20
   2  -1  -8  161.38   10.20
   2  -1  -8  156.08    8.60
   2  -1  -8  151.38    8.50
  -2   1   8  148.39   10.20
   1  -1  -8  112.59    6.90
   1  -1  -8  111.49    8.20
   1  -1  -8  120.49    7.20
  -1   1   8  103.99    8.20
   0  -1  -8   35.50    5.40
   0  -1  -8   43.40    4.60
   0   1   8   38.00    4.40
   0   1   8   50.79    6.50
  -1  -1  -8  228.38   13.90
  -1  -1  -8  264.87   13.30
   1   1   8  249.58   13.20
   1   1   8  243.78   14.10
  -2  -1  -8   52.39    6.70
  -2  -1  -8   81.09    6.20
   2   1   8   74.09    6.20
   2   1   8   80.49    6.70
  -3  -1  -8   54.59    6.50
  -3  -1  -8   60.79    6.90
   3   1   8   68.19    7.40
   3   1   8   38.10    5.50
  -4  -1  -8  103.69    9.70
  -4  -1  -8  108.89    8.30
   4   1   8   88.59    7.70
   4   1   8  111.09    8.50
  -5  -1  -8   16.60    4.60
  -5  -1  -8   10.00    3.50
   5   1   8   14.60    4.40
   5   1   8   21.50    4.20
  -6  -1  -8   45.50    7.40
  -6  -1  -8   54.99    7.10
   6   1   8   62.19    8.20
   6   1   8   61.89    7.20
  -7  -1  -8    4.70    3.90
  -7  -1  -8   -0.10    2.40
   7   1   8   -2.00    2.40
   7   1   8    5.50    4.90
   7  -2  -8   -0.20    2.20
   7  -2  -8    0.90    2.60
  -7   2   8    1.00    2.00
  -7   2   8   -0.40    2.30
   6  -2  -8    9.60    2.90
   6  -2  -8   19.40    4.10
  -6   2   8   10.40    3.30
  -6   2   8   16.30    3.60
   5  -2  -8   31.60    5.00
   5  -2  -8   19.60    3.20
  -5   2   8   25.30    4.50
  -5   2   8   17.70    3.20
   4  -2  -8   29.20    3.60
   4  -2  -8   47.00    5.80
  -4   2   8   42.10    3.90
  -4   2   8   45.00    5.80
   3  -2  -8  279.57   13.40
   3  -2  -8  269.17   15.30
  -3   2   8  307.47   15.90
   2  -2  -8    2.70    2.20
   2  -2  -8    3.10    1.40
   2  -2  -8    4.30    1.70
  -2   2   8    3.50    2.40
   1  -2  -8  371.06   19.60
  -1   2   8  397.66   19.80
   0  -2  -8   96.89    7.60
   0   2   8  107.79    6.50
   0   2   8  104.29    7.90
  -1  -2  -8    7.40    2.40
  -1  -2  -8    4.10    2.50
   1   2   8    9.50    2.50
   1   2   8    6.70    2.90
  -2  -2  -8  188.48   10.50
  -2  -2  -8  183.88   11.40
   2   2   8  177.38   10.40
   2   2   8  180.98   11.40
  -3  -2  -8   18.50    4.00
  -3  -2  -8   25.10    4.30
   3   2   8   19.00    3.70
   3   2   8   23.90    4.30
  -4  -2  -8   57.39    7.30
  -4  -2  -8   44.30    6.10
   4   2   8   70.99    7.40
   4   2   8   60.89    7.20
  -5  -2  -8   -0.80    1.80
  -5  -2  -8    4.50    2.90
   5   2   8   -2.10    2.20
   5   2   8   -1.10    2.00
  -6  -2  -8  113.99    8.80
  -6  -2  -8  104.79    9.40
   6   2   8  103.59    8.40
   6   2   8  102.09    9.20
  -7  -2  -8   25.70    5.10
  -7  -2  -8   19.30    5.40
   7   2   8   25.80    5.80
  -8  -2  -8   11.50    3.80
  -8  -2  -8    4.70    4.20
   8   2   8   10.90    4.70
   8   2   8   12.70    3.80
   7  -3  -8    1.40    2.80
   7  -3  -8   -2.30    1.70
  -7   3   8    1.00    2.40
  -7   3   8    1.10    2.30
   6  -3  -8   13.20    3.30
   6  -3  -8   20.00    4.10
  -6   3   8   13.40    3.30
  -6   3   8   13.50    3.60
   5  -3  -8    6.40    2.60
   5  -3  -8    2.70    1.90
  -5   3   8    4.30    2.90
  -5   3   8    2.60    2.00
   4  -3  -8  128.09    9.00
   4  -3  -8  133.09    7.40
  -4   3   8  140.39    7.60
  -4   3   8  145.19    9.50
   3  -3  -8   57.09    6.80
   3  -3  -8   57.89    3.90
  -3   3   8   59.89    6.60
   2  -3  -8    4.00    1.30
   2  -3  -8    7.20    1.50
   2  -3  -8    2.60    2.20
  -2   3   8    2.60    2.20
   1  -3  -8  618.64   29.50
   1  -3  -8  625.44   26.80
  -1   3   8  627.14   29.60
   0  -3  -8   85.29    6.90
   0  -3  -8   81.79    5.00
   0   3   8   82.09    6.80
   0   3   8   79.89    5.00
  -1  -3  -8    3.50    1.80
  -1  -3  -8    3.70    2.20
   1   3   8    1.60    2.10
   1   3   8    3.30    1.80
  -2  -3  -8   32.20    4.10
  -2  -3  -8   16.10    3.80
   2   3   8   27.70    4.80
   2   3   8   27.50    3.80
  -3  -3  -8    0.70    1.80
  -3  -3  -8    0.50    1.80
   3   3   8    2.30    1.90
   3   3   8    1.50    2.30
  -4  -3  -8  146.79    9.80
  -4  -3  -8  169.78   10.60
   4   3   8  134.59    9.80
   4   3   8  137.79    9.50
  -5  -3  -8    1.90    3.30
  -5  -3  -8    1.90    2.40
   5   3   8    7.00    3.00
   5   3   8    4.00    2.70
  -6  -3  -8  259.67   15.10
  -6  -3  -8  235.08   15.30
   6   3   8  259.67   15.60
  -7  -3  -8  157.98   12.60
  -7  -3  -8  207.88   12.60
   7   3   8  182.98   13.00
   7   3   8  165.08   11.50
  -8  -3  -8   21.60    6.50
  -8  -3  -8   21.80    5.50
   8   3   8   19.00    5.30
   8   3   8   26.60    5.10
   7  -4  -8    0.30    2.00
   7  -4  -8    2.50    2.80
  -7   4   8    1.40    2.10
  -7   4   8   -0.80    2.20
   6  -4  -8   31.30    4.80
   6  -4  -8   18.40    3.40
  -6   4   8   22.40    3.70
  -6   4   8   23.90    4.10
   5  -4  -8   17.60    2.80
   5  -4  -8   25.80    4.30
  -5   4   8   24.00    3.30
  -5   4   8   27.10    4.70
   4  -4  -8   10.50    3.10
  -4   4   8    9.90    1.90
  -4   4   8    5.90    2.60
   3  -4  -8   57.09    6.70
  -3   4   8   54.09    6.30
   2  -4  -8   34.00    5.00
  -2   4   8   36.60    5.10
   1  -4  -8  244.78   13.70
  -1   4   8  226.58   13.30
   0  -4  -8  259.37   14.20
   0  -4  -8  240.38   11.00
   0   4   8  229.18   13.60
  -1  -4  -8  111.89    8.30
   1   4   8  101.79    6.00
   1   4   8  109.89    8.10
  -2  -4  -8   62.19    5.00
  -2  -4  -8   65.69    7.50
   2   4   8   67.09    5.10
   2   4   8   71.09    7.50
  -3  -4  -8    0.40    1.90
   3   4   8    2.20    1.90
   3   4   8    0.10    1.80
  -4  -4  -8  392.36   19.70
  -4  -4  -8  366.46   20.40
   4   4   8  391.86   19.60
   4   4   8  392.96   20.30
  -5  -4  -8  253.37   14.80
  -5  -4  -8  224.18   14.10
   5   4   8  251.37   14.20
  -6  -4  -8   86.29    8.00
  -6  -4  -8   86.89    8.20
   6   4   8   92.89    7.90
   6   4   8   94.09    8.20
  -7  -4  -8   78.49    9.90
  -7  -4  -8   85.59    9.80
   7   4   8   75.59    8.50
   7   4   8   88.09    9.70
  -8  -4  -8   10.60    3.80
  -8  -4  -8    8.80    4.40
   8   4   8   10.10    3.40
   6  -5  -8    7.10    2.70
   6  -5  -8   16.50    3.50
  -6   5   8   13.90    3.30
  -6   5   8   13.50    3.10
   5  -5  -8   10.40    3.20
   5  -5  -8    6.10    2.10
  -5   5   8   12.00    2.50
  -5   5   8   10.30    3.20
   4  -5  -8    0.20    2.00
   4  -5  -8    0.40    1.20
  -4   5   8   -0.30    1.10
  -4   5   8   -3.20    1.70
   3  -5  -8   80.39    6.70
  -3   5   8   77.99    6.60
   2  -5  -8   76.99    6.50
  -2   5   8   71.09    6.40
   1  -5  -8   70.89    6.30
  -1   5   8   66.79    6.20
   0  -5  -8    1.50    2.00
   0   5   8    1.70    2.10
  -1  -5  -8  281.07   13.10
  -1  -5  -8  290.87   15.90
   1   5   8  274.87   15.40
  -2  -5  -8  133.89    7.60
  -2  -5  -8  115.29    9.00
   2   5   8  121.19    8.90
   2   5   8  134.19    7.50
  -3  -5  -8   28.40    5.20
  -3  -5  -8   20.90    3.60
   3   5   8   20.70    4.20
   3   5   8   19.10    3.40
  -4  -5  -8  131.99    8.80
  -4  -5  -8  132.09    9.70
   4   5   8  137.69    8.90
   4   5   8  112.09   10.70
  -5  -5  -8  240.28   14.30
  -5  -5  -8  214.98   13.30
   5   5   8  218.28   13.60
  -6  -5  -8    7.00    3.30
  -6  -5  -8    6.70    3.30
   6   5   8    4.50    2.80
   6   5   8    8.50    3.70
  -7  -5  -8  136.09   10.50
  -7  -5  -8  135.49   10.90
   7   5   8  124.29   10.50
   7   5   8  142.29   10.30
  -8  -5  -8    0.10    3.00
  -8  -5  -8   -0.70    2.20
   8   5   8    3.30    3.10
   8   5   8    3.00    3.70
   6  -6  -8    3.00    2.20
   6  -6  -8    0.80    2.30
  -6   6   8    0.00    2.20
  -6   6   8   -0.40    1.80
   5  -6  -8    1.10    2.00
   5  -6  -8    1.50    1.80
  -5   6   8   -1.00    1.40
  -5   6   8    0.40    2.20
   4  -6  -8    0.40    2.10
  -4   6   8    3.50    2.40
   3  -6  -8   15.60    3.70
  -3   6   8   16.20    3.80
   2  -6  -8    5.70    2.70
  -2   6   8    5.50    2.70
   1  -6  -8   91.79    7.70
  -1   6   8  102.99    7.70
   0  -6  -8    8.10    2.90
   0   6   8    8.10    2.90
  -1  -6  -8    0.80    1.00
  -1  -6  -8    0.50    1.80
   1   6   8    0.70    1.80
   1   6   8   -1.30    1.10
  -2  -6  -8   81.19    8.70
  -2  -6  -8   72.69    5.00
   2   6   8   64.99    4.90
   2   6   8   76.29    6.70
  -3  -6  -8  124.39    9.60
  -3  -6  -8  130.59    8.10
   3   6   8  126.39    7.90
  -4  -6  -8   71.29    8.00
  -4  -6  -8   59.39    6.70
   4   6   8   45.80    6.50
   4   6   8   69.49    5.80
  -5  -6  -8   60.09    7.80
  -5  -6  -8   58.29    7.00
   5   6   8   52.09    6.90
   5   6   8   66.49    7.40
  -6  -6  -8   16.80    4.80
  -6  -6  -8   18.20    4.50
   6   6   8   16.20    4.40
   6   6   8   15.40    4.00
  -7  -6  -8  117.19    9.90
  -7  -6  -8  118.19   10.10
   7   6   8  107.69    9.60
   7   6   8  128.79    9.90
  -8  -6  -8    0.40    3.70
  -8  -6  -8    1.10    2.70
   8   6   8    2.60    3.50
   8   6   8    0.20    2.50
   5  -7  -8    4.40    2.00
   5  -7  -8    5.80    2.80
  -5   7   8    6.10    2.20
  -5   7   8    8.90    3.00
   4  -7  -8    4.80    2.70
  -4   7   8    5.10    2.60
   3  -7  -8   28.10    4.90
  -3   7   8   20.90    3.90
   2  -7  -8  151.38   10.20
  -2   7   8  150.18    9.90
   1  -7  -8    4.10    2.60
  -1   7   8    7.50    2.80
   0  -7  -8   49.00    6.50
   0   7   8   60.99    7.30
  -1  -7  -8  217.48   14.20
  -1  -7  -8  247.28   11.30
   1   7   8  244.28   11.20
   1   7   8  257.77   14.60
  -2  -7  -8    1.50    1.50
  -2  -7  -8   -1.20    1.70
   2   7   8    1.90    2.00
   2   7   8    2.10    1.70
  -3  -7  -8   42.70    5.30
  -3  -7  -8   38.20    6.60
   3   7   8   31.70    5.30
   3   7   8   45.20    5.00
  -4  -7  -8  142.99    9.20
  -4  -7  -8  150.38   10.90
   4   7   8  128.99   10.10
   4   7   8  133.29    8.90
  -5  -7  -8  215.98   13.00
  -5  -7  -8  220.08   14.30
   5   7   8  210.18   13.80
   5   7   8  220.18   13.10
  -6  -7  -8    8.50    3.80
  -6  -7  -8   14.10    4.20
   6   7   8    5.50    2.90
   6   7   8   10.20    3.80
  -7  -7  -8   94.79    8.70
  -7  -7  -8   79.59    9.60
   7   7   8   89.89    8.60
   7   7   8   77.69    9.30
  -8  -7  -8   14.70    4.60
  -8  -7  -8   18.10    5.40
   8   7   8   15.50    5.10
   8   7   8   21.70    5.00
   5  -8  -8   31.70    4.70
  -5   8   8   21.80    4.00
  -5   8   8   31.90    3.60
   4  -8  -8    7.10    2.80
  -4   8   8    6.60    1.60
  -4   8   8   10.00    2.30
  -4   8   8    5.50    2.90
   3  -8  -8    0.00    2.20
  -3   8   8    1.60    2.20
   2  -8  -8    5.70    2.90
  -2   8   8   17.20    3.90
   1  -8  -8   -0.50    2.00
  -1   8   8   -0.80    2.10
   0  -8  -8    9.50    3.50
  -1  -8  -8   15.50    2.30
  -1  -8  -8   22.30    5.00
   1   8   8   18.50    4.10
  -2  -8  -8  226.18   16.20
  -2  -8  -8  235.58   11.80
   2   8   8  228.08   11.70
   2   8   8  239.68   14.50
  -3  -8  -8  121.09    9.80
  -3  -8  -8  115.59    7.50
   3   8   8  110.89    7.50
   3   8   8  122.49    9.50
  -4  -8  -8   27.90    4.30
  -4  -8  -8   38.60    6.80
   4   8   8   20.40    4.90
   4   8   8   21.90    4.10
  -5  -8  -8  547.15   26.80
  -5  -8  -8  534.45   28.30
   5   8   8  533.85   28.10
   5   8   8  552.34   26.90
  -6  -8  -8   25.70    5.50
  -6  -8  -8   22.90    5.20
   6   8   8   23.90    5.00
   6   8   8   29.50    5.90
  -7  -8  -8    4.10    3.00
  -7  -8  -8    3.80    3.10
   7   8   8    2.30    2.60
   7   8   8    6.10    3.60
  -8  -8  -8   26.40    6.30
  -8  -8  -8   39.30    6.80
   8   8   8   30.20    6.00
   8   8   8   48.10    7.70
   4  -9  -8   11.80    3.50
  -4   9   8   20.10    4.00
  -4   9   8    8.20    2.60
  -4   9   8   12.50    3.50
   3  -9  -8    5.00    2.80
  -3   9   8    5.50    2.90
   2  -9  -8    0.60    2.40
   1  -9  -8   -0.50    1.90
  -1   9   8    0.60    2.10
   0  -9  -8   -0.20    2.50
   0   9   8    0.70    1.10
   0   9   8    2.20    2.20
   0   9   8   -0.50    1.00
  -1  -9  -8    5.80    3.20
   1   9   8    4.30    2.60
   1   9   8    5.40    1.80
  -2  -9  -8   16.60    2.90
  -2  -9  -8   17.30    4.50
   2   9   8   20.40    4.70
   2   9   8   22.00    3.40
  -3  -9  -8  127.99   10.60
  -3  -9  -8  142.69    8.60
   3   9   8  143.69    8.60
   3   9   8  122.89   10.20
  -4  -9  -8    1.90    2.10
  -4  -9  -8    2.90    2.90
   4   9   8    3.10    2.70
   4   9   8    0.00    2.00
  -5  -9  -8  172.08   12.90
  -5  -9  -8  164.68   11.20
   5   9   8  180.18   12.60
  -6  -9  -8   -0.90    2.50
  -6  -9  -8    1.00    2.90
   6   9   8    0.30    2.80
   6   9   8    4.20    2.70
  -7  -9  -8   28.60    6.00
  -7  -9  -8   26.80    5.90
   7   9   8   30.80    6.10
   7   9   8   22.10    5.20
  -8  -9  -8   23.60    6.10
  -8  -9  -8   34.60    6.80
   8   9   8   17.60    5.30
   3 -10  -8   -0.80    2.40
  -3  10   8    2.20    1.60
  -3  10   8   -2.00    1.80
  -2  10   8   19.70    4.40
  -2  10   8   24.50    2.70
  -2  10   8   22.20    2.30
   1 -10  -8    4.30    3.00
  -1  10   8    2.10    1.30
  -1  10   8    1.60    2.40
  -1  10   8    2.80    1.30
   0 -10  -8   34.50    5.90
   0  10   8   42.10    5.70
   0  10   8   30.70    3.60
   0  10   8   28.50    5.70
  -1 -10  -8   37.10    6.20
   1  10   8   36.80    6.00
   1  10   8   29.00    3.60
   1  10   8   34.90    4.00
  -2 -10  -8    0.70    1.80
  -2 -10  -8    1.90    2.60
   2  10   8    0.30    1.70
   2  10   8   -2.10    1.70
  -3 -10  -8  145.79   11.50
  -3 -10  -8  150.48    9.30
   3  10   8  155.28   11.50
   3  10   8  139.89    9.10
  -4 -10  -8   20.20    5.10
  -4 -10  -8   20.30    4.20
   4  10   8   15.90    3.80
   4  10   8   22.20    5.00
  -5 -10  -8   25.10    5.70
  -5 -10  -8   23.70    4.80
   5  10   8   23.00    5.00
   5  10   8   27.50    6.00
  -6 -10  -8    1.30    2.70
  -6 -10  -8    0.60    2.70
   6  10   8    1.90    3.20
   6  10   8    0.00    2.70
  -7 -10  -8  161.28   13.00
  -7 -10  -8  157.08   12.00
   7  10   8  156.98   11.80
  -8 -10  -8  125.19   13.60
  -8 -10  -8   99.39   11.80
   2 -11  -8   15.40    4.50
  -2  11   8   22.80    2.90
  -2  11   8   20.50    4.80
  -2  11   8   13.20    2.80
   1 -11  -8   21.60    5.00
  -1  11   8   25.50    5.00
  -1  11   8   20.40    2.90
  -1  11   8   23.10    3.00
   0 -11  -8    3.90    3.10
   0  11   8    4.40    1.90
   0  11   8    2.20    2.90
   0  11   8    3.80    1.90
  -1 -11  -8   38.20    6.60
   1  11   8   27.70    5.60
   1  11   8   35.90    4.40
   1  11   8   48.20    5.00
  -2 -11  -8    0.80    3.00
  -2 -11  -8   -1.50    1.90
   2  11   8    2.30    2.70
   2  11   8    0.20    1.90
  -3 -11  -8   86.79   10.50
  -3 -11  -8   64.39    6.30
   3  11   8   91.49   10.80
   3  11   8   76.39    6.30
  -4 -11  -8   11.10    4.30
  -4 -11  -8   10.90    3.50
   4  11   8   14.80    3.90
  -5 -11  -8   13.30    4.30
  -5 -11  -8   16.20    5.00
   5  11   8   16.60    4.10
  -6 -11  -8   44.10    6.90
  -6 -11  -8   41.00    7.50
   6  11   8   44.00    6.80
  -7 -11  -8    8.20    3.70
  -7 -11  -8    7.30    4.20
   7  11   8   12.40    4.70
   7  11   8    8.80    4.20
   1 -12  -8    3.70    3.20
  -1  12   8    4.80    2.20
  -1  12   8    3.40    2.70
  -1  12   8    3.50    2.10
   0 -12  -8   12.80    4.70
   0  12   8    2.90    2.40
   0  12   8    7.30    3.90
   0  12   8    9.00    2.70
  -1 -12  -8    4.60    3.70
   1  12   8    8.00    2.70
   1  12   8    5.60    3.50
   1  12   8    2.60    2.40
  -2 -12  -8   14.20    4.80
   2  12   8    9.40    4.10
   2  12   8    5.10    2.60
  -3 -12  -8   14.20    3.80
  -3 -12  -8   21.60    5.50
   3  12   8    9.80    4.60
   3  12   8   16.00    4.10
  -4 -12  -8   25.20    5.00
  -4 -12  -8   21.40    6.20
   4  12   8   21.50    4.70
  -5 -12  -8   29.30    5.60
  -5 -12  -8   54.69    9.10
   5  12   8   36.70    6.30
  -6 -12  -8  131.19   10.60
   6  12   8  117.69   10.00
   6  12   8  143.09   12.40
  -1 -13  -8   42.90    7.80
   1  13   8   35.30    5.10
   1  13   8   37.20    5.20
   1  13   8   36.20    6.80
  -2 -13  -8    2.00    3.40
   2  13   8    2.70    2.80
   2  13   8    0.10    2.90
   2  13   8    1.30    2.30
  -3 -13  -8   26.30    5.10
  -3 -13  -8   43.80    8.20
   3  13   8   30.70    8.40
  -4 -13  -8  126.69    9.60
   4  13   8  118.39   13.70
   4  13   8  127.29    9.60
  -5 -13  -8    1.80    3.30
  -5 -13  -8    7.50    3.90
   5  13   8    5.60    3.50
   3   7  -9    8.70    7.10
   3   7  -9    4.50    3.60
   3   7  -9    3.40    3.50
  -3  -7   9    0.50    3.30
   2   7  -9   83.19   10.50
   2   7  -9  120.99   11.20
  -2  -7   9   98.09   11.80
   1   7  -9    9.60    4.50
   1   7  -9    9.80    5.30
  -1  -7   9   14.20    5.10
   5   6  -9   53.09    7.80
  -5  -6   9   39.20    7.80
   4   6  -9   26.20    5.80
   4   6  -9   36.30    6.40
   3   6  -9    0.60    3.00
   3   6  -9   -1.90    2.70
   3   6  -9    0.40    2.70
   2   6  -9   48.90    7.10
   2   6  -9   47.90    7.20
   1   6  -9   71.79    8.70
   1   6  -9   67.29    8.60
   0   6  -9   40.30    6.80
   0   6  -9   28.60    5.90
  -1   6  -9    1.40    3.60
  -1   6  -9    2.50    3.30
  -1   6  -9   -1.40    4.20
   1  -6   9   -0.10    3.00
   6   5  -9   17.90    5.50
  -6  -5   9   25.50    6.70
  -6  -5   9   28.00    6.20
   5   5  -9   -0.30    2.80
   5   5  -9    3.70    3.70
   5   5  -9    6.90    3.70
  -5  -5   9    7.50    4.20
   4   5  -9    6.00    3.70
   4   5  -9    2.70    3.30
   4   5  -9    6.50    3.70
  -4  -5   9    5.60    3.60
   3   5  -9   11.50    3.90
   3   5  -9    6.80    3.70
   3   5  -9    8.90    3.80
   2   5  -9   16.10    4.60
   2   5  -9   14.50    4.30
   2   5  -9   16.40    4.60
  -2  -5   9    3.00    2.90
   1   5  -9    2.60    3.00
   1   5  -9   -1.70    2.60
   1   5  -9   -0.30    2.70
  -1  -5   9   -3.00    2.10
   0   5  -9   11.40    4.30
   0   5  -9    9.80    4.20
   0   5  -9   12.50    4.50
   0  -5   9    9.20    4.20
  -1   5  -9    0.40    3.10
  -1   5  -9   -1.20    3.20
  -1   5  -9   -2.10    2.60
   1  -5   9   -0.20    2.70
  -2   5  -9   35.40    7.00
  -2   5  -9   47.00    7.00
   2  -5   9   31.20    6.50
  -3   5  -9   10.20    4.10
  -3   5  -9    8.10    4.30
   3  -5   9    7.40    4.60
   3  -5   9    7.30    4.20
   6   4  -9   42.90    7.00
   6   4  -9   26.80    5.90
  -6  -4   9   44.10    7.50
  -6  -4   9   36.00    6.70
   5   4  -9   -1.00    2.90
   5   4  -9   -0.30    2.30
  -5  -4   9   -0.80    3.20
  -5  -4   9    0.60    2.80
   4   4  -9   -1.90    2.20
   4   4  -9    0.20    2.90
   4   4  -9    0.10    2.50
  -4  -4   9    0.40    2.50
   3   4  -9    5.10    3.30
   3   4  -9    5.00    3.10
   3   4  -9    4.70    3.40
  -3  -4   9    5.50    3.60
   2   4  -9   40.20    6.20
   2   4  -9   34.30    5.80
   2   4  -9   43.00    6.30
  -2  -4   9   33.90    6.70
   1   4  -9   45.50    6.30
   1   4  -9   34.10    6.00
   1   4  -9   37.90    6.20
  -1  -4   9   29.10    5.80
   0   4  -9    0.50    2.60
   0   4  -9    1.20    2.50
   0   4  -9    0.80    2.80
   0  -4   9   -3.10    2.00
  -1   4  -9   89.69    8.50
  -1   4  -9   81.69    9.60
  -1   4  -9   91.89    8.50
   1  -4   9   78.39    9.70
  -2   4  -9   78.19    8.90
  -2   4  -9   79.39    9.00
   2  -4   9   57.39    8.20
   2  -4   9   69.69    8.80
  -3   4  -9    2.90    3.60
  -3   4  -9    3.30    3.20
   3  -4   9    6.50    3.60
   3  -4   9    4.00    3.70
  -4   4  -9    3.60    3.90
  -4   4  -9    9.50    3.80
   4  -4   9   -0.60    2.70
   4  -4   9   -0.70    3.20
   7   3  -9   -0.70    2.60
   7   3  -9    0.30    2.90
  -7  -3   9   -1.50    3.20
  -7  -3   9   -0.60    3.20
   6   3  -9  134.09   11.20
   6   3  -9  140.09   10.70
  -6  -3   9  147.09   11.30
  -6  -3   9  158.48   12.50
   5   3  -9   27.30    5.20
   5   3  -9   15.40    4.10
  -5  -3   9   28.30    5.40
  -5  -3   9   23.60    5.60
   4   3  -9  141.39   10.70
   4   3  -9  133.19    9.70
   4   3  -9  131.69   10.00
  -4  -3   9  126.79   11.10
   3   3  -9    3.10    2.70
   3   3  -9    7.00    3.70
   3   3  -9    5.90    3.00
  -3  -3   9    1.00    2.60
   2   3  -9    3.70    2.80
   2   3  -9   11.90    3.50
   2   3  -9    7.90    3.50
  -2  -3   9    0.90    2.40
   1   3  -9   47.40    6.70
   1   3  -9   53.89    6.70
   1   3  -9   45.70    6.10
  -1  -3   9   41.30    6.70
   0   3  -9   56.99    7.30
   0   3  -9   54.09    6.70
   0   3  -9   71.59    8.70
   0  -3   9   57.09    7.80
  -1   3  -9    6.20    3.60
  -1   3  -9    4.00    2.80
   1  -3   9    1.90    2.90
   1  -3   9    5.50    3.70
  -2   3  -9   62.09    7.70
  -2   3  -9   73.39    8.60
   2  -3   9   70.29    8.70
   2  -3   9   57.39    7.70
  -3   3  -9   11.30    3.90
  -3   3  -9    9.50    4.00
   3  -3   9    6.30    3.70
   3  -3   9   12.40    4.20
  -4   3  -9    3.20    3.20
  -4   3  -9    3.50    3.60
   4  -3   9    1.10    3.40
   4  -3   9    0.40    2.70
  -5   3  -9    0.00    2.60
  -5   3  -9   -1.00    3.40
   5  -3   9    1.30    3.90
   5  -3   9    1.20    3.00
   7   2  -9    9.10    3.60
   7   2  -9    9.00    4.10
  -7  -2   9   14.10    4.50
  -7  -2   9   17.40    5.20
   6   2  -9    7.60    3.20
   6   2  -9    9.10    4.00
  -6  -2   9    6.30    3.50
  -6  -2   9    1.60    3.10
   5   2  -9   12.40    3.70
   5   2  -9    9.80    3.80
  -5  -2   9    8.70    3.90
   4   2  -9   66.79    8.20
  -4  -2   9   58.29    7.90
   3   2  -9   17.30    3.90
   3   2  -9   29.30    5.20
   3   2  -9   17.50    4.40
  -3  -2   9   23.60    5.30
   2   2  -9   55.09    7.40
   2   2  -9   53.29    6.20
   2   2  -9   57.79    6.60
  -2  -2   9   74.89    9.20
   1   2  -9    1.30    2.50
   1   2  -9   -0.90    2.00
   1   2  -9    2.70    2.40
  -1  -2   9    1.20    2.40
   0   2  -9   10.20    3.10
   0   2  -9   19.70    4.50
   0   2  -9   11.00    3.40
   0  -2   9   13.70    4.10
  -1   2  -9   51.49    7.20
  -1   2  -9   50.09    6.60
   1  -2   9   37.10    5.90
   1  -2   9   38.70    5.90
  -2   2  -9    4.90    3.30
  -2   2  -9    4.40    3.00
   2  -2   9    3.20    3.00
   2  -2   9    5.10    3.00
  -3   2  -9  149.59   11.40
  -3   2  -9  183.48   11.80
   3  -2   9  141.29   11.60
   3  -2   9  163.68   11.60
  -4   2  -9   12.70    4.40
  -4   2  -9    9.40    3.80
   4  -2   9   16.30    4.40
   4  -2   9   14.60    4.70
  -5   2  -9    2.70    3.90
  -5   2  -9    2.20    2.90
   5  -2   9   -1.90    2.70
   7   1  -9   11.70    4.20
   7   1  -9   16.10    3.80
  -7  -1   9   20.70    5.30
  -7  -1   9   15.80    4.70
   6   1  -9   14.30    3.90
   6   1  -9    8.30    3.80
  -6  -1   9   12.70    4.30
  -6  -1   9   14.00    4.60
   5   1  -9   63.89    8.00
   5   1  -9   56.19    7.00
  -5  -1   9   73.19    6.90
  -5  -1   9   67.59    8.70
   4   1  -9   11.70    3.70
   4   1  -9    7.70    2.80
  -4  -1   9   11.00    3.40
  -4  -1   9    9.60    3.70
   3   1  -9   22.90    4.60
   3   1  -9   20.30    3.80
   3   1  -9   20.70    4.00
  -3  -1   9   18.90    4.90
   2   1  -9   19.40    3.80
   2   1  -9   22.50    4.50
   2   1  -9   27.00    4.10
  -2  -1   9   33.70    5.90
   1   1  -9    1.40    2.20
   1   1  -9   -1.20    2.00
   1   1  -9    5.90    2.80
  -1  -1   9    2.30    2.70
   0   1  -9    1.60    2.20
   0   1  -9   -1.20    1.80
   0   1  -9    1.10    2.20
   0  -1   9    2.40    2.40
  -1   1  -9  124.09    9.10
  -1   1  -9  118.79    9.40
   1  -1   9  121.89    9.70
   1  -1   9  131.09   10.00
  -2   1  -9   -1.40    2.40
  -2   1  -9    0.30    2.10
   2  -1   9    0.00    2.20
   2  -1   9    2.90    2.90
  -3   1  -9    3.20    3.10
  -3   1  -9    5.10    3.10
   3  -1   9    7.70    3.50
   3  -1   9    6.50    3.30
  -4   1  -9    6.60    3.90
  -4   1  -9    6.70    3.30
   4  -1   9    6.50    3.60
   4  -1   9    9.30    3.60
  -5   1  -9   19.00    5.20
  -5   1  -9   30.50    5.60
   5  -1   9   22.80    5.90
   5  -1   9   24.40    5.00
  -6   1  -9    0.00    2.60
   6  -1   9    1.00    2.90
   6  -1   9    4.30    4.10
   7   0  -9    2.30    2.70
   7   0  -9    2.40    3.10
  -7   0   9   -0.60    2.90
  -7   0   9    1.70    3.10
   6   0  -9   85.59    7.20
   6   0  -9   97.19    8.50
  -6   0   9   98.59    7.90
  -6   0   9   74.59    9.20
   5   0  -9  127.29   10.10
   5   0  -9  149.29    9.30
  -5   0   9  156.58   11.10
  -5   0   9  133.39    9.40
   4   0  -9    1.30    2.30
   4   0  -9    0.30    2.00
  -4   0   9   -1.40    2.10
  -4   0   9   -1.30    1.90
   3   0  -9   20.20    6.90
   3   0  -9   16.40    3.20
   3   0  -9   13.20    2.90
  -3   0   9   15.30    3.90
   2   0  -9   -1.60    1.80
   2   0  -9    1.20    1.90
   2   0  -9   -0.40    2.40
  -2   0   9   -0.50    2.10
   1   0  -9   31.00    4.20
   1   0  -9   25.40    4.60
   1   0  -9   25.50    3.90
  -1   0   9   32.40    5.30
   0   0  -9    7.70    2.70
   0   0  -9   12.80    3.10
   0   0  -9    4.90    2.40
   0   0   9   15.80    4.20
  -1   0  -9   47.60    6.60
  -1   0  -9   38.50    5.00
   1   0   9   36.70    5.90
   1   0   9   31.90    4.80
  -2   0  -9    9.90    3.40
  -2   0  -9   10.70    3.70
   2   0   9    7.60    3.30
   2   0   9    9.50    3.20
  -3   0  -9  174.48   12.00
  -3   0  -9  188.38   16.80
   3   0   9  179.08   12.20
   3   0   9  208.18   12.60
  -4   0  -9   15.90    5.20
  -4   0  -9   12.60    4.20
   4   0   9    4.20    3.30
   4   0   9   10.80    3.50
  -5   0  -9   17.10    4.40
  -5   0  -9   24.50    5.40
   5   0   9   20.40    4.60
   5   0   9   12.00    4.40
  -6   0  -9    9.80    4.50
  -6   0  -9   16.60    4.40
   6   0   9    9.50    3.80
   6   0   9   10.20    4.30
   7  -1  -9   -0.60    2.70
  -7   1   9    0.30    2.90
  -7   1   9    5.20    3.30
   6  -1  -9   -0.50    4.70
   6  -1  -9    2.40    2.30
  -6   1   9    0.80    2.80
  -6   1   9    1.60    2.50
   5  -1  -9    3.70    3.10
   5  -1  -9    4.90    2.40
  -5   1   9    5.80    2.60
  -5   1   9    3.80    3.30
   4  -1  -9   15.50    2.90
   4  -1  -9   13.80    3.60
  -4   1   9   12.90    2.90
  -4   1   9   11.40    3.60
   3  -1  -9   24.50    3.40
   3  -1  -9   17.80    3.10
   3  -1  -9   24.80    4.60
  -3   1   9   29.40    5.30
   2  -1  -9    2.10    1.70
   2  -1  -9    2.40    2.50
   2  -1  -9    2.00    1.80
  -2   1   9    2.80    2.90
   1  -1  -9   63.49    5.20
   1  -1  -9   69.29    8.00
   1  -1  -9   56.79    5.00
   0  -1  -9   91.29    6.30
   0  -1  -9   71.49    6.90
  -1  -1  -9    4.20    2.70
  -1  -1  -9    2.40    2.30
   1   1   9    0.80    2.10
   1   1   9   -0.10    4.10
  -2  -1  -9   54.19    6.10
  -2  -1  -9   48.30    6.50
   2   1   9   65.09    7.60
   2   1   9   51.69    6.00
  -3  -1  -9   19.40    4.50
  -3  -1  -9   16.60    4.10
   3   1   9   23.80    5.00
  -4  -1  -9    8.50    3.60
  -4  -1  -9   12.30    4.30
   4   1   9   17.60    4.10
   4   1   9   13.80    4.00
  -5  -1  -9   61.59    8.10
  -5  -1  -9   65.89    9.40
   5   1   9   67.19    7.50
   5   1   9   56.29    7.60
  -6  -1  -9   85.89    7.80
  -6  -1  -9   62.89    8.70
   6   1   9   75.79    9.30
  -7  -1  -9   60.49    7.80
   7   1   9   39.50    7.40
   7  -2  -9    3.60    2.70
   7  -2  -9    2.30    2.80
  -7   2   9    5.70    3.70
  -7   2   9    3.70    2.90
   6  -2  -9   21.30    3.70
   6  -2  -9   28.30    5.20
  -6   2   9   29.50    5.30
  -6   2   9   24.20    4.10
   5  -2  -9    3.80    2.70
   5  -2  -9   -1.60    1.60
  -5   2   9    4.70    2.20
   4  -2  -9    5.50    2.10
   4  -2  -9    5.90    2.70
  -4   2   9    3.80    2.10
  -4   2   9   -1.30    4.40
   3  -2  -9   32.20    3.40
   3  -2  -9   25.40    3.30
   3  -2  -9   26.20    4.90
  -3   2   9   33.00    5.50
   2  -2  -9    1.40    2.20
   2  -2  -9    1.40    1.60
   2  -2  -9    0.50    1.30
  -2   2   9    2.00    2.10
   1  -2  -9   18.60    2.80
   1  -2  -9   22.20    4.60
   1  -2  -9   10.80    2.40
  -1   2   9   19.60    4.40
   0  -2  -9   60.59    4.90
   0  -2  -9   52.69    6.70
   0   2   9   77.29    8.30
  -1  -2  -9   27.30    5.00
  -1  -2  -9   34.70    4.40
   1   2   9   32.70    4.20
   1   2   9   34.70    5.30
  -2  -2  -9   -0.60    1.90
  -2  -2  -9    2.90    2.40
   2   2   9    5.50    2.50
  -3  -2  -9   23.70    4.90
  -3  -2  -9   19.10    4.00
   3   2   9   25.30    4.90
   3   2   9   16.70    3.90
  -4  -2  -9    7.60    3.10
   4   2   9   12.20    3.60
   4   2   9   13.20    4.00
  -5  -2  -9    9.20    3.80
   5   2   9    5.50    3.00
   5   2   9    9.40    3.90
  -6  -2  -9   13.20    4.10
  -6  -2  -9    7.50    4.10
   6   2   9   14.60    4.30
   6   2   9    2.80    3.70
  -7  -2  -9   46.00    7.90
  -7  -2  -9   55.49    7.70
   7   2   9   30.60    5.80
   7   2   9   47.80   11.70
   7  -3  -9   19.70    4.30
  -7   3   9   13.50    3.80
  -7   3   9   16.10    4.00
   6  -3  -9   14.10    3.90
   6  -3  -9   12.60    3.10
  -6   3   9   17.20    4.10
  -6   3   9   13.40    3.20
   5  -3  -9   23.10    3.20
   5  -3  -9   30.40    5.10
  -5   3   9   41.30    5.80
  -5   3   9   35.70    4.10
   4  -3  -9  118.89    8.80
   4  -3  -9  115.99    6.60
  -4   3   9  119.09    6.90
  -4   3   9  108.09    8.80
   3  -3  -9   31.70    5.20
   3  -3  -9   30.20    2.80
  -3   3   9   25.80    4.60
   2  -3  -9  136.29    9.50
   2  -3  -9  128.39    6.70
   2  -3  -9  127.49    6.80
  -2   3   9  144.99    9.70
   1  -3  -9   -1.00    1.10
   1  -3  -9    0.40    1.20
   1  -3  -9    2.70    2.40
  -1   3   9    1.60    2.30
   0  -3  -9    4.20    2.50
   0  -3  -9    6.50    1.90
   0   3   9    2.10    2.10
  -1  -3  -9   18.40    3.10
  -1  -3  -9   14.60    3.80
   1   3   9   15.20    3.80
   1   3   9   18.80    3.00
  -2  -3  -9   44.90    6.30
  -2  -3  -9   45.60    5.00
   2   3   9   49.20    7.80
   2   3   9   42.90    4.90
  -3  -3  -9   18.40    4.40
  -3  -3  -9   26.30    4.50
   3   3   9   22.50    4.70
   3   3   9   23.10    4.20
  -4  -3  -9   26.30    5.10
  -4  -3  -9   23.70    4.60
   4   3   9   25.90    4.80
   4   3   9   32.90    6.40
  -5  -3  -9    2.90    2.90
  -5  -3  -9    1.30    2.40
   5   3   9   -1.40    2.50
   5   3   9    2.20    2.60
  -6  -3  -9    7.60    3.60
  -6  -3  -9   13.50    4.60
   6   3   9    7.00    3.30
   6   3   9    1.90    3.20
  -7  -3  -9   26.90    6.10
  -7  -3  -9   23.30    5.10
   7   3   9   30.90    6.40
   7   3   9   30.90    5.40
   6  -4  -9   11.00    3.40
   6  -4  -9    5.70    2.40
  -6   4   9    6.90    3.00
  -6   4   9    8.90    2.60
   5  -4  -9    0.60    1.90
   5  -4  -9   -1.00    1.60
  -5   4   9    0.10    2.50
  -5   4   9   -0.50    1.60
   4  -4  -9   24.10    2.60
   4  -4  -9   24.10    2.60
   4  -4  -9   35.20    5.50
  -4   4   9   38.70    5.50
   3  -4  -9   35.90    5.70
  -3   4   9   40.70    5.70
   2  -4  -9   33.00    5.50
  -2   4   9   25.30    4.80
   1  -4  -9   59.79    7.20
  -1   4   9   41.90    6.00
   0  -4  -9    2.80    2.30
   0  -4  -9    1.50    1.30
   0   4   9    2.30    2.30
  -1  -4  -9   -1.50    1.40
  -1  -4  -9    0.20    1.40
   1   4   9    2.20    2.00
   1   4   9   -1.70    1.40
  -2  -4  -9   74.69    5.90
  -2  -4  -9   87.49    7.60
   2   4   9   89.49    6.10
  -3  -4  -9  134.19    9.80
  -3  -4  -9  130.79    8.60
   3   4   9  134.39    8.60
   3   4   9  126.19    9.50
  -4  -4  -9   46.50    6.10
   4   4   9   48.80    6.50
   4   4   9   45.90    5.80
  -5  -4  -9    6.80    3.10
  -5  -4  -9    5.90    3.30
   5   4   9    3.30    2.50
   5   4   9    7.80    3.30
  -6  -4  -9    8.70    3.70
  -6  -4  -9    1.30    3.00
   6   4   9    8.70    3.40
   6   4   9    5.00    3.40
  -7  -4  -9    3.40    3.10
  -7  -4  -9    8.80    4.30
   7   4   9    2.50    3.40
   7   4   9    6.30    2.80
  -8  -4  -9   13.60    4.30
   8   4   9    8.50    4.60
   8   4   9   11.70    4.00
   6  -5  -9    4.30    2.40
   6  -5  -9   10.20    3.30
  -6   5   9   10.40    2.70
  -6   5   9    2.50    2.70
   5  -5  -9    8.30    3.00
   5  -5  -9    8.80    3.40
  -5   5   9    8.90    3.30
   4  -5  -9   14.40    3.80
  -4   5   9   10.30    3.40
   3  -5  -9   23.40    4.60
  -3   5   9   23.90    4.80
   2  -5  -9  109.69    8.40
  -2   5   9   97.49    7.90
   1  -5  -9   55.59    7.00
  -1   5   9   38.50    5.60
   0  -5  -9   52.79    6.80
   0   5   9   41.60    5.90
  -1  -5  -9   30.80    5.40
  -1  -5  -9   24.80    3.20
   1   5   9   25.10    2.80
   1   5   9   28.40    7.90
  -2  -5  -9    6.50    3.10
  -2  -5  -9   -1.50    1.50
   2   5   9    3.20    2.50
   2   5   9    0.50    1.80
  -3  -5  -9    2.30    2.50
  -3  -5  -9    1.10    1.90
   3   5   9    2.00    2.40
   3   5   9    0.80    1.90
  -4  -5  -9  179.48   12.40
  -4  -5  -9  186.68   11.30
   4   5   9  175.38   11.00
   4   5   9  190.48   12.30
  -5  -5  -9   18.00    4.60
  -5  -5  -9   23.30    5.30
   5   5   9   24.90    4.80
   5   5   9   36.10    5.80
  -6  -5  -9   18.20    4.70
  -6  -5  -9   10.70    3.80
   6   5   9   19.30    5.40
   6   5   9   19.60    4.80
  -7  -5  -9    0.90    2.60
  -7  -5  -9    2.90    3.30
   7   5   9   -2.40    3.00
   7   5   9    2.60    2.70
  -8  -5  -9   13.20    5.00
  -8  -5  -9   22.30    5.60
   8   5   9   17.30    5.30
   8   5   9   19.00    5.00
   5  -6  -9   39.30    5.60
  -5   6   9   31.00    5.20
  -5   6   9   37.40    3.10
   4  -6  -9   16.50    4.20
  -4   6   9   18.40    4.10
   3  -6  -9   12.60    3.60
  -3   6   9   13.20    3.70
   2  -6  -9  126.89    9.40
  -2   6   9  120.59    9.00
   1  -6  -9   29.20    5.10
  -1   6   9   20.00    4.30
   0  -6  -9    1.40    2.00
  -1  -6  -9    2.50    2.10
  -1  -6  -9    0.70    1.20
   1   6   9    1.70    1.60
   1   6   9    0.80    2.10
  -2  -6  -9    1.50    1.70
  -2  -6  -9    2.80    2.70
   2   6   9    0.20    1.90
   2   6   9    0.20    1.50
  -3  -6  -9    5.30    2.50
  -3  -6  -9    4.70    2.90
   3   6   9   10.00    3.60
   3   6   9    5.40    2.30
  -4  -6  -9   97.89    8.80
  -4  -6  -9  115.99    8.00
   4   6   9   99.29    8.60
   4   6   9   94.19    7.40
  -5  -6  -9  278.37   15.50
  -5  -6  -9  282.87   16.70
   5   6   9  263.47   16.00
   5   6   9  244.88   15.00
  -6  -6  -9   39.60    6.30
  -6  -6  -9   40.20    7.10
   6   6   9   39.20    6.20
   6   6   9   36.10    6.50
  -7  -6  -9    1.20    3.00
  -7  -6  -9    0.80    3.10
   7   6   9    0.20    3.20
   7   6   9    0.20    2.40
  -8  -6  -9    0.30    2.90
  -8  -6  -9    1.40    3.50
   8   6   9    4.80    2.80
   5  -7  -9    4.90    2.90
  -5   7   9    5.80    3.10
   4  -7  -9   13.10    3.80
  -4   7   9    8.00    3.20
   3  -7  -9    1.70    2.30
  -3   7   9   -1.10    1.90
   2  -7  -9   41.20    6.20
  -2   7   9   45.50    7.30
   1  -7  -9   26.40    5.10
  -1   7   9   24.00    5.40
   0  -7  -9   37.70    5.90
   0   7   9   66.79    7.80
  -1  -7  -9   26.30    2.30
   1   7   9   26.80    2.40
   1   7   9   26.20    4.90
  -2  -7  -9   43.80    3.90
  -2  -7  -9   49.99    7.20
   2   7   9   56.99    7.20
   2   7   9   44.70    3.90
  -3  -7  -9  154.28   11.20
  -3  -7  -9  143.99    8.80
   3   7   9  130.49   10.30
   3   7   9  153.18    8.90
  -4  -7  -9   12.30    3.50
  -4  -7  -9   12.40    4.00
   4   7   9    8.90    3.30
   4   7   9    6.50    3.20
  -5  -7  -9   56.49    7.20
  -5  -7  -9   58.59    8.60
   5   7   9   72.09   10.50
   5   7   9   62.19    8.40
  -6  -7  -9    1.10    2.40
  -6  -7  -9    2.50    3.20
   6   7   9    0.60    2.60
   6   7   9    1.00    2.20
  -7  -7  -9   12.20    4.30
  -7  -7  -9   18.60    5.10
   7   7   9   14.10    4.60
   7   7   9   15.30    4.60
  -8  -7  -9    7.30    3.80
  -8  -7  -9    3.00    3.70
   8   7   9   11.50    4.40
   8   7   9   12.50    7.00
   4  -8  -9   25.90    4.70
  -4   8   9   34.20    5.30
   3  -8  -9    6.00    3.30
   2  -8  -9    9.00    3.40
  -2   8   9    2.80    2.50
   1  -8  -9    8.50    4.70
  -1   8   9    5.00    2.70
   0  -8  -9   91.09    9.90
   0   8   9   82.19    9.50
  -1  -8  -9    1.90    2.70
  -1  -8  -9    2.10    1.20
   1   8   9    0.10    2.10
   1   8   9    1.70    1.20
  -2  -8  -9   67.29    8.80
  -2  -8  -9   65.89    4.70
   2   8   9   61.69    4.70
   2   8   9   57.69    8.00
  -3  -8  -9   31.10    6.20
  -3  -8  -9   28.10    3.90
   3   8   9   25.90    4.00
   3   8   9   24.20    5.10
  -4  -8  -9    1.60    2.60
  -4  -8  -9    9.80    3.10
   4   8   9    8.30    3.30
   4   8   9    3.10    2.60
  -5  -8  -9   19.50    5.00
  -5  -8  -9   10.10    3.30
   5   8   9   17.10    4.90
  -6  -8  -9   -2.90    2.60
  -6  -8  -9   -0.40    2.40
   6   8   9    0.30    2.50
   6   8   9    3.90    3.00
  -7  -8  -9   41.30    7.40
  -7  -8  -9   22.70    5.40
   7   8   9   20.20    5.70
   7   8   9   39.10    6.90
  -8  -8  -9   12.50    5.00
  -8  -8  -9   11.60    4.30
   8   8   9    7.20    4.10
   8   8   9    3.20    4.30
   4  -9  -9    0.00    2.60
   3  -9  -9    7.60    3.40
  -3   9   9    4.30    3.00
   2  -9  -9    8.30    3.80
  -2   9   9   23.00    4.80
   1  -9  -9   42.30    6.70
  -1   9   9   51.49    7.10
   0  -9  -9   -1.00    2.30
   0   9   9    4.10    3.00
  -1  -9  -9    6.60    3.10
   1   9   9    5.40    2.00
   1   9   9    7.20    3.20
  -2  -9  -9    1.50    3.00
  -2  -9  -9    2.50    1.70
   2   9   9   -0.40    1.50
   2   9   9    0.40    2.10
  -3  -9  -9    0.50    1.80
  -3  -9  -9    1.10    2.40
   3   9   9    3.20    2.20
   3   9   9    3.90    2.80
  -4  -9  -9    1.30    2.90
  -4  -9  -9   -1.80    1.90
   4   9   9   -2.70    1.50
   4   9   9    1.40    2.20
  -5  -9  -9    3.40    3.10
  -5  -9  -9    3.20    2.80
   5   9   9    5.00    3.30
   5   9   9    8.90    3.50
  -6  -9  -9    7.80    4.10
  -6  -9  -9    6.10    3.30
   6   9   9    4.00    3.20
   6   9   9    5.20    3.40
  -7  -9  -9    4.30    3.80
  -7  -9  -9    2.30    3.60
   7   9   9    3.60    3.20
   7   9   9   -0.20    3.30
   3 -10  -9    4.50    3.30
  -3  10   9    7.60    3.10
   2 -10  -9    6.40    3.50
  -2  10   9    4.00    2.80
   1 -10  -9    8.40    3.70
  -1  10   9   20.40    4.90
   0 -10  -9   80.89    9.30
   0  10   9   95.09    8.40
  -1 -10  -9   -2.70    2.20
   1  10   9    3.50    1.70
   1  10   9    1.70    2.40
  -2 -10  -9    4.30    3.10
  -2 -10  -9   13.20    2.70
   2  10   9   11.60    2.90
   2  10   9    6.00    3.00
  -3 -10  -9    4.10    3.20
  -3 -10  -9    4.10    2.20
   3  10   9    0.40    2.40
   3  10   9    1.60    2.20
  -4 -10  -9   84.59   10.50
  -4 -10  -9   91.09    7.20
   4  10   9   84.79    7.10
  -5 -10  -9   15.00    3.90
  -5 -10  -9   19.40    5.20
   5  10   9   13.70    4.40
   5  10   9   11.00    3.80
  -6 -10  -9   45.90    7.00
  -6 -10  -9   68.69    9.30
   6  10   9   63.59    8.10
  -7 -10  -9   17.90    5.00
  -7 -10  -9   22.20    6.20
   7  10   9   14.80    4.70
   2 -11  -9    2.10    3.00
  -2  11   9    1.90    2.80
   1 -11  -9    4.90    3.30
  -1  11   9    7.80    3.30
   0 -11  -9   -0.60    2.70
   0  11   9   -0.80    1.30
   0  11   9   -0.30    2.00
   0  11   9   -0.60    1.20
  -1 -11  -9   41.10    7.10
   1  11   9   40.10    4.10
   1  11   9   38.30    4.20
   1  11   9   34.20    6.80
  -2 -11  -9    8.00    3.80
  -2 -11  -9    8.40    2.50
   2  11   9    4.80    3.00
   2  11   9   10.10    2.70
  -3 -11  -9   69.79    6.10
  -3 -11  -9   65.09    9.00
   3  11   9   68.29    9.10
   3  11   9   73.29    6.10
  -4 -11  -9  160.68   13.20
  -4 -11  -9  172.28   10.90
   4  11   9  172.88   10.90
  -5 -11  -9   35.50    7.00
  -5 -11  -9   26.20    6.40
   5  11   9   45.70    6.70
  -6 -11  -9   62.09    8.10
  -6 -11  -9   77.19   10.50
   6  11   9   74.59    9.10
  -7 -11  -9    1.40    3.30
  -7 -11  -9    0.70    3.00
   7  11   9   -1.30    2.70
   0 -12  -9   -2.80    2.60
   0  12   9   -0.30    1.60
   0  12   9   -2.00    1.60
   0  12   9   -0.80    2.00
  -1 -12  -9    2.00    3.40
   1  12   9    5.40    2.10
   1  12   9   10.60    4.30
   1  12   9   12.70    2.90
  -2 -12  -9    9.00    4.30
   2  12   9   13.90    5.10
   2  12   9    8.40    2.80
  -3 -12  -9   32.00    5.00
  -3 -12  -9   31.90    6.80
   3  12   9   32.40    6.80
   3  12   9   35.50    5.40
  -4 -12  -9   26.60    6.20
  -4 -12  -9   30.30    5.00
  -5 -12  -9    5.20    3.50
  -5 -12  -9   11.00    6.20
   5  12   9    5.60    3.00
  -6 -12  -9   12.40    4.90
  -6 -12  -9    5.60    3.70
   6  12   9   14.90    4.80
   6  12   9    6.00    4.10
  -2 -13  -9   16.00    5.30
   2  13   9   10.50    3.30
   2  13   9    8.60    3.30
   2  13   9    3.90    4.50
  -3 -13  -9    6.30    3.40
   3  13   9   11.90    4.60
   3  13   9    8.20    3.10
  -4 -13  -9   81.99   11.50
   4  13   9   89.69   11.40
   4  13   9   91.89    8.00
   3   6 -10    7.30    4.40
  -3  -6  10    8.60    5.90
   2   6 -10   12.20    4.50
   2   6 -10   20.50    6.70
   2   6 -10   18.80    5.30
  -2  -6  10   17.60    5.80
   1   6 -10   14.90    9.00
   1   6 -10    1.90    3.20
   1   6 -10    6.80    3.80
  -1  -6  10    3.80    4.60
   4   5 -10    2.20    3.10
   4   5 -10    1.20    3.20
  -4  -5  10   -1.80    3.20
   3   5 -10    8.90    3.90
   3   5 -10    4.90    3.80
   3   5 -10   11.80    4.40
   2   5 -10   23.50    5.70
   2   5 -10   28.50    5.90
   2   5 -10   15.50    4.60
   1   5 -10   33.30    6.00
   1   5 -10   51.49    7.80
   0   5 -10    5.20    4.10
   0   5 -10    6.50    3.70
  -1   5 -10   34.70    6.60
  -1   5 -10   17.90    5.50
  -1   5 -10   20.90    7.10
   5   4 -10   11.90    4.20
   5   4 -10    3.20    3.70
   5   4 -10   14.70    4.50
   4   4 -10    6.40    4.00
   4   4 -10   10.30    4.10
   4   4 -10   10.60    4.20
  -4  -4  10    1.80    3.50
   3   4 -10    6.60    3.40
   3   4 -10    6.70    3.70
   3   4 -10    3.00    2.90
   2   4 -10    7.80    3.80
   2   4 -10    6.70    3.80
   2   4 -10    5.20    3.30
   1   4 -10    0.60    2.70
   1   4 -10   -2.60    2.50
   1   4 -10    3.10    3.40
  -1  -4  10   -1.10    2.70
   0   4 -10   69.69    9.30
   0   4 -10   76.19    9.20
   0   4 -10   59.89    7.90
   0  -4  10   55.69    9.00
  -1   4 -10   37.90    6.60
  -1   4 -10   27.80    6.00
  -1   4 -10   34.80    6.40
   1  -4  10   30.60    6.50
  -2   4 -10   60.09    8.30
  -2   4 -10   44.20    7.20
   2  -4  10   46.70    8.70
   2  -4  10   42.30    7.70
  -3   4 -10   60.49    8.10
   3  -4  10   45.80    7.80
   3  -4  10   45.50    7.70
   6   3 -10    9.80    4.50
   6   3 -10   11.60    4.10
  -6  -3  10   19.20    5.30
  -6  -3  10    6.60    4.00
   5   3 -10   27.10    5.40
   5   3 -10   22.50    5.10
   5   3 -10   22.50    5.10
  -5  -3  10   28.50    6.50
   4   3 -10   86.99   10.00
   4   3 -10   91.89    7.90
   4   3 -10   94.29    8.30
  -4  -3  10   57.69    8.60
   3   3 -10   63.49    7.70
   3   3 -10   44.80    7.10
   3   3 -10   65.29    7.40
  -3  -3  10   47.90    7.60
   2   3 -10    6.10    3.20
   2   3 -10   -1.20    2.20
   2   3 -10    0.30    2.60
   1   3 -10   -2.60    2.00
   1   3 -10    2.40    3.20
   1   3 -10    1.10    2.60
  -1  -3  10   -1.60    2.50
   0   3 -10   55.89    7.40
   0   3 -10   45.10    6.90
   0   3 -10   42.10    6.10
   0  -3  10   45.20    7.70
  -1   3 -10   48.00    7.30
  -1   3 -10   62.49    7.80
  -1   3 -10   52.89    7.40
   1  -3  10   38.10    6.90
  -2   3 -10   33.90    6.10
  -2   3 -10   31.70    6.10
   2  -3  10   31.60    6.30
   2  -3  10   31.80    6.30
  -3   3 -10    0.70    3.70
  -3   3 -10   -2.00    2.50
   3  -3  10    2.00    3.70
   3  -3  10    0.20    2.90
  -4   3 -10   49.00    7.60
  -4   3 -10   33.10    6.90
   4  -3  10   42.00    7.40
   4  -3  10   40.20    7.50
   6   2 -10   55.09    7.60
   6   2 -10   55.69    7.20
  -6  -2  10   67.49    8.00
  -6  -2  10   53.49    8.10
   5   2 -10    3.30    3.00
   5   2 -10    3.70    2.80
  -5  -2  10    5.20    3.70
   4   2 -10    1.00    2.40
   4   2 -10    2.40    3.10
   4   2 -10    1.70    3.10
  -4  -2  10    1.50    2.90
   3   2 -10    6.10    3.00
   3   2 -10    3.00    3.00
   3   2 -10   11.90    4.20
  -3  -2  10   -1.20    2.50
   2   2 -10   10.10    3.60
   2   2 -10    5.20    2.80
   2   2 -10    5.60    3.50
  -2  -2  10    3.90    3.00
   1   2 -10    2.60    3.10
   1   2 -10   -1.20    2.30
   1   2 -10    0.90    2.70
  -1  -2  10   -0.30    2.60
   0   2 -10   12.60    3.70
   0   2 -10   21.40    5.00
   0   2 -10   18.00    4.30
   0  -2  10   18.00    4.70
  -1   2 -10   96.09    8.40
  -1   2 -10   63.19    8.40
   1  -2  10  101.39    9.10
   1  -2  10  105.69    9.20
  -2   2 -10    3.10    3.10
  -2   2 -10    1.00    3.00
   2  -2  10    2.80    3.10
   2  -2  10    2.80    3.00
  -3   2 -10   10.30    4.20
  -3   2 -10   16.40    4.60
   3  -2  10   11.40    4.10
   3  -2  10    6.50    3.60
  -4   2 -10   22.70    5.30
  -4   2 -10   11.60    4.70
   4  -2  10   15.70    5.10
   4  -2  10   17.00    4.80
   5  -2  10   -2.40    2.80
   6   1 -10   13.10    4.40
   6   1 -10   19.20    4.60
  -6  -1  10   12.30    4.80
  -6  -1  10   12.00    3.90
   5   1 -10    1.60    2.40
   5   1 -10    0.00    2.60
  -5  -1  10    2.00    2.90
  -5  -1  10   -0.10    2.90
   4   1 -10   24.40    5.00
   4   1 -10   32.20    4.90
   4   1 -10   31.40    5.00
  -4  -1  10   30.50    6.10
   3   1 -10   33.60    4.70
   3   1 -10   34.60    5.10
   3   1 -10   16.70    4.00
  -3  -1  10   37.60    6.20
   2   1 -10   36.30    5.00
   2   1 -10   43.50    5.70
   2   1 -10   27.50    5.40
  -2  -1  10   46.50    7.30
   1   1 -10   90.19    7.50
   1   1 -10   88.99    7.30
   1   1 -10   91.49    9.90
  -1  -1  10   66.19    8.50
   0   1 -10   28.50    4.80
   0   1 -10   21.30    5.00
   0   1 -10   36.00    6.10
   0  -1  10   33.70    5.70
  -1   1 -10    1.50    2.90
  -1   1 -10    4.10    2.90
   1  -1  10   -0.40    2.50
   1  -1  10    0.60    2.50
  -2   1 -10  105.29    8.80
  -2   1 -10  100.39    8.90
   2  -1  10  105.89    8.90
   2  -1  10   89.69    8.80
  -3   1 -10    1.40    2.60
  -3   1 -10    5.00    3.40
   3  -1  10    1.70    3.00
   3  -1  10    0.00    2.90
  -4   1 -10   36.50    6.50
  -4   1 -10   19.50    5.20
   4  -1  10   18.80    5.30
   4  -1  10   22.00    5.10
  -5   1 -10    2.20    3.70
  -5   1 -10    3.80    3.00
   5  -1  10    0.60    3.10
   6   0 -10   -1.60    2.60
  -6   0  10   -0.10    2.80
  -6   0  10    0.90    3.20
   5   0 -10    1.50    2.60
   5   0 -10   -2.10    1.90
  -5   0  10    0.50    2.40
  -5   0  10    0.80    2.60
   4   0 -10   59.19    7.60
   4   0 -10   79.09    6.60
   4   0 -10   92.19    6.60
  -4   0  10   65.99    8.80
   3   0 -10   33.20    4.80
   3   0 -10   39.60    6.20
   3   0 -10   42.20    4.80
  -3   0  10   39.70    6.50
   2   0 -10   17.00    4.40
   2   0 -10   14.60    3.40
   2   0 -10   12.60    3.20
  -2   0  10    7.90    3.30
   1   0 -10   98.39    7.30
   1   0 -10   88.99    8.20
   1   0 -10   96.49    7.30
  -1   0  10   92.99    8.40
   0   0 -10    3.40    2.50
   0   0 -10    3.20    2.40
   0   0 -10    3.30    2.70
   0   0  10    6.60    3.40
  -1   0 -10    7.60    3.40
  -1   0 -10    2.60    2.90
   1   0  10    5.80    2.80
   1   0  10    4.90    3.20
  -2   0 -10  101.89   14.50
  -2   0 -10   97.69   10.30
   2   0  10   90.69    7.90
   2   0  10   77.29    9.00
  -3   0 -10  181.88   12.40
  -3   0 -10  182.58   12.60
   3   0  10  181.78   12.50
   3   0  10  186.48   12.60
  -4   0 -10   67.59    8.60
  -4   0 -10   66.19    8.30
   4   0  10   52.99    7.40
   4   0  10   59.39    7.80
  -5   0 -10    6.10    4.10
  -5   0 -10   -1.10    2.30
   5   0  10    0.60    3.40
   5   0  10   -1.50    2.60
  -6   0 -10  101.69    9.50
   6   0  10  113.39   10.80
   6   0  10  113.69    9.80
   6  -1 -10   65.29    6.20
   6  -1 -10   49.90    7.00
  -6   1  10   61.59    8.20
  -6   1  10   67.59    6.40
   5  -1 -10   12.40    4.00
   5  -1 -10   11.00    3.10
  -5   1  10   18.30    5.00
  -5   1  10   12.70    3.40
   4  -1 -10   18.30    4.60
   4  -1 -10   19.80    3.50
   4  -1 -10   21.90    3.60
  -4   1  10   17.10    4.80
   3  -1 -10   -1.30    2.00
   3  -1 -10   -0.10    1.60
   3  -1 -10    0.40    1.80
  -3   1  10    1.60    2.70
   2  -1 -10   58.59    5.20
   2  -1 -10   62.39    7.50
   2  -1 -10   65.59    5.30
  -2   1  10   51.39    7.20
   1  -1 -10   23.70    4.70
   1  -1 -10   34.70    4.20
   1  -1 -10   28.80    4.10
  -1   1  10   24.30    5.00
   0  -1 -10    0.60    1.90
   0  -1 -10    3.40    2.70
   0  -1 -10    3.80    2.60
   0   1  10    3.20    2.50
  -1  -1 -10   53.69    6.20
  -1  -1 -10   55.69    7.80
   1   1  10   60.89    5.70
   1   1  10   56.99    7.60
  -2  -1 -10  304.27   17.40
  -2  -1 -10  311.97   16.40
   2   1  10  304.97   16.60
   2   1  10  267.67   17.10
  -3  -1 -10   -2.00    1.60
  -3  -1 -10   -0.10    2.50
   3   1  10   -1.10    2.30
   3   1  10    1.50    2.70
  -4  -1 -10   38.70    6.40
  -4  -1 -10   32.00    5.80
   4   1  10   38.70    6.10
   4   1  10   32.00    5.60
  -5  -1 -10   16.50    5.00
  -5  -1 -10   23.60    5.20
   5   1  10   18.90    4.60
   5   1  10   13.80    4.40
  -6  -1 -10   16.10    5.10
  -6  -1 -10   37.40    6.20
   6   1  10   17.10    4.90
   6   1  10   26.00    6.80
   6  -2 -10    0.10    2.40
   6  -2 -10   -0.70    2.20
  -6   2  10   -0.60    2.20
  -6   2  10    1.20    2.90
   5  -2 -10    3.10    3.00
   5  -2 -10    2.80    2.10
  -5   2  10    1.90    2.30
  -5   2  10    5.00    3.30
   4  -2 -10    2.00    1.80
   4  -2 -10    1.80    2.00
   4  -2 -10    2.00    2.60
  -4   2  10    0.80    2.60
   3  -2 -10   17.70    4.20
   3  -2 -10   18.00    2.80
   3  -2 -10   22.20    3.10
  -3   2  10   21.30    5.10
   2  -2 -10   60.19    7.60
   2  -2 -10   72.99    5.30
   2  -2 -10   77.89    5.40
  -2   2  10   76.99    8.60
   1  -2 -10   97.49    8.30
   1  -2 -10  108.49    6.60
   1  -2 -10   92.39    6.50
  -1   2  10   86.99    8.20
   0  -2 -10   13.00    2.80
   0  -2 -10   14.70    4.10
   0  -2 -10   17.90    3.20
   0   2  10   11.30    3.60
  -1  -2 -10  149.19   11.20
  -1  -2 -10  168.08    9.90
   1   2  10  169.28   11.50
   1   2  10  172.58   10.00
  -2  -2 -10   44.50    5.70
  -2  -2 -10   51.09    7.20
   2   2  10   40.90    6.30
   2   2  10   54.39    6.00
  -3  -2 -10   71.19    8.40
  -3  -2 -10   79.19    7.10
   3   2  10   65.39    8.10
  -4  -2 -10  240.28   14.50
  -4  -2 -10  233.48   14.80
   4   2  10  223.08   14.00
   4   2  10  222.48   14.30
  -5  -2 -10    6.70    3.40
  -5  -2 -10    5.10    3.50
   5   2  10    9.40    3.40
   5   2  10    9.50    4.40
  -6  -2 -10  106.49    9.80
  -6  -2 -10   97.79    9.00
   6   2  10   83.89   10.10
   6   2  10   85.79    8.30
  -7  -2 -10    5.90    3.90
   7   2  10    5.00    3.60
   7   2  10    7.50    4.40
   6  -3 -10    4.80    3.40
   6  -3 -10    1.40    2.10
  -6   3  10    1.40    3.30
  -6   3  10    4.40    2.50
   5  -3 -10    1.20    2.70
   5  -3 -10    1.90    1.80
  -5   3  10    1.60    1.90
  -5   3  10    0.60    2.70
   4  -3 -10   61.69    8.20
   4  -3 -10   57.69    4.40
   4  -3 -10   55.89    4.30
  -4   3  10   48.80    7.00
   3  -3 -10   13.10    4.70
   3  -3 -10    8.80    2.10
   3  -3 -10    8.60    1.90
  -3   3  10   10.80    3.70
   2  -3 -10   16.00    2.30
   2  -3 -10   23.90    2.80
   2  -3 -10   20.40    5.50
  -2   3  10   20.20    4.70
   1  -3 -10  142.99    7.70
   1  -3 -10  124.99   11.70
   1  -3 -10  136.69    7.60
  -1   3  10  146.69   10.30
   0  -3 -10   15.60    2.80
   0  -3 -10   23.40    3.20
   0  -3 -10   34.60    6.30
   0   3  10   24.70    4.60
  -1  -3 -10   22.90    3.60
  -1  -3 -10   27.10    5.20
   1   3  10   18.90    4.50
   1   3  10   18.90    3.30
  -2  -3 -10    0.20    2.10
  -2  -3 -10   -1.80    1.60
   2   3  10    0.40    2.00
   2   3  10   -0.80    2.10
  -3  -3 -10    1.80    2.20
  -3  -3 -10   -1.10    2.00
   3   3  10   -1.70    1.80
   3   3  10    0.80    2.20
  -4  -3 -10   53.99    7.60
   4   3  10   66.49    8.00
   4   3  10   73.99    6.90
  -5  -3 -10    7.70    3.50
  -5  -3 -10    1.70    2.90
   5   3  10    1.50    3.30
   5   3  10    4.50    3.00
  -6  -3 -10   -0.40    2.60
  -6  -3 -10    2.40    3.50
   6   3  10    1.00    2.70
   6   3  10    0.70    3.70
  -7  -3 -10   22.70    5.80
  -7  -3 -10   28.00    5.80
   7   3  10   17.00    8.10
   7   3  10   24.50    5.60
   6  -4 -10    6.30    2.40
   6  -4 -10   12.40    4.00
  -6   4  10    6.00    2.40
  -6   4  10    9.40    3.80
   5  -4 -10    2.50    1.80
   5  -4 -10    2.30    1.80
   5  -4 -10    2.80    3.10
  -5   4  10    5.40    3.40
  -5   4  10    6.70    2.60
   4  -4 -10    0.40    2.60
   4  -4 -10    0.00    1.30
  -4   4  10    4.50    2.90
   3  -4 -10   32.40    6.90
  -3   4  10   18.30    4.60
  -2   4  10   18.80    4.40
   1  -4 -10    3.30    1.20
   1  -4 -10    4.30    1.30
  -1   4  10    5.40    2.90
   0  -4 -10    2.00    2.70
   0  -4 -10    1.80    1.50
   0   4  10    3.10    2.60
  -1  -4 -10    2.10    2.20
  -1  -4 -10    0.90    1.70
   1   4  10    0.00    1.70
   1   4  10    2.50    2.30
  -2  -4 -10   48.40    5.30
  -2  -4 -10   37.40    6.10
   2   4  10   41.20    4.90
   2   4  10   50.29    7.00
  -3  -4 -10   12.50    3.50
  -3  -4 -10   13.70    4.10
   3   4  10    7.30    3.30
   3   4  10   21.50    4.00
  -4  -4 -10  298.37   16.20
  -4  -4 -10  292.47   17.30
   4   4  10  272.37   16.80
  -5  -4 -10   50.39    7.50
  -5  -4 -10   54.59    7.50
   5   4  10   56.59    7.50
   5   4  10   61.19    7.90
  -6  -4 -10   15.30    4.40
  -6  -4 -10   29.10    5.90
   6   4  10   21.40    4.70
   6   4  10   28.90    5.90
  -7  -4 -10   30.30    6.50
  -7  -4 -10   30.00    6.20
   7   4  10   37.60    6.60
   7   4  10   32.90    6.60
   5  -5 -10   -2.80    2.00
  -5   5  10   -0.20    2.70
   4  -5 -10   20.20    4.50
  -4   5  10   11.50    3.90
   3  -5 -10   68.79    8.10
  -3   5  10   70.79    8.10
   2  -5 -10    1.10    2.60
  -2   5  10   -1.10    2.10
  -1   5  10    5.30    2.90
   0  -5 -10    0.20    1.10
   0  -5 -10   -1.40    1.70
   0  -5 -10    1.80    1.10
   0   5  10    1.40    2.30
  -1  -5 -10   28.00    5.70
  -1  -5 -10   33.40    3.60
   1   5  10   29.00    3.30
   1   5  10   23.60    4.70
  -2  -5 -10  179.18   12.50
  -2  -5 -10  173.78   10.30
   2   5  10  207.38   10.50
   2   5  10  204.28   12.90
  -3  -5 -10    1.50    2.40
  -3  -5 -10    1.60    2.10
   3   5  10    0.60    2.40
   3   5  10    2.90    2.30
  -4  -5 -10  359.56   20.30
  -4  -5 -10  336.97   18.40
   4   5  10  342.27   19.60
   4   5  10  366.66   18.60
  -5  -5 -10   80.99    7.60
  -5  -5 -10  101.59   10.80
   5   5  10   82.29    9.30
   5   5  10   77.19    7.50
  -6  -5 -10    9.80    4.10
  -6  -5 -10    8.70    3.80
   6   5  10   18.40    4.90
   6   5  10   21.40    4.90
  -7  -5 -10   18.90    5.50
  -7  -5 -10   23.80    6.10
   7   5  10   16.00    4.70
   7   5  10    9.40    4.60
   5  -6 -10    4.80    3.00
  -5   6  10    1.60    2.90
   4  -6 -10    2.20    2.70
  -4   6  10    1.40    2.70
   3  -6 -10    5.90    3.70
  -3   6  10    1.50    2.60
  -2   6  10    0.40    2.30
   1  -6 -10   94.29   10.00
  -1   6  10   89.69    8.00
   0  -6 -10   17.00    4.30
   0   6  10   16.70    4.20
  -1  -6 -10   11.00    3.90
  -1  -6 -10    7.90    1.90
   1   6  10    5.60    2.00
   1   6  10    7.50    3.20
  -2  -6 -10  135.89   10.90
  -2  -6 -10  159.68    8.80
   2   6  10  147.29    8.40
   2   6  10  154.78   11.00
  -3  -6 -10  156.38    9.30
  -3  -6 -10  141.09   11.10
   3   6  10  139.39    8.90
   3   6  10  147.89   10.80
  -4  -6 -10  137.09    9.40
  -4  -6 -10  128.69   10.70
   4   6  10  140.99    9.30
   4   6  10  133.19   10.40
  -5  -6 -10   45.00    7.40
   5   6  10   57.39    7.00
   5   6  10   38.90    6.50
  -6  -6 -10   43.80    6.60
  -6  -6 -10   58.19    8.60
   6   6  10   53.79    7.70
   6   6  10   54.89    7.40
  -7  -6 -10   35.90    7.30
  -7  -6 -10   26.10    6.00
   7   6  10   41.30    7.10
   7   6  10   34.00    6.30
   5  -7 -10    1.60    2.90
   4  -7 -10    0.30    2.50
  -4   7  10    2.30    2.90
  -3   7  10   15.80    4.30
   2  -7 -10   -0.60    2.20
  -2   7  10   -0.10    2.20
   1  -7 -10   91.09    8.10
  -1   7  10   61.49    7.60
   0  -7 -10   68.19    8.70
   0   7  10   73.29    8.30
  -1  -7 -10   -0.70    2.00
  -1  -7 -10    0.00    1.00
   1   7  10   -1.30    1.90
   1   7  10    0.10    1.10
  -2  -7 -10   10.40    2.40
  -2  -7 -10   12.90    4.20
   2   7  10   15.60    4.30
   2   7  10   13.80    2.50
  -3  -7 -10   80.49    9.30
  -3  -7 -10   77.89    6.20
   3   7  10   82.99    7.90
   3   7  10   84.19    6.20
  -4  -7 -10   39.40    5.40
  -4  -7 -10   33.70    6.20
   4   7  10   30.00    5.70
   4   7  10   31.70    4.80
  -5  -7 -10   93.39    8.20
  -5  -7 -10  107.39    9.70
   5   7  10   99.49    8.10
   5   7  10   80.99    9.90
  -6  -7 -10   20.00    5.30
  -6  -7 -10   26.20    6.10
   6   7  10   23.70    5.60
   6   7  10   18.80    5.00
  -7  -7 -10   10.10    4.20
  -7  -7 -10    9.50    4.40
   7   7  10   12.70    4.50
   7   7  10    6.00    4.20
  -4   8  10   -0.70    2.60
   3  -8 -10   15.70    4.30
  -3   8  10   20.30    4.50
   2  -8 -10    1.30    2.30
  -2   8  10    1.60    2.50
   1  -8 -10    6.40    3.40
  -1   8  10   12.30    4.00
   0  -8 -10    2.30    2.70
   0   8  10    3.80    2.60
  -1  -8 -10    1.20    2.30
   1   8  10   -1.30    1.90
  -2  -8 -10  105.49    6.40
  -2  -8 -10  105.79    9.40
   2   8  10  103.79    9.10
   2   8  10  105.39    6.30
  -3  -8 -10   17.30    3.30
  -3  -8 -10   15.70    4.50
   3   8  10   10.60    3.80
  -4  -8 -10   88.09    7.20
  -4  -8 -10   89.39   11.00
   4   8  10   82.29    9.60
   4   8  10   91.29    7.10
  -5  -8 -10  148.29   10.40
  -5  -8 -10  152.08   12.30
   5   8  10  154.68   11.90
   5   8  10  158.18   10.60
  -6  -8 -10   21.40    5.70
  -6  -8 -10   26.40    5.40
   6   8  10   30.50    6.30
   6   8  10   27.60    5.80
  -7  -8 -10   95.89    9.40
  -7  -8 -10  108.19   12.20
   7   8  10  110.69    9.70
   3  -9 -10    0.50    2.90
  -3   9  10    0.60    2.60
   2  -9 -10    0.10    2.70
  -2   9  10    1.70    2.70
   1  -9 -10    1.00    2.60
  -1   9  10    2.80    2.90
   0  -9 -10    2.00    2.80
   0   9  10    4.80    3.20
  -1  -9 -10    4.50    3.30
   1   9  10    2.60    2.80
  -2  -9 -10  186.88    9.40
  -2  -9 -10  185.38   13.50
   2   9  10  166.18    9.20
   2   9  10  178.08   12.70
  -3  -9 -10  134.79   12.00
  -3  -9 -10  168.48    9.50
   3   9  10  162.18   12.10
   3   9  10  159.28    9.40
  -4  -9 -10    5.40    3.60
  -4  -9 -10    7.20    3.00
   4   9  10    1.60    2.30
   4   9  10    3.00    2.60
  -5  -9 -10   22.40    6.00
  -5  -9 -10   20.50    4.60
   5   9  10   13.40    4.40
   5   9  10   17.50    4.60
  -6  -9 -10    3.70    3.00
  -6  -9 -10    2.10    3.20
   6   9  10    0.80    2.30
   6   9  10    4.50    3.60
  -7  -9 -10   27.70    6.50
  -7  -9 -10   19.60    5.40
   7   9  10   25.40    5.60
   2 -10 -10    3.00    3.10
  -2  10  10   -0.40    2.70
   1 -10 -10    3.90    3.40
  -1  10  10    3.50    2.90
   0 -10 -10  118.49   10.60
   0  10  10  132.89   10.40
  -1 -10 -10   90.19   10.50
   1  10  10   69.49    9.10
  -2 -10 -10    3.90    1.90
  -2 -10 -10    5.50    3.40
   2  10  10    3.00    2.00
   2  10  10    5.40    3.30
  -3 -10 -10   76.39    9.70
  -3 -10 -10   61.49    5.40
   3  10  10   61.69    5.50
   3  10  10   61.49    9.00
  -4 -10 -10   20.20    4.00
  -4 -10 -10   22.90    5.60
   4  10  10   24.00    4.40
  -5 -10 -10    1.90    2.50
  -5 -10 -10    4.50    3.70
   5  10  10    2.40    2.70
  -6 -10 -10   15.50    4.70
  -6 -10 -10   14.90    5.20
   6  10  10   14.30    4.90
  -7 -10 -10   15.00    4.80
   7  10  10   17.00    5.70
   1 -11 -10    6.20    3.80
  -1  11  10   -0.20    2.40
   0 -11 -10    1.50    3.10
   0  11  10    2.00    3.00
  -1 -11 -10   19.10    5.20
   1  11  10   21.00    5.70
   1  11  10   28.80    4.20
   1  11  10   21.00    2.60
  -2 -11 -10    3.20    2.00
  -2 -11 -10   10.60    4.40
   2  11  10    1.80    2.70
   2  11  10    2.10    2.10
  -3 -11 -10   84.19   10.80
  -3 -11 -10   65.79    5.90
   3  11  10   94.29   11.40
   3  11  10   74.69    6.20
  -4 -11 -10   13.70    5.10
  -4 -11 -10   21.10    4.10
   4  11  10   20.40    4.40
  -5 -11 -10   81.09   10.20
  -5 -11 -10   74.09   10.50
   5  11  10   84.89    8.90
  -6 -11 -10   38.50    6.60
  -6 -11 -10   41.70    9.40
   6  11  10   38.40    6.60
   6  11  10   28.90    6.80
   0 -12 -10    1.80    3.10
   0  12  10   -1.10    2.70
  -1 -12 -10   33.10    6.60
   1  12  10   38.10    3.50
   1  12  10   40.20    7.30
  -2 -12 -10    7.30    4.30
   2  12  10   18.80    3.50
   2  12  10   17.40    5.10
  -3 -12 -10   29.60    6.70
  -3 -12 -10   14.80    3.60
   3  12  10   20.60    4.20
   3  12  10   13.20    5.80
  -4 -12 -10    7.80    3.20
   4  12  10   10.00    3.70
  -5 -12 -10   47.50    8.70
  -5 -12 -10   65.69    7.60
   5  12  10   42.30    6.50
   1   5 -11   34.40    8.10
   4   4 -11   35.60    6.40
   4   4 -11   33.00    6.80
   4   4 -11   24.90    5.10
  -4  -4  11   12.60    5.20
   3   4 -11    7.80    3.60
   3   4 -11   11.20    4.30
   2   4 -11   16.40    5.40
   2   4 -11   10.80    4.30
   2   4 -11    7.20    3.80
   1   4 -11   11.60    4.60
   1   4 -11   12.20    4.70
   1   4 -11    8.10    4.00
  -1  -4  11    9.10    7.40
   0   4 -11    6.20    4.10
   0   4 -11    5.40    3.70
  -1   4 -11  120.39   11.00
  -1   4 -11  133.99   11.40
   5   3 -11   -3.30    3.30
   5   3 -11    3.40    3.50
  -5  -3  11    0.00    3.00
   4   3 -11    0.40    2.70
   4   3 -11   -1.20    2.50
   4   3 -11   -0.70    2.70
  -4  -3  11   -2.20    3.40
   3   3 -11    1.90    3.30
   3   3 -11    4.50    3.60
   3   3 -11    3.00    3.00
   2   3 -11   31.00    5.60
   2   3 -11   31.90    6.20
   2   3 -11   38.60    5.90
   1   3 -11  115.09    9.60
   1   3 -11  120.89   10.00
   1   3 -11  103.99   10.00
   0   3 -11    5.20    3.50
   0   3 -11    3.60    3.50
   0   3 -11    6.70    3.80
   0  -3  11   -1.50    2.60
  -1   3 -11   40.80    6.80
  -1   3 -11   49.00    7.70
  -1   3 -11   50.29    7.30
  -2   3 -11   14.40    4.60
  -2   3 -11   37.80    6.80
   2  -3  11    0.70    3.00
   2  -3  11   29.20    6.10
   3  -3  11   -1.40    3.40
   5   2 -11   -1.90    2.70
   5   2 -11    0.70    2.80
  -5  -2  11   -2.40    2.70
   4   2 -11   -0.30    2.40
   4   2 -11   -2.20    2.10
   4   2 -11   -2.20    2.60
  -4  -2  11   -1.10    3.00
   3   2 -11   99.99    8.20
   3   2 -11  100.39    8.40
   3   2 -11   79.09    9.50
  -3  -2  11   64.69    9.30
   2   2 -11   21.90    4.50
   2   2 -11   16.50    4.80
   2   2 -11   20.10    4.70
   1   2 -11   60.19    8.30
   1   2 -11   45.20    6.10
   1   2 -11   59.19    7.30
   0   2 -11   86.69    8.30
   0   2 -11   80.19    9.90
   0   2 -11   95.39    8.40
   0  -2  11  104.09   11.70
  -1   2 -11    7.50    3.90
  -1   2 -11    3.00    3.20
  -1   2 -11    8.10    3.90
   1  -2  11   13.40    4.90
  -2   2 -11   13.10    4.40
  -2   2 -11   28.40    5.90
   2  -2  11   29.10    6.00
   2  -2  11   27.00    6.00
  -3   2 -11    0.40    3.20
  -3   2 -11   -0.20    3.00
   3  -2  11    2.80    3.70
   3  -2  11   -2.00    2.90
   5   1 -11   45.10    7.30
   5   1 -11   29.70    5.10
   5   1 -11   29.10    4.90
  -5  -1  11   26.80    6.10
   4   1 -11   16.80    4.10
   4   1 -11   15.60    3.70
   4   1 -11    8.60    3.70
  -4  -1  11   12.60    4.50
   3   1 -11   91.79    7.60
   3   1 -11   99.29    7.90
   3   1 -11   60.29    8.20
  -3  -1  11   80.99    9.80
   2   1 -11   12.90    3.60
   2   1 -11   17.80    4.10
   2   1 -11   13.60    4.70
  -2  -1  11   10.00    4.00
   1   1 -11   47.60    6.20
   1   1 -11   45.20    7.20
   1   1 -11   50.39    7.10
   0   1 -11   34.80    5.70
   0   1 -11   45.30    7.30
   0   1 -11   29.10    5.30
   0  -1  11   36.50    6.80
  -1   1 -11  138.79   11.50
  -1   1 -11  172.18   11.60
   1  -1  11  164.38   11.60
   1  -1  11  159.18   12.30
  -2   1 -11  106.49    9.40
  -2   1 -11  109.49    9.70
   2  -1  11  113.79    9.60
   2  -1  11  113.19   10.20
  -3   1 -11   16.30    5.00
  -3   1 -11   13.10    4.40
   3  -1  11   14.30    4.60
   3  -1  11   16.80    5.00
  -4   1 -11   58.79    8.40
  -4   1 -11   49.50    7.70
   4  -1  11   41.10    7.00
   4  -1  11   36.10    6.80
   6   0 -11   44.80    6.70
  -6   0  11   35.30    6.70
   5   0 -11   17.60    3.90
   5   0 -11   21.20    5.10
   5   0 -11   16.80    3.90
  -5   0  11   27.80    6.50
   4   0 -11   25.40    4.60
   4   0 -11   21.50    4.00
   4   0 -11   23.10    5.00
  -4   0  11   25.60    6.00
   3   0 -11   10.70    4.20
   3   0 -11    3.70    2.70
   3   0 -11   10.30    3.30
  -3   0  11   10.80    4.10
   2   0 -11    2.60    2.80
   2   0 -11    0.50    2.10
   2   0 -11    0.10    2.50
  -2   0  11    2.90    3.20
   1   0 -11  118.79   10.00
   1   0 -11  122.99    8.90
   1   0 -11  129.99    8.80
  -1   0  11  107.99    9.90
   0   0 -11  107.79    8.10
   0   0 -11  100.09   10.90
   0   0  11   75.69    9.30
  -1   0 -11  239.88   15.30
   1   0  11  241.88   14.40
   1   0  11  231.68   15.50
  -2   0 -11   40.10    5.90
  -2   0 -11   51.99    7.50
   2   0  11   35.60    5.90
   2   0  11   36.80    6.30
  -3   0 -11   19.70    5.00
  -3   0 -11   20.50    5.40
   3   0  11   22.00    5.20
   3   0  11   16.00    4.50
  -4   0 -11   21.60    5.20
  -4   0 -11   16.10    5.00
   4   0  11    9.90    4.50
   4   0  11   16.00    5.00
  -5   0 -11   12.40    4.80
  -5   0 -11   17.80    5.20
   5   0  11    9.60    7.70
   5   0  11   14.80    5.00
   6  -1 -11    0.00    3.00
   6  -1 -11    0.80    2.40
  -6   1  11    5.80    3.30
  -6   1  11    4.50    3.90
   5  -1 -11    3.00    2.60
   5  -1 -11    4.40    3.40
   5  -1 -11    4.50    2.50
  -5   1  11    2.90    3.40
   4  -1 -11    1.60    2.80
   4  -1 -11   -1.00    2.00
   4  -1 -11    0.60    2.00
  -4   1  11    0.10    3.10
   3  -1 -11   28.10    4.00
   3  -1 -11   25.00    5.40
   3  -1 -11   30.00    4.10
  -3   1  11   32.30    6.00
   2  -1 -11    9.20    3.70
   2  -1 -11    3.00    2.20
   2  -1 -11    5.40    2.70
  -2   1  11    7.30    3.60
   1  -1 -11  163.98   12.20
   1  -1 -11  177.48   10.80
   1  -1 -11  191.28   10.70
  -1   1  11  174.28   12.70
   0  -1 -11   61.39    5.90
   0  -1 -11   61.49    5.90
   0  -1 -11   71.39    9.00
   0   1  11   49.20    7.50
  -1  -1 -11    4.40    2.90
  -1  -1 -11    4.90    2.90
   1   1  11    2.20    2.60
   1   1  11    4.80    2.90
  -2  -1 -11    5.40    3.00
   2   1  11    1.30    3.00
   2   1  11    2.00    2.80
  -3  -1 -11   -0.70    2.30
  -3  -1 -11    0.90    3.10
   3   1  11    3.30    2.90
   3   1  11    0.40    2.50
  -4  -1 -11   11.30    4.50
  -4  -1 -11    8.60    4.10
   4   1  11    8.50    3.90
   4   1  11    2.10    2.80
  -5  -1 -11   17.50    5.10
  -5  -1 -11   13.80    4.60
   5   1  11   25.00    6.20
   5   1  11   18.00    4.80
   6  -2 -11   11.40    4.20
  -6   2  11    9.10    4.20
  -6   2  11    8.80    3.10
   5  -2 -11    5.80    3.40
   5  -2 -11    6.20    2.70
   5  -2 -11    3.20    2.10
  -5   2  11    7.00    3.60
   4  -2 -11    7.10    3.70
   4  -2 -11    3.80    2.20
   4  -2 -11    5.60    2.40
  -4   2  11   10.40    4.10
   3  -2 -11   72.29    5.50
   3  -2 -11   89.79    9.90
   3  -2 -11   67.09    5.40
  -3   2  11   61.49    8.50
   2  -2 -11   54.39    7.60
   2  -2 -11   39.70    4.60
   2  -2 -11   52.89    4.70
  -2   2  11   52.29    7.70
   1  -2 -11   17.30    3.10
   1  -2 -11   19.80    4.60
   1  -2 -11   15.70    3.10
  -1   2  11   17.80    4.50
   0  -2 -11    5.50    2.60
   0  -2 -11    3.90    2.30
   0  -2 -11    7.90    3.70
   0   2  11    3.70    2.60
  -1  -2 -11  261.77   13.70
  -1  -2 -11  224.48   15.10
   1   2  11  233.18   15.30
   1   2  11  252.77   13.70
  -2  -2 -11   33.10    6.20
  -2  -2 -11   24.10    4.60
   2   2  11   22.50    4.50
   2   2  11   28.60    5.40
  -3  -2 -11   79.89    9.80
  -3  -2 -11   87.69    7.80
   3   2  11   92.69    8.50
   3   2  11   84.89    7.70
  -4  -2 -11    2.30    3.10
  -4  -2 -11    3.80    2.90
   4   2  11    3.60    3.30
   4   2  11    1.80    2.70
  -5  -2 -11   41.70    6.80
  -5  -2 -11   35.60    6.70
   5   2  11   50.29    7.50
   5   2  11   39.00    6.50
  -6  -2 -11    4.00    3.40
  -6  -2 -11    3.70    3.80
   6   2  11    6.30    3.90
   5  -3 -11   17.60    3.10
   5  -3 -11   19.70    4.90
   5  -3 -11   16.80    3.00
  -5   3  11   26.80    5.80
   4  -3 -11    4.00    1.90
   4  -3 -11    2.30    2.80
   4  -3 -11    0.10    1.50
  -4   3  11    2.50    3.20
   3  -3 -11   35.60    3.40
   3  -3 -11   37.40    4.20
   3  -3 -11   34.60    6.20
  -3   3  11   32.70    5.90
   2  -3 -11   51.69    4.00
   2  -3 -11   43.80    7.20
  -2   3  11   42.40    6.70
   1  -3 -11    3.90    2.10
   1  -3 -11    6.90    3.10
   1  -3 -11    4.30    1.90
  -1   3  11    8.80    3.70
   0  -3 -11    6.80    2.20
   0  -3 -11    3.60    2.20
   0  -3 -11    8.50    3.50
   0   3  11    7.30    3.10
  -1  -3 -11    2.90    2.50
  -1  -3 -11    1.60    2.20
   1   3  11    0.80    2.10
   1   3  11   -1.20    2.00
  -2  -3 -11  239.48   13.60
  -2  -3 -11  220.68   15.10
   2   3  11  262.27   13.80
   2   3  11  237.78   15.20
  -3  -3 -11   -0.30    2.00
  -3  -3 -11    0.80    2.70
   3   3  11    0.10    5.20
   3   3  11    2.00    2.50
  -4  -3 -11  156.38   11.20
  -4  -3 -11  162.28   12.30
   4   3  11  177.78   11.50
   4   3  11  147.69   11.60
  -5  -3 -11  190.58   13.50
  -5  -3 -11  214.68   14.40
   5   3  11  193.78   13.70
   5   3  11  218.88   14.00
  -6  -3 -11    9.20    4.10
  -6  -3 -11   12.50    5.00
   6   3  11    6.90    3.80
   6   3  11    9.80    4.60
   5  -4 -11   19.00    5.00
   5  -4 -11    8.60    2.20
  -5   4  11   14.80    4.80
   4  -4 -11    1.70    2.70
  -4   4  11   -0.70    3.00
   3  -4 -11    9.70    3.90
  -3   4  11   21.00    4.70
   2  -4 -11   29.10    5.50
   2  -4 -11   38.30    2.70
  -2   4  11   44.30    6.90
   1  -4 -11    3.10    1.60
   1  -4 -11    4.00    1.80
   1  -4 -11    5.70    3.00
  -1   4  11    4.30    3.10
   0  -4 -11   44.60    4.00
   0  -4 -11   41.00    6.40
   0  -4 -11   45.90    3.90
   0   4  11   41.30    6.30
  -1  -4 -11   90.09    8.40
  -1  -4 -11   94.09    6.40
   1   4  11   98.59    8.50
   1   4  11   88.69    6.30
  -2  -4 -11    3.30    2.70
  -2  -4 -11    4.80    2.40
   2   4  11   10.80    3.90
   2   4  11    5.00    2.50
  -3  -4 -11   43.40    6.90
  -3  -4 -11   35.60    5.20
   3   4  11   36.90    6.10
   3   4  11   35.00    5.00
  -4  -4 -11    5.80    3.60
  -4  -4 -11    4.90    4.00
   4   4  11    1.00    2.50
   4   4  11    6.90    3.40
  -5  -4 -11   64.79    8.70
  -5  -4 -11   61.09    7.70
   5   4  11   52.09    7.40
   5   4  11   54.69    8.00
  -6  -4 -11   31.00    6.50
  -6  -4 -11   43.70    7.60
   6   4  11   36.00    6.30
   6   4  11   41.50    6.90
   5  -5 -11   17.20    4.80
  -5   5  11    7.10    4.00
   4  -5 -11    6.80    3.40
  -4   5  11    6.20    3.40
   3  -5 -11    4.00    2.90
  -3   5  11   20.40    5.30
   2  -5 -11   65.59    8.70
  -2   5  11   69.89    8.70
   1  -5 -11   -0.90    1.90
  -1   5  11    0.10    2.30
   0  -5 -11  198.48   13.10
   0  -5 -11  170.98    8.80
   0   5  11  188.48   12.60
  -1  -5 -11   83.99    9.90
  -1  -5 -11   87.79    5.90
   1   5  11   89.59    5.80
   1   5  11   87.49    8.10
  -2  -5 -11    4.40    2.80
  -2  -5 -11    2.60    2.30
   2   5  11    1.00    2.40
   2   5  11    5.00    2.40
  -3  -5 -11   89.59    7.20
  -3  -5 -11   93.79   10.70
   3   5  11   95.39    8.70
   3   5  11   89.29    7.10
  -4  -5 -11    2.50    3.20
  -4  -5 -11    5.70    2.70
   4   5  11    5.40    3.30
   4   5  11    3.20    2.80
  -5  -5 -11    0.00    2.50
  -5  -5 -11    5.00    3.60
   5   5  11    2.60    3.30
   5   5  11   -0.70    2.40
  -6  -5 -11   -0.70    2.80
  -6  -5 -11   -0.10    3.10
   6   5  11    6.10    3.90
   6   5  11    3.10    3.50
  -7  -5 -11    2.10    3.40
  -7  -5 -11    5.00    3.80
   7   5  11   10.50    4.20
   7   5  11    2.20    5.00
   4  -6 -11   -2.70    2.30
  -4   6  11    1.40    2.90
   3  -6 -11   57.59    7.60
  -3   6  11   51.69    7.40
   2  -6 -11   64.49    8.40
  -2   6  11   81.69    9.10
   1  -6 -11    0.70    2.60
  -1   6  11    2.60    2.60
   0  -6 -11   59.09    7.90
   0   6  11   66.79    8.50
  -1  -6 -11   30.30    5.80
   1   6  11   27.40    5.40
   1   6  11   32.60    3.40
  -2  -6 -11   20.40    3.40
  -2  -6 -11   32.80    6.50
   2   6  11   19.10    3.20
   2   6  11   23.90    5.00
  -3  -6 -11   66.29    9.10
  -3  -6 -11   66.49    5.80
   3   6  11   68.69    5.90
   3   6  11   70.49    8.60
  -4  -6 -11    5.10    3.30
  -4  -6 -11    2.30    2.70
   4   6  11    4.40    3.10
   4   6  11    2.30    2.70
  -5  -6 -11   19.50    5.20
  -5  -6 -11   17.70    4.50
   5   6  11   24.20    5.70
   5   6  11   15.70    4.00
  -6  -6 -11   95.09   11.30
  -6  -6 -11   92.09    8.90
   6   6  11  105.29   11.70
   6   6  11   93.09    8.90
  -7  -6 -11   -2.60    2.70
  -7  -6 -11    4.20    3.90
   7   6  11    8.50    3.90
   7   6  11    4.60    3.90
   4  -7 -11   35.50    6.40
  -4   7  11   17.40    4.80
   3  -7 -11   15.20    4.40
  -3   7  11   12.80    4.30
   2  -7 -11    1.80    2.80
  -2   7  11    4.90    3.20
   1  -7 -11    9.70    3.90
  -1   7  11   21.90    6.90
   0  -7 -11   11.50    3.90
   0   7  11   12.80    4.10
  -1  -7 -11    2.60    1.20
  -1  -7 -11    3.10    3.10
   1   7  11    2.00    1.30
   1   7  11    4.00    3.10
  -2  -7 -11  226.18   15.00
  -2  -7 -11  213.38   11.20
   2   7  11  229.68   14.50
   2   7  11  211.68   11.10
  -3  -7 -11  197.28   11.10
  -3  -7 -11  188.08   13.60
   3   7  11  191.48   13.20
   3   7  11  182.18   10.70
  -4  -7 -11   20.00    4.30
  -4  -7 -11   13.90    4.60
   4   7  11   19.20    4.10
   4   7  11   11.40    4.00
  -5  -7 -11    3.80    3.60
  -5  -7 -11    1.00    2.80
   5   7  11    8.90    3.60
   5   7  11    6.90    3.80
  -6  -7 -11   90.89    8.70
  -6  -7 -11  101.49   11.90
   6   7  11   76.09    9.60
   6   7  11   94.99    8.60
  -7  -7 -11    3.60    3.80
  -7  -7 -11   -1.70    2.80
   7   7  11    2.50    3.60
   3  -8 -11    1.20    2.80
  -3   8  11    0.60    2.70
   2  -8 -11    0.90    2.80
  -2   8  11    1.30    3.00
   1  -8 -11   -0.20    2.30
  -1   8  11   -0.20    2.20
   0  -8 -11    6.70    3.60
   0   8  11    4.10    3.40
  -1  -8 -11  117.49   10.20
   1   8  11  114.19    9.70
  -2  -8 -11    9.70    2.30
  -2  -8 -11    6.20    3.60
   2   8  11   10.60    2.40
   2   8  11   13.50    4.40
  -3  -8 -11  198.18   14.80
  -3  -8 -11  226.38   12.20
   3   8  11  224.98   12.00
  -4  -8 -11   85.49    7.10
  -4  -8 -11   67.79    9.40
   4   8  11   83.69   10.60
   4   8  11   92.39    7.10
  -5  -8 -11   11.50    4.60
   5   8  11   12.90    4.00
   5   8  11    5.40    3.40
  -6  -8 -11    8.80    4.30
  -6  -8 -11    2.60    3.30
   6   8  11    5.60    3.70
  -7  -8 -11   -1.40    3.00
   3  -9 -11   -1.60    2.60
  -3   9  11    0.60    2.80
   2  -9 -11   34.50    6.20
  -2   9  11   33.00    5.80
   1  -9 -11   -2.10    2.50
  -1   9  11   -1.40    2.20
   0  -9 -11   42.60    6.90
   0   9  11   31.30    6.00
  -1  -9 -11   88.09   10.60
   1   9  11   74.59    9.70
  -2  -9 -11    4.50    3.60
  -2  -9 -11    5.80    1.90
   2   9  11    5.30    3.60
   2   9  11    8.10    2.10
  -3  -9 -11   53.99    5.00
  -3  -9 -11   56.19    9.10
   3   9  11   59.29    5.10
  -4  -9 -11    0.20    2.30
  -4  -9 -11   -2.20    1.70
   4   9  11    0.70    2.50
  -5  -9 -11   74.09   10.40
   5   9  11   82.89    8.80
  -6  -9 -11    1.80    3.60
  -6  -9 -11    8.30    3.90
   6   9  11    5.80    3.80
   2 -10 -11   37.20    6.70
  -2  10  11   38.10    6.40
   1 -10 -11    2.80    3.30
  -1  10  11   11.20    4.50
   0 -10 -11    8.80    4.00
   0  10  11    6.10    3.40
  -1 -10 -11   32.60    6.70
   1  10  11   56.89    8.30
  -2 -10 -11    2.30    3.10
  -2 -10 -11   -1.90    2.30
   2  10  11   -0.10    1.50
   2  10  11   -1.30    2.80
  -3 -10 -11   39.10    4.70
  -3 -10 -11   33.40    6.60
   3  10  11   42.60    5.00
  -4 -10 -11   15.10    5.00
  -4 -10 -11   29.50    4.70
   4  10  11   34.00    5.20
  -5 -10 -11    4.30    3.70
   5  10  11    4.50    3.40
  -6 -10 -11   25.10    5.30
  -6 -10 -11   41.20    9.90
   6  10  11   27.80    5.80
   6  10  11   25.30    6.20
   0 -11 -11    6.80    4.00
   0  11  11    4.90    3.60
  -1 -11 -11    4.40    4.20
   1  11  11   13.00    4.60
  -2 -11 -11    3.30    3.60
   2  11  11    6.00    3.60
   2  11  11    3.00    2.00
  -3 -11 -11    6.80    2.60
  -3 -11 -11   14.10    5.20
   3  11  11    6.00    2.90
  -4 -11 -11   40.80    5.40
  -4 -11 -11   13.30    5.20
   4  11  11   29.30    4.90
  -5 -11 -11    1.20    3.20
   5  11  11    4.70    3.90
   5  11  11    2.00    3.20
  -2 -12 -11   76.79   10.60
   2  12  11   73.49   10.00
   2  12  11   72.49    5.30
  -3 -12 -11    7.60    4.60
  -3 -12 -11    8.40    2.90
   3  12  11   10.30    3.10
   3  12  11    4.90    4.00
  -4 -12 -11   46.20    5.90
  -4 -12 -11   54.49    9.00
   4  12  11   45.10    8.30
   3   3 -12    7.70    4.00
   3   3 -12   16.50    4.80
  -3  -3  12   15.10    5.30
   2   3 -12    3.50    3.70
   2   3 -12    3.90    3.80
   2   3 -12   -0.80    2.90
   1   3 -12    4.20    3.10
   1   3 -12    6.50    4.10
   1   3 -12    7.80    3.90
  -1  -3  12    5.60    4.10
   0   3 -12    0.10    5.80
   0   3 -12   -0.50    4.20
   0   3 -12    0.30    3.30
   0  -3  12    3.70    3.60
  -1   3 -12   15.80    8.40
   1  -3  12   10.80    4.60
   4   2 -12    2.10    3.80
   4   2 -12    2.70    3.10
   4   2 -12    1.70    3.20
  -4  -2  12    2.80    4.00
   3   2 -12    1.30    3.30
   3   2 -12    8.40    3.80
   3   2 -12    9.60    4.60
  -3  -2  12    3.90    3.80
   2   2 -12   17.90    4.50
   2   2 -12   22.30    4.90
   2   2 -12   35.00    7.10
   1   2 -12   12.30    4.10
   1   2 -12   11.60    3.90
   1   2 -12   10.00    4.20
   0   2 -12    0.30    3.00
   0   2 -12   -0.90    2.90
   0   2 -12    1.60    3.40
  -1   2 -12   20.50    4.90
  -1   2 -12   19.30    5.00
  -1   2 -12   30.10    6.40
  -2   2 -12   47.50    7.90
   2  -2  12   62.39    8.50
   4   1 -12   16.80    4.20
   4   1 -12   19.60    5.30
   4   1 -12   30.90    5.50
   3   1 -12    2.10    3.30
   3   1 -12    2.50    2.90
   3   1 -12    5.30    3.10
  -3  -1  12    9.50    4.60
   2   1 -12    0.50    2.80
   2   1 -12   -1.00    2.90
   2   1 -12    1.00    2.70
   1   1 -12    7.90    3.20
   1   1 -12    1.70    2.90
   1   1 -12    3.80    3.60
   0   1 -12    5.70    3.40
   0   1 -12   -1.20    2.50
   0   1 -12    3.70    3.20
   0  -1  12   -0.90    2.70
  -1   1 -12    3.50    3.50
  -1   1 -12    1.10    3.00
  -1   1 -12    1.10    2.50
   1  -1  12   -1.50    2.80
  -2   1 -12   38.30    6.60
  -2   1 -12   42.10    7.10
   2  -1  12   40.50    6.60
  -3   1 -12    5.90    3.70
  -3   1 -12    5.40    3.70
   3  -1  12    9.30    3.80
   5   0 -12    8.90    4.20
   5   0 -12   16.10    4.00
  -5   0  12    8.70    4.50
   4   0 -12    0.30    2.70
   4   0 -12    2.40    3.10
  -4   0  12    4.00    3.90
   3   0 -12    7.20    3.30
   3   0 -12    7.20    3.10
   3   0 -12    7.10    3.60
  -3   0  12   11.60    4.50
   2   0 -12    3.90    3.10
   2   0 -12    6.20    3.10
  -2   0  12    7.70    4.00
   1   0 -12   16.40    3.80
   1   0 -12   10.10    4.00
   1   0 -12   12.70    3.40
   0   0 -12   29.20    6.00
   0   0 -12   26.60    5.10
   0   0 -12   18.30    4.20
  -1   0 -12   51.49    6.80
  -1   0 -12   61.39    8.20
   1   0  12   79.69   10.30
  -2   0 -12   28.50    5.40
  -2   0 -12   25.60    5.60
   2   0  12   23.60    5.20
   2   0  12   33.30    6.80
  -3   0 -12    2.60    3.70
  -3   0 -12    0.70    3.50
   3   0  12   -2.20    2.80
   3   0  12   -0.40    2.80
  -4   0 -12   16.50    5.30
  -4   0 -12   16.90    5.40
   4   0  12   10.60    4.60
   4   0  12    1.30    3.20
   5  -1 -12    4.30    2.60
   5  -1 -12    5.60    3.50
   5  -1 -12    3.50    2.60
  -5   1  12    1.10    3.40
   4  -1 -12    6.70    3.10
   4  -1 -12   11.10    3.20
   4  -1 -12    7.10    4.10
  -4   1  12   21.30    5.80
   3  -1 -12   24.90    4.10
   3  -1 -12   34.10    6.50
  -3   1  12   21.60    5.70
   2  -1 -12   34.80    4.70
   2  -1 -12   39.90    6.70
   2  -1 -12   40.80    5.00
  -2   1  12   48.80    7.60
   1  -1 -12    4.30    3.60
   1  -1 -12    2.60    2.80
   1  -1 -12    6.20    2.80
  -1   1  12    5.90    4.00
   0  -1 -12    3.00    2.90
   0  -1 -12    1.10    2.50
   0  -1 -12   -1.10    2.10
  -1  -1 -12    5.90    4.60
  -1  -1 -12    0.30    2.50
   1   1  12    1.10    2.80
   1   1  12   -1.20    2.50
  -2  -1 -12   19.20    4.50
  -2  -1 -12   21.00    5.30
   2   1  12   19.20    4.40
   2   1  12   24.30    5.50
  -3  -1 -12    1.70    3.00
  -3  -1 -12   -1.10    2.40
   3   1  12   -0.30    2.70
   3   1  12   -2.50    2.80
  -4  -1 -12   17.80    4.90
  -4  -1 -12   23.80    5.60
   4   1  12   24.10    6.10
   4   1  12   19.50    5.20
   5  -2 -12    0.20    2.80
   5  -2 -12    1.10    2.10
   5  -2 -12    2.30    2.50
  -5   2  12   -0.10    3.30
   4  -2 -12    5.00    2.60
   4  -2 -12    9.30    4.00
   4  -2 -12    8.40    2.60
  -4   2  12   11.40    4.70
   3  -2 -12    1.10    1.80
   3  -2 -12   -0.90    2.10
   3  -2 -12    1.50    2.90
  -3   2  12    1.70    3.30
   2  -2 -12    1.90    2.40
   2  -2 -12    4.60    3.40
   2  -2 -12    2.60    2.10
  -2   2  12   -0.20    2.70
   1  -2 -12    7.30    3.70
   1  -2 -12    8.80    2.70
   1  -2 -12    3.70    2.60
  -1   2  12    6.50    3.70
   0  -2 -12  153.18    9.70
   0  -2 -12  149.69    9.60
   0  -2 -12  141.29   11.40
  -1  -2 -12   18.00    5.10
  -1  -2 -12   11.30    3.30
   1   2  12    7.60    3.10
   1   2  12   18.00    4.90
  -2  -2 -12   30.80    6.70
  -2  -2 -12   46.10    7.40
   2   2  12   36.80    6.60
   2   2  12   31.70    5.30
  -3  -2 -12   15.70    4.40
  -3  -2 -12   16.30    4.70
   3   2  12   15.90    5.10
   3   2  12   11.30    3.70
  -4  -2 -12   17.40    4.80
  -4  -2 -12   17.00    5.10
   4   2  12    7.80    3.90
   4   2  12   11.50    4.50
  -5  -2 -12   28.90    6.10
  -5  -2 -12   22.30    5.70
   5   2  12   27.60    6.20
   5   2  12   27.30    6.00
   5  -3 -12   17.30    3.20
   5  -3 -12   22.20    5.70
  -5   3  12   25.90    6.00
   4  -3 -12    3.50    1.90
   4  -3 -12    1.30    2.10
   4  -3 -12    4.60    3.50
  -4   3  12    2.00    3.50
   3  -3 -12    1.50    2.00
   3  -3 -12    1.60    2.80
   3  -3 -12   -0.20    1.40
  -3   3  12   -1.90    3.00
   2  -3 -12    0.10    1.60
   2  -3 -12   -1.90    1.80
   2  -3 -12   -2.30    2.30
  -2   3  12    4.50    3.40
   1  -3 -12    0.20    1.80
   1  -3 -12   -1.60    2.10
   1  -3 -12   -1.50    1.70
  -1   3  12    4.10    3.10
   0  -3 -12  155.88    9.60
   0  -3 -12  159.68   11.90
   0   3  12  174.78   12.50
  -1  -3 -12    4.00    3.20
  -1  -3 -12    2.70    2.50
   1   3  12    5.40    3.30
   1   3  12    3.40    2.50
  -2  -3 -12    3.50    3.30
  -2  -3 -12    6.00    3.10
   2   3  12    4.50    3.40
   2   3  12    8.90    3.20
  -3  -3 -12    1.50    2.70
  -3  -3 -12    0.80    2.60
   3   3  12    1.60    2.80
   3   3  12    3.50    2.90
  -4  -3 -12   10.10    4.00
  -4  -3 -12    9.10    3.90
   4   3  12   10.50    3.90
   4   3  12    8.90    4.10
  -5  -3 -12    4.60    3.20
  -5  -3 -12    2.80    3.30
   5   3  12   -1.60    2.90
   5   3  12   -1.40    2.60
   4  -4 -12   26.20    5.80
  -4   4  12   21.40    5.40
   3  -4 -12    1.00    2.90
  -3   4  12    2.40    3.00
   2  -4 -12    2.00    1.40
   2  -4 -12    5.40    3.50
  -2   4  12    2.90    3.20
   1  -4 -12   20.00    3.20
   1  -4 -12   21.80    2.80
   1  -4 -12   19.00    4.70
  -1   4  12   10.40    4.20
   0  -4 -12    0.80    1.90
   0  -4 -12    2.90    3.00
   0  -4 -12    3.60    1.90
   0   4  12    3.20    3.10
  -1  -4 -12   30.80    4.20
  -1  -4 -12   45.30    7.20
   1   4  12   41.40    4.70
   1   4  12   47.90    7.30
  -2  -4 -12   55.19    6.20
  -2  -4 -12   51.79    7.60
   2   4  12   38.70    7.10
   2   4  12   54.19    6.10
  -3  -4 -12    7.40    3.30
  -3  -4 -12    7.10    3.30
   3   4  12    3.70    3.20
  -4  -4 -12   94.99   11.30
  -4  -4 -12   63.39    7.80
   4   4  12   86.59   10.50
   4   4  12   56.89    7.30
  -5  -4 -12    0.50    3.20
  -5  -4 -12   -1.00    2.70
   5   4  12    0.10    2.90
   5   4  12    2.00    3.10
  -6  -4 -12    1.00    3.40
  -6  -4 -12    3.20    3.80
   6   4  12    2.50    3.50
   6   4  12    4.00    4.10
   4  -5 -12    7.80    4.00
  -4   5  12    4.30    3.40
   3  -5 -12    0.40    2.50
  -3   5  12   -0.10    2.80
   2  -5 -12    9.20    3.70
  -2   5  12   10.90    4.00
   1  -5 -12    0.50    2.30
  -1   5  12    0.30    2.80
   0  -5 -12   60.29    4.30
   0  -5 -12   55.09    8.10
   0   5  12   67.39    9.10
  -1  -5 -12    2.40    2.80
  -1  -5 -12    0.80    2.00
   1   5  12    0.20    2.40
   1   5  12    2.10    2.10
  -2  -5 -12    9.90    3.80
  -2  -5 -12    3.40    2.50
   2   5  12    2.80    2.90
   2   5  12    2.00    2.40
  -3  -5 -12    6.00    3.50
  -3  -5 -12    7.30    3.20
   3   5  12    7.70    3.30
   3   5  12    4.50    3.20
  -4  -5 -12    6.50    3.40
  -4  -5 -12    8.70    3.70
   4   5  12   10.80    3.80
   4   5  12    8.00    4.10
  -5  -5 -12   -0.80    3.00
  -5  -5 -12    0.10    2.60
   5   5  12    2.10    3.20
   5   5  12   -1.90    2.40
  -6  -5 -12   10.30    4.40
  -6  -5 -12    8.30    4.50
   6   5  12    9.40    4.40
   4  -6 -12    5.30    3.50
  -4   6  12    2.50    3.40
   3  -6 -12   43.00    6.90
  -3   6  12   35.00    6.50
   2  -6 -12    3.50    3.10
  -2   6  12    6.20    3.60
   1  -6 -12   -2.40    2.40
  -1   6  12    0.60    3.00
   0  -6 -12    2.90    3.00
   0   6  12    0.60    2.80
  -1  -6 -12   -1.20    2.20
  -1  -6 -12   -0.40    1.50
   1   6  12    2.30    1.60
   1   6  12    1.60    3.00
  -2  -6 -12   31.20    6.50
  -2  -6 -12   37.00    4.60
   2   6  12   40.90    4.50
  -3  -6 -12   37.70    5.20
  -3  -6 -12   39.30    7.10
   3   6  12   42.00    7.00
   3   6  12   39.90    5.10
  -4  -6 -12   86.69   10.30
  -4  -6 -12   86.29    7.70
   4   6  12   90.29    7.60
   4   6  12   77.29    9.40
  -5  -6 -12    2.90    3.20
  -5  -6 -12    5.10    4.10
   5   6  12    1.40    2.90
   5   6  12    2.50    3.20
  -6  -6 -12   -2.10    2.50
  -6  -6 -12    1.80    3.10
   6   6  12   -0.40    3.20
   3  -7 -12   -1.70    2.40
  -3   7  12    0.60    2.70
   2  -7 -12    7.60    4.00
  -2   7  12    0.00    2.90
   1  -7 -12    3.10    3.00
  -1   7  12   -0.60    2.80
   0  -7 -12   21.40    5.60
   0   7  12   19.90    5.10
  -1  -7 -12    0.10    1.10
  -1  -7 -12    4.00    3.20
   1   7  12   -1.90    2.50
  -2  -7 -12   59.79    5.00
  -2  -7 -12   65.99    9.30
   2   7  12   56.89    4.80
  -3  -7 -12    0.30    2.80
  -3  -7 -12    0.30    2.30
   3   7  12    1.10    2.90
   3   7  12    1.70    2.30
  -4  -7 -12   26.30    6.50
  -4  -7 -12   22.60    4.40
   4   7  12   22.90    4.70
   4   7  12    9.80    5.00
  -5  -7 -12    4.50    2.90
  -5  -7 -12   16.80    5.50
   5   7  12   12.80    3.80
  -6  -7 -12    4.90    3.70
  -6  -7 -12    3.20    3.50
   6   7  12   -2.40    2.80
   3  -8 -12    6.20    3.80
  -3   8  12    5.90    3.70
   2  -8 -12    3.10    3.30
  -2   8  12   -1.70    2.70
   1  -8 -12   17.20    5.10
  -1   8  12   13.90    4.50
   0  -8 -12    0.80    2.80
   0   8  12   -1.30    2.50
  -1  -8 -12   14.50    4.80
   1   8  12   18.30    5.10
  -2  -8 -12    2.60    1.80
  -2  -8 -12    8.20    4.00
   2   8  12    0.10    3.20
   2   8  12    4.80    2.00
  -3  -8 -12   -0.10    2.00
  -3  -8 -12    1.10    2.90
   3   8  12   -0.20    2.10
  -4  -8 -12   19.50    5.40
  -4  -8 -12   15.30    4.00
   4   8  12   13.00    3.50
  -5  -8 -12    7.90    3.50
  -5  -8 -12   13.00    5.20
   5   8  12   11.00    3.80
  -6  -8 -12   12.10    5.10
  -6  -8 -12    3.00    3.30
   6   8  12   15.90    4.80
   6   8  12    4.40    3.50
   2  -9 -12   -0.40    3.30
  -2   9  12   -2.80    2.40
   1  -9 -12   -2.60    2.40
  -1   9  12    3.90    3.50
   0  -9 -12    3.70    3.50
   0   9  12    6.30    3.70
  -1  -9 -12    3.10    3.60
   1   9  12   -1.60    2.60
  -2  -9 -12   22.60    5.60
   2   9  12   26.90    6.20
   2   9  12   18.30    2.70
  -3  -9 -12    1.30    3.00
  -3  -9 -12    0.70    2.00
   3   9  12    0.60    1.90
  -4  -9 -12   18.10    5.50
  -4  -9 -12   16.80    3.90
   4   9  12   12.30    3.70
  -5  -9 -12    2.40    3.50
  -5  -9 -12    3.70    3.00
   5   9  12    2.80    3.10
   5   9  12   11.80    4.20
   1 -10 -12   20.40    6.20
  -1  10  12   23.70    6.20
   0 -10 -12    8.30    3.90
   0  10  12   16.10    5.20
  -1 -10 -12   24.00    6.30
   1  10  12   31.80    6.70
  -2 -10 -12   12.30    2.20
  -2 -10 -12    6.40    3.90
   2  10  12    9.10    4.10
   2  10  12   14.10    2.50
  -3 -10 -12   12.80    2.90
  -3 -10 -12   10.60    4.70
   3  10  12   18.30    3.30
  -4 -10 -12   26.60    4.50
   4  10  12   24.70    4.50
  -5 -10 -12    1.80    3.10
  -5 -10 -12   -1.10    2.90
   5  10  12    5.00    3.30
   5  10  12    2.00    3.30
  -1 -11 -12   22.80    6.00
   1  11  12   19.10    6.90
  -2 -11 -12   40.60    8.70
   2  11  12   49.80    8.00
  -3 -11 -12   39.50    8.60
  -3 -11 -12   49.99    5.00
   3  11  12   30.70    6.60
   3  11  12   45.20    4.90
  -4 -11 -12   10.60    3.30
  -4 -11 -12    8.80    4.50
   4  11  12    8.70    3.40
   2   1 -13    0.00    2.60
   2   1 -13    1.40    2.90
   2   1 -13    1.40    3.20
   1   1 -13    7.90    4.10
   1   1 -13    8.40    3.60
   1   1 -13   15.20    5.40
   0   1 -13    4.70    3.90
   0   1 -13    5.40    3.50
   0   1 -13    4.20    3.90
   0  -1  13    0.10    3.10
  -1   1 -13    9.00    5.00
  -1   1 -13    3.80    3.80
  -1   1 -13    5.50    3.40
   1  -1  13    5.30    4.30
   3   0 -13    7.10    4.80
   3   0 -13   11.70    3.80
  -3   0  13   17.10    5.70
   2   0 -13    1.90    3.10
   2   0 -13   -0.90    2.90
   2   0 -13   -0.70    2.60
  -2   0  13    0.90    3.20
   1   0 -13    1.00    3.00
   1   0 -13    0.10    2.90
   1   0 -13    2.00    2.80
   0   0 -13   12.60    4.50
   0   0 -13   12.50    4.00
   0   0 -13    9.90    4.00
  -1   0 -13    0.70    3.10
  -1   0 -13   -2.70    2.80
  -1   0 -13    3.40    3.30
  -2   0 -13   91.39   11.30
  -2   0 -13   63.69    8.20
   2   0  13   98.69    9.20
   2   0  13   93.49   13.60
   3  -1 -13   98.29    7.80
   3  -1 -13  116.59   10.50
   2  -1 -13   10.70    4.20
   2  -1 -13   12.30    3.40
   2  -1 -13   10.20    3.30
  -2   1  13   15.00    5.70
   1  -1 -13  125.39   11.10
   0  -1 -13  148.79   12.30
   0  -1 -13  160.78   10.80
  -1  -1 -13   15.80    4.20
  -1  -1 -13   26.30    5.10
  -1  -1 -13   32.30    6.40
  -2  -1 -13   47.00    7.00
  -2  -1 -13   65.19    9.40
   2   1  13   40.40    6.30
  -3  -1 -13    3.60    3.60
  -3  -1 -13    5.60    4.30
   3   1  13    2.90    3.50
   4  -2 -13   17.10    3.40
   4  -2 -13   10.60    4.50
  -4   2  13   15.70    5.60
   3  -2 -13   77.39    6.10
   3  -2 -13   60.29    8.70
  -3   2  13   59.79    9.00
   2  -2 -13   12.70    3.10
   2  -2 -13    8.40    3.90
   2  -2 -13   13.70    3.30
  -2   2  13   19.40    5.60
   1  -2 -13  110.89   10.40
   1  -2 -13  120.69    8.30
  -1   2  13  111.69   10.80
   0  -2 -13    2.30    2.80
   0  -2 -13    2.60    3.10
   0  -2 -13    4.90    2.90
  -1  -2 -13   11.80    3.70
  -1  -2 -13    4.70    3.40
  -2  -2 -13   31.80    5.60
  -2  -2 -13   36.50    7.40
   2   2  13   27.70    5.20
  -3  -2 -13   13.00    4.50
  -3  -2 -13   19.40    5.50
   3   2  13    9.30    3.80
  -4  -2 -13   45.70    7.20
  -4  -2 -13   45.10    7.80
   4   2  13   37.70    6.60
   4  -3 -13   -2.30    2.60
   3  -3 -13   42.40    7.50
   3  -3 -13   63.69    4.80
  -3   3  13   63.89    9.50
   2  -3 -13   51.79    4.70
   2  -3 -13   61.59    9.20
  -2   3  13   52.69    8.20
   1  -3 -13    6.00    2.80
   1  -3 -13    7.70    3.90
   1  -3 -13    5.80    2.40
  -1   3  13    6.10    4.10
   0  -3 -13    5.60    2.70
   0  -3 -13    1.40    2.50
   0  -3 -13    0.10    2.40
  -1  -3 -13   12.30    3.60
  -1  -3 -13   19.90    5.50
  -2  -3 -13   16.50    5.10
  -2  -3 -13   10.50    3.90
   2   3  13   10.60    3.70
   2   3  13    2.20    3.60
  -3  -3 -13   28.50    5.30
  -3  -3 -13   27.40    6.40
   3   3  13   29.50    5.30
  -4  -3 -13   11.70    4.10
  -4  -3 -13   16.60    5.70
   4   3  13   22.70    5.40
   3  -4 -13    1.70    2.90
  -3   4  13    6.00    4.10
   2  -4 -13    0.40    2.70
   2  -4 -13    2.10    1.50
   2  -4 -13    1.30    2.40
  -2   4  13    0.60    3.10
   1  -4 -13   14.50    2.70
   1  -4 -13   11.40    2.50
   1  -4 -13   18.60    5.00
  -1   4  13   23.70    6.00
   0  -4 -13    8.20    2.60
   0  -4 -13    6.60    3.70
   0  -4 -13    7.90    2.50
   0   4  13    6.40    3.80
  -1  -4 -13   20.80    5.30
  -1  -4 -13   15.60    3.40
  -2  -4 -13    7.30    3.80
  -2  -4 -13    7.40    3.20
   2   4  13    3.10    2.70
   2   4  13   -1.60    2.50
  -3  -4 -13   56.99    8.50
  -3  -4 -13   47.90    6.50
   3   4  13   61.39    6.90
  -4  -4 -13    4.40    4.20
  -4  -4 -13    4.60    3.40
   4   4  13    4.00    3.80
  -5  -4 -13   75.29   10.20
   3  -5 -13   12.70    4.60
  -3   5  13   13.70    4.80
   2  -5 -13    1.10    2.90
  -2   5  13    0.20    3.40
   1  -5 -13   -0.30    2.60
  -1   5  13    2.00    3.10
   0  -5 -13  263.47   17.00
   0  -5 -13  226.08   12.30
   0  -5 -13  266.47   12.60
   0   5  13  271.07   17.00
  -1  -5 -13    0.40    2.70
  -1  -5 -13    4.10    2.40
  -2  -5 -13   74.19    9.90
  -2  -5 -13   87.29    7.10
   2   5  13   98.99    7.20
  -3  -5 -13  187.38   14.10
  -3  -5 -13  192.08   12.00
  -4  -5 -13    4.70    3.80
  -4  -5 -13    2.20    3.40
   4   5  13   -1.30    2.70
  -5  -5 -13   10.20    4.90
  -5  -5 -13    9.00    3.80
   5   5  13   11.30    4.30
   3  -6 -13   15.50    4.80
  -3   6  13    7.60    4.50
   2  -6 -13   17.30    5.10
  -2   6  13   14.50    4.70
   1  -6 -13  125.19   10.90
  -1   6  13  121.49   10.80
   0  -6 -13    3.60    3.30
   0   6  13    1.20    2.90
  -1  -6 -13   -0.10    1.60
  -1  -6 -13    0.80    2.80
  -2  -6 -13    2.90    2.30
  -2  -6 -13    4.50    3.60
   2   6  13    0.20    2.10
  -3  -6 -13    7.90    3.00
  -3  -6 -13    7.70    3.90
   3   6  13    9.90    3.20
  -4  -6 -13    2.60    3.50
  -4  -6 -13    4.60    3.20
   4   6  13    2.80    3.00
  -5  -6 -13   21.50    5.10
  -5  -6 -13   21.90    6.40
   5   6  13   17.60    5.50
   5   6  13   17.90    4.90
   2  -7 -13   47.90    8.10
  -2   7  13   53.79    8.10
   1  -7 -13   19.80    5.30
  -1   7  13   21.50    5.70
   0  -7 -13   16.00    4.60
   0   7  13   14.50    4.90
  -1  -7 -13   35.80    3.20
  -1  -7 -13   33.30    6.60
   1   7  13   37.40    7.00
  -2  -7 -13   20.00    3.50
  -2  -7 -13   18.10    4.90
   2   7  13   15.30    3.10
  -3  -7 -13   34.80    7.30
  -3  -7 -13   25.00    4.40
   3   7  13   28.20    4.40
  -4  -7 -13    0.60    2.40
  -4  -7 -13    0.40    3.60
   4   7  13   -2.10    2.50
  -5  -7 -13   39.80    6.20
   5   7  13   45.90    6.50
   5   7  13   34.50    6.80
   1  -8 -13    8.30    4.30
  -1   8  13   10.30    4.80
   0  -8 -13   39.10    7.30
   0   8  13   34.30    6.70
  -1  -8 -13   33.70    7.00
   1   8  13   20.20    5.50
  -2  -8 -13   13.80    2.70
  -2  -8 -13   13.90    4.80
   2   8  13    8.00    2.40
  -3  -8 -13   36.00    5.00
  -3  -8 -13   55.49    8.80
   3   8  13   34.20    4.50
  -4  -8 -13   76.69   13.30
  -4  -8 -13   71.59    7.70
   4   8  13   54.09    8.90
   4   8  13   80.19    9.10
  -5  -8 -13   13.30    5.60
  -5  -8 -13    5.90    3.70
   5   8  13    9.00    3.80
   5   8  13   14.30    5.30
   1  -9 -13    4.20    3.70
  -1   9  13    3.10    3.70
   0  -9 -13   60.09    9.30
   0   9  13   78.69   10.30
  -1  -9 -13  138.19   12.30
  -2  -9 -13   -0.70    2.90
   2   9  13    0.00    2.90
   2   9  13   -1.30    1.60
  -3  -9 -13    0.20    2.10
   3   9  13    1.20    2.20
  -4  -9 -13   41.90    8.00
  -4  -9 -13   35.20    5.40
   4   9  13   41.00    5.60
   4   9  13   39.30    7.70
  -1 -10 -13   44.40   10.00
   1  10  13   22.00    5.70
  -2 -10 -13    0.90    3.90
   2  10  13    0.30    3.10
  -3 -10 -13    2.40    3.70
  -3 -10 -13   -0.70    1.80
   3  10  13    0.40    3.60
   3  10  13   -2.20    2.10
   1  -1 -14    0.00    3.30
   1  -1 -14    4.30    3.10
   1  -1 -14    0.70    3.20
  -1   1  14    3.80    5.90
   0  -1 -14   54.89    6.80
   0  -1 -14   69.39    9.50
   0  -1 -14   43.70    6.40
  -1  -1 -14   13.30    4.10
  -1  -1 -14   20.00    6.00
   1   1  14   23.30    6.50
   2  -2 -14   11.90    3.60
   2  -2 -14   17.70    3.70
   2  -2 -14   17.90    5.70
  -2   2  14   20.80    6.40
   1  -2 -14   16.20    3.90
   1  -2 -14   14.90    5.90
   1  -2 -14   12.10    3.70
  -1   2  14   13.30    5.10
   0  -2 -14   11.00    5.20
   0  -2 -14    9.70    3.50
   0  -2 -14    8.00    3.60
  -1  -2 -14   -2.60    2.90
  -1  -2 -14    0.30    2.60
  -1  -2 -14   -2.90    2.40
   1   2  14    1.00    3.50
  -2  -2 -14   24.20    5.90
  -2  -2 -14   26.70    5.40
   2   2  14   23.60    5.10
   2   2  14   15.80    5.50
   2  -3 -14    2.30    2.10
   2  -3 -14    0.70    2.30
  -2   3  14    4.40    3.80
   1  -3 -14    2.00    3.70
   1  -3 -14   -0.60    2.50
   1  -3 -14   -1.00    2.20
  -1   3  14    3.80    4.30
   0  -3 -14   30.70    4.60
   0  -3 -14   38.40    5.00
   0  -3 -14   42.40    8.80
  -1  -3 -14   24.90    4.80
  -1  -3 -14   25.50    4.90
  -2  -3 -14    1.30    2.90
  -2  -3 -14   10.80    5.80
   2   3  14    0.80    3.50
   2   3  14    3.80    3.20
  -3  -3 -14   13.80    4.90
   3   3  14   22.60    6.40
   2  -4 -14  158.68    8.40
   2  -4 -14  150.28   12.80
  -2   4  14  158.38   13.20
   1  -4 -14   27.50    6.20
   1  -4 -14   17.70    3.10
   1  -4 -14   23.10    3.30
  -1   4  14   37.90    7.10
   0  -4 -14    2.50    2.30
   0  -4 -14    4.40    2.50
   0  -4 -14    6.40    3.90
   0   4  14    3.80    6.40
  -1  -4 -14   37.90    5.00
  -1  -4 -14   29.40    4.40
  -1  -4 -14   55.19    9.00
  -2  -4 -14    0.00    2.70
   2   4  14    5.50    3.80
   2   4  14   -2.30    2.50
  -3  -4 -14   27.30    5.20
  -3  -4 -14   14.70    5.20
   3   4  14   16.80    5.00
   3   4  14   33.20    5.70
   2  -5 -14   49.70    8.30
  -2   5  14   55.79    8.90
   1  -5 -14    0.00    2.90
  -1   5  14    0.40    3.70
   0  -5 -14    3.80    2.20
   0  -5 -14   12.20    4.80
   0  -5 -14    6.50    2.40
   0   5  14    3.20    3.60
  -1  -5 -14   -0.50    2.70
  -1  -5 -14    1.70    2.10
  -1  -5 -14    1.10    2.30
  -2  -5 -14    6.90    2.90
  -2  -5 -14    6.30    4.20
   2   5  14    5.20    2.90
  -3  -5 -14   17.20    6.30
  -3  -5 -14   21.70    5.30
   3   5  14   20.40    4.50
   3   5  14   18.40    5.50
   1  -6 -14    8.00    4.40
  -1   6  14    6.90    5.10
   0  -6 -14    5.00    1.70
   0  -6 -14    6.70    3.90
   0   6  14    1.00    3.00
  -1  -6 -14    0.70    2.00
  -1  -6 -14    0.20    1.80
  -1  -6 -14   -1.50    2.40
  -2  -6 -14    5.30    2.80
   2   6  14    6.00    2.60
  -3  -6 -14    2.40    3.30
  -3  -6 -14    3.90    3.00
   3   6  14    4.80    3.70
   1  -7 -14   12.40    4.60
  -1   7  14   13.40    5.40
   0  -7 -14   40.70    7.60
   0   7  14   36.40    7.20
  -1  -7 -14    2.00    3.90
  -1  -7 -14    0.20    1.60
   1   7  14   -3.10    2.70
  -2  -7 -14   41.60    9.90
  -2  -7 -14   34.50    4.70
   2   7  14   31.10    4.00
  -3  -7 -14    8.50    4.00
  -3  -7 -14    9.10    3.30
   3   7  14    5.20    3.00
   3   7  14    1.10    3.40
   0   8  14   -0.70    3.00
  -1  -8 -14   27.30    8.10
   1   8  14   36.20    7.10
  -2  -8 -14  127.29    7.50
  -2  -8 -14  152.28   16.20
   2   8  14   92.09   14.70
   2   8  14  111.29    7.20
  -3  -8 -14    4.40    2.80
  -3  -8 -14   -0.80    3.00
   0   0   0    0.00    0.00

_computing_structure_solution     'SHELXT 2018/2 (Sheldrick, 2018)'
;
_shelx_hkl_checksum   61787

