 
data_pvl721_auto_a
 
_audit_creation_method            'SHELXL-2018/3'
_shelx_SHELXL_version_number      '2018/3'
_chemical_name_systematic         ?
_chemical_name_common             ?
_chemical_melting_point           ?
_chemical_formula_moiety          ?
_chemical_formula_sum
 'C24 H14 Cd N6 O4 S' 
_chemical_formula_weight          594.87

loop_
 _atom_type_symbol
 _atom_type_description
 _atom_type_scat_dispersion_real
 _atom_type_scat_dispersion_imag
 _atom_type_scat_source
 'C'  'C'   0.0033   0.0016
 'International Tables Vol C Tables 4.2.6.8 and 6.1.1.4'
 'H'  'H'   0.0000   0.0000
 'International Tables Vol C Tables 4.2.6.8 and 6.1.1.4'
 'N'  'N'   0.0061   0.0033
 'International Tables Vol C Tables 4.2.6.8 and 6.1.1.4'
 'O'  'O'   0.0106   0.0060
 'International Tables Vol C Tables 4.2.6.8 and 6.1.1.4'
 'S'  'S'   0.1246   0.1234
 'International Tables Vol C Tables 4.2.6.8 and 6.1.1.4'
 'Cd'  'Cd'  -0.8075   1.2024
 'International Tables Vol C Tables 4.2.6.8 and 6.1.1.4'
 
_space_group_crystal_system       tetragonal
_space_group_IT_number            78
_space_group_name_H-M_alt         'P 43'
_space_group_name_Hall            'P 4cw'
 
_shelx_space_group_comment
;
The symmetry employed for this shelxl refinement is uniquely defined
by the following loop, which should always be used as a source of
symmetry information in preference to the above space-group names.
They are only intended as comments.
;
 
loop_
 _space_group_symop_operation_xyz
 'x, y, z'
 '-x, -y, z+1/2'
 '-y, x, z+3/4'
 'y, -x, z+1/4'
 
_cell_length_a                    7.8549(2)
_cell_length_b                    7.8549(2)
_cell_length_c                    35.5541(13)
_cell_angle_alpha                 90
_cell_angle_beta                  90
_cell_angle_gamma                 90
_cell_volume                      2193.67(14)
_cell_formula_units_Z             4
_cell_measurement_temperature     170(2)
_cell_measurement_reflns_used     ?
_cell_measurement_theta_min       ?
_cell_measurement_theta_max       ?
 
_exptl_crystal_description        ?
_exptl_crystal_colour             ?
_exptl_crystal_density_meas       ?
_exptl_crystal_density_method     ?
_exptl_crystal_density_diffrn     1.801          
_exptl_crystal_F_000              1184
_exptl_transmission_factor_min    ?
_exptl_transmission_factor_max    ?
_exptl_crystal_size_max           ?
_exptl_crystal_size_mid           ?
_exptl_crystal_size_min           ?
_exptl_absorpt_coefficient_mu     1.139
_shelx_estimated_absorpt_T_min    ?
_shelx_estimated_absorpt_T_max    ?
_exptl_absorpt_correction_type    ?
_exptl_absorpt_correction_T_min   ?
_exptl_absorpt_correction_T_max   ?
_exptl_absorpt_process_details    ?
_exptl_absorpt_special_details    ?
_diffrn_ambient_temperature       170(2)
_diffrn_radiation_wavelength      0.71073
_diffrn_radiation_type            MoK\a
_diffrn_source                    ?
_diffrn_measurement_device_type   ?
_diffrn_measurement_method        ?
_diffrn_detector_area_resol_mean  ?
_diffrn_reflns_number             17725
_diffrn_reflns_av_unetI/netI      0.0407
_diffrn_reflns_av_R_equivalents   0.0366
_diffrn_reflns_limit_h_min        -10
_diffrn_reflns_limit_h_max        6
_diffrn_reflns_limit_k_min        -10
_diffrn_reflns_limit_k_max        10
_diffrn_reflns_limit_l_min        -46
_diffrn_reflns_limit_l_max        45
_diffrn_reflns_theta_min          2.291
_diffrn_reflns_theta_max          29.056
_diffrn_reflns_theta_full         25.242
_diffrn_measured_fraction_theta_max   0.926
_diffrn_measured_fraction_theta_full  1.000
_diffrn_reflns_Laue_measured_fraction_max    0.926
_diffrn_reflns_Laue_measured_fraction_full   1.000
_diffrn_reflns_point_group_measured_fraction_max   0.873
_diffrn_reflns_point_group_measured_fraction_full  1.000
_reflns_number_total              5113
_reflns_number_gt                 4745
_reflns_threshold_expression      'I > 2\s(I)'
_reflns_Friedel_coverage          0.856
_reflns_Friedel_fraction_max      0.817
_reflns_Friedel_fraction_full     1.000
 
_reflns_special_details
;
 Reflections were merged by SHELXL according to the crystal
 class for the calculation of statistics and refinement.
 
 _reflns_Friedel_fraction is defined as the number of unique
 Friedel pairs measured divided by the number that would be
 possible theoretically, ignoring centric projections and
 systematic absences.
;
 
_computing_data_collection        ?
_computing_cell_refinement        ?
_computing_data_reduction         ?
_computing_structure_solution     'SHELXT 2018/2 (Sheldrick, 2018)'
_computing_structure_refinement 'SHELXL-2018/3 (Sheldrick, 2018)'
_computing_molecular_graphics     ?
_computing_publication_material   ?
_refine_special_details           ?
_refine_ls_structure_factor_coef  Fsqd
_refine_ls_matrix_type            full
_refine_ls_weighting_scheme       calc
_refine_ls_weighting_details
'w=1/[\s^2^(Fo^2^)+(0.0234P)^2^] where P=(Fo^2^+2Fc^2^)/3'
_atom_sites_solution_primary      ?
_atom_sites_solution_secondary    ?
_atom_sites_solution_hydrogens    geom
_refine_ls_hydrogen_treatment     constr
_refine_ls_extinction_method      none
_refine_ls_extinction_coef        .
_refine_ls_abs_structure_details
;
 Flack x determined using 1942 quotients [(I+)-(I-)]/[(I+)+(I-)]
 (Parsons, Flack and Wagner, Acta Cryst. B69 (2013) 249-259).
;
_refine_ls_abs_structure_Flack    -0.021(10)
_chemical_absolute_configuration  ?
_refine_ls_number_reflns          5113
_refine_ls_number_parameters      325
_refine_ls_number_restraints      1
_refine_ls_R_factor_all           0.0359
_refine_ls_R_factor_gt            0.0318
_refine_ls_wR_factor_ref          0.0581
_refine_ls_wR_factor_gt           0.0565
_refine_ls_goodness_of_fit_ref    1.053
_refine_ls_restrained_S_all       1.053
_refine_ls_shift/su_max           0.000
_refine_ls_shift/su_mean          0.000
 
loop_
 _atom_site_label
 _atom_site_type_symbol
 _atom_site_fract_x
 _atom_site_fract_y
 _atom_site_fract_z
 _atom_site_U_iso_or_equiv
 _atom_site_adp_type
 _atom_site_occupancy
 _atom_site_site_symmetry_order  
 _atom_site_calc_flag
 _atom_site_refinement_flags_posn
 _atom_site_refinement_flags_adp
 _atom_site_refinement_flags_occupancy
 _atom_site_disorder_assembly
 _atom_site_disorder_group
Cd1 Cd 0.27817(4) 0.45342(4) 0.37701(2) 0.03178(9) Uani 1 1 d . . . . .
S1 S 0.52622(18) 0.24756(18) 0.55797(4) 0.0448(3) Uani 1 1 d . . . . .
O1 O 0.1056(5) 0.6257(4) 0.41026(8) 0.0430(9) Uani 1 1 d . . . . .
O2 O -0.3583(5) 0.5830(4) 0.59000(8) 0.0413(8) Uani 1 1 d . . . . .
O3 O -0.4562(4) 0.8134(4) 0.56269(8) 0.0390(8) Uani 1 1 d . . . . .
O4 O 0.1615(5) 0.3860(5) 0.43940(9) 0.0474(10) Uani 1 1 d . . . . .
N1 N 0.6927(5) 0.1957(5) 0.43665(10) 0.0333(9) Uani 1 1 d . . . . .
N2 N 1.0166(5) -0.0374(5) 0.57029(9) 0.0310(9) Uani 1 1 d . . . . .
N3 N 1.2098(5) -0.1644(5) 0.60559(10) 0.0343(10) Uani 1 1 d . . . . .
N4 N 0.5112(6) 0.3126(5) 0.39725(12) 0.0381(10) Uani 1 1 d . . . . .
N5 N 0.7002(5) 0.1600(5) 0.57139(11) 0.0388(10) Uani 1 1 d . . . . .
N6 N 0.5458(5) 0.2418(5) 0.51323(11) 0.0384(10) Uani 1 1 d . . . . .
C1 C 0.9334(6) -0.0956(6) 0.60203(12) 0.0332(11) Uani 1 1 d . . . . .
H1 H 0.815828 -0.084429 0.607745 0.040 Uiso 1 1 calc R U . . .
C2 C 1.0541(6) -0.1719(6) 0.62322(15) 0.0362(11) Uani 1 1 d . . . . .
H2 H 1.034132 -0.223457 0.646983 0.043 Uiso 1 1 calc R U . . .
C3 C 1.1812(6) -0.0832(6) 0.57374(11) 0.0327(10) Uani 1 1 d . . . . .
H3 H 1.266297 -0.059790 0.555467 0.039 Uiso 1 1 calc R U . . .
C4 C 0.9397(6) 0.0297(6) 0.53730(11) 0.0322(11) Uani 1 1 d . . . . .
C5 C 0.7830(6) 0.1196(6) 0.53935(12) 0.0307(10) Uani 1 1 d . . . . .
C6 C 0.6966(6) 0.1706(6) 0.50630(13) 0.0323(10) Uani 1 1 d . . . . .
C7 C 0.7750(6) 0.1422(6) 0.47034(12) 0.0313(10) Uani 1 1 d . . . . .
C8 C 0.9280(6) 0.0664(7) 0.46975(13) 0.0368(12) Uani 1 1 d . . . . .
H8 H 0.984561 0.053159 0.446315 0.044 Uiso 1 1 calc R U . . .
C9 C 1.0086(6) 0.0054(7) 0.50282(16) 0.0348(9) Uani 1 1 d . . . . .
H9 H 1.113528 -0.053970 0.500713 0.042 Uiso 1 1 calc R U . . .
C10 C 0.6288(7) 0.2219(7) 0.37715(16) 0.0523(14) Uani 1 1 d . . . . .
H10 H 0.631412 0.212484 0.350520 0.063 Uiso 1 1 calc R U . . .
C11 C 0.7398(7) 0.1483(8) 0.40070(14) 0.0554(16) Uani 1 1 d . . . . .
H11 H 0.832852 0.077266 0.393983 0.066 Uiso 1 1 calc R U . . .
C12 C 0.5518(7) 0.2921(7) 0.43246(14) 0.0407(13) Uani 1 1 d . . . . .
H12 H 0.489460 0.339563 0.452819 0.049 Uiso 1 1 calc R U . . .
C13 C 0.0825(7) 0.5232(7) 0.43722(12) 0.0342(11) Uani 1 1 d . . . . .
C14 C -0.0415(6) 0.5683(6) 0.46790(10) 0.0303(11) Uani 1 1 d . . . . .
C15 C 0.0021(6) 0.5261(6) 0.50420(11) 0.0320(10) Uani 1 1 d . . . . .
H15 H 0.107764 0.471407 0.509003 0.038 Uiso 1 1 calc R U . . .
C16 C -0.1075(6) 0.5630(6) 0.53412(11) 0.0330(11) Uani 1 1 d . . . . .
H16 H -0.075089 0.533325 0.559007 0.040 Uiso 1 1 calc R U . . .
C17 C -0.2606(6) 0.6411(6) 0.52810(11) 0.0277(10) Uani 1 1 d . . . . .
C18 C -0.3134(6) 0.6813(6) 0.49107(11) 0.0286(10) Uani 1 1 d . . . . .
C19 C -0.1997(6) 0.6455(6) 0.46042(11) 0.0308(11) Uani 1 1 d . . . . .
C20 C -0.3679(6) 0.6822(6) 0.56218(11) 0.0302(11) Uani 1 1 d . . . . .
C21 C -0.4750(7) 0.7492(6) 0.48303(13) 0.0376(11) Uani 1 1 d . . . . .
H21 H -0.551746 0.770451 0.503145 0.045 Uiso 1 1 calc R U . . .
C22 C -0.5246(7) 0.7853(7) 0.44717(14) 0.0472(13) Uani 1 1 d . . . . .
H22 H -0.634401 0.831385 0.442497 0.057 Uiso 1 1 calc R U . . .
C23 C -0.4128(8) 0.7541(7) 0.41720(13) 0.0466(14) Uani 1 1 d . . . . .
H23 H -0.446995 0.780140 0.392232 0.056 Uiso 1 1 calc R U . . .
C24 C -0.2567(7) 0.6872(6) 0.42349(12) 0.0370(12) Uani 1 1 d . . . . .
H24 H -0.183060 0.667548 0.402744 0.044 Uiso 1 1 calc R U . . .
 
loop_
 _atom_site_aniso_label
 _atom_site_aniso_U_11
 _atom_site_aniso_U_22
 _atom_site_aniso_U_33
 _atom_site_aniso_U_23
 _atom_site_aniso_U_13
 _atom_site_aniso_U_12
Cd1 0.0387(2) 0.0375(2) 0.01918(13) 0.00257(13) 0.00148(14) 0.00358(16)
S1 0.0448(8) 0.0441(8) 0.0455(7) -0.0045(6) 0.0090(6) 0.0059(6)
O1 0.057(3) 0.042(2) 0.0294(17) 0.0068(14) 0.0155(15) 0.0007(18)
O2 0.062(3) 0.043(2) 0.0193(16) 0.0027(14) 0.0091(16) 0.0067(19)
O3 0.048(2) 0.039(2) 0.0300(16) 0.0008(14) 0.0074(15) 0.0063(18)
O4 0.061(3) 0.047(2) 0.0334(17) 0.0021(16) 0.0161(17) 0.010(2)
N1 0.033(2) 0.035(2) 0.032(2) 0.0073(17) 0.0023(16) 0.0014(18)
N2 0.034(2) 0.035(2) 0.0242(18) 0.0012(16) 0.0005(15) -0.0051(18)
N3 0.036(2) 0.041(2) 0.0256(19) 0.0020(17) 0.0013(17) -0.0021(19)
N4 0.042(3) 0.035(2) 0.038(2) 0.0028(18) -0.0018(19) 0.004(2)
N5 0.045(3) 0.035(2) 0.036(2) -0.0035(17) 0.0015(19) 0.001(2)
N6 0.037(2) 0.034(2) 0.045(2) -0.0018(18) 0.0030(18) 0.0007(18)
C1 0.034(3) 0.039(3) 0.026(2) -0.0035(19) 0.0028(19) -0.009(2)
C2 0.040(3) 0.045(3) 0.024(2) 0.004(2) 0.0049(19) -0.008(2)
C3 0.036(3) 0.037(3) 0.025(2) -0.0002(19) 0.0067(19) -0.006(2)
C4 0.034(3) 0.037(3) 0.025(2) 0.0030(19) -0.0017(19) -0.011(2)
C5 0.036(3) 0.026(3) 0.030(2) -0.0023(18) 0.006(2) -0.004(2)
C6 0.034(3) 0.023(3) 0.040(2) 0.0003(19) 0.004(2) -0.001(2)
C7 0.033(3) 0.027(3) 0.034(2) 0.0047(19) -0.0005(19) -0.002(2)
C8 0.034(3) 0.047(3) 0.030(2) 0.005(2) 0.007(2) 0.000(2)
C9 0.027(3) 0.047(4) 0.0309(19) 0.004(2) -0.0007(19) 0.002(3)
C10 0.049(3) 0.070(4) 0.038(2) 0.020(3) 0.011(3) 0.016(3)
C11 0.048(4) 0.083(5) 0.036(3) 0.017(3) 0.012(2) 0.024(3)
C12 0.043(3) 0.043(3) 0.036(3) -0.005(2) -0.005(2) 0.009(3)
C13 0.040(3) 0.037(3) 0.025(2) -0.007(2) 0.002(2) -0.002(2)
C14 0.044(3) 0.028(3) 0.019(2) -0.0003(17) 0.0017(18) -0.004(2)
C15 0.034(3) 0.035(3) 0.026(2) 0.0013(19) 0.0020(19) 0.004(2)
C16 0.048(3) 0.031(3) 0.020(2) 0.0001(17) 0.0007(19) -0.001(2)
C17 0.037(3) 0.026(2) 0.020(2) 0.0003(17) 0.0015(17) -0.006(2)
C18 0.035(3) 0.026(2) 0.024(2) -0.0016(17) -0.0012(18) -0.006(2)
C19 0.036(3) 0.034(3) 0.022(2) -0.0034(18) 0.0009(18) -0.008(2)
C20 0.037(3) 0.033(3) 0.021(2) -0.0035(18) -0.0020(18) -0.008(2)
C21 0.043(3) 0.041(3) 0.028(2) -0.001(2) 0.002(2) -0.006(2)
C22 0.043(3) 0.061(4) 0.037(3) 0.003(2) -0.014(2) -0.001(3)
C23 0.061(4) 0.053(4) 0.026(2) 0.003(2) -0.013(2) -0.007(3)
C24 0.050(3) 0.042(3) 0.018(2) 0.0009(19) -0.003(2) -0.009(2)
 
_geom_special_details
;
 All esds (except the esd in the dihedral angle between two l.s. planes)
 are estimated using the full covariance matrix.  The cell esds are taken
 into account individually in the estimation of esds in distances, angles
 and torsion angles; correlations between esds in cell parameters are only
 used when they are defined by crystal symmetry.  An approximate (isotropic)
 treatment of cell esds is used for estimating esds involving l.s. planes.
;
 
loop_
 _geom_bond_atom_site_label_1
 _geom_bond_atom_site_label_2
 _geom_bond_distance
 _geom_bond_site_symmetry_2
 _geom_bond_publ_flag
Cd1 N3 2.245(4) 3_544 ?
Cd1 O1 2.251(3) . ?
Cd1 N4 2.257(4) . ?
Cd1 O2 2.260(3) 3_664 ?
Cd1 O4 2.458(3) . ?
Cd1 O3 2.500(3) 3_664 ?
Cd1 C13 2.692(5) . ?
Cd1 C20 2.717(4) 3_664 ?
S1 N6 1.599(4) . ?
S1 N5 1.603(4) . ?
O1 C13 1.265(5) . ?
O2 C20 1.262(5) . ?
O3 C20 1.242(5) . ?
O4 C13 1.246(6) . ?
N1 C12 1.350(6) . ?
N1 C11 1.382(6) . ?
N1 C7 1.425(6) . ?
N2 C3 1.348(6) . ?
N2 C1 1.382(6) . ?
N2 C4 1.421(6) . ?
N3 C3 1.319(6) . ?
N3 C2 1.376(6) . ?
N4 C12 1.301(7) . ?
N4 C10 1.368(7) . ?
N5 C5 1.350(6) . ?
N6 C6 1.333(6) . ?
C1 C2 1.351(7) . ?
C1 H1 0.9500 . ?
C2 H2 0.9500 . ?
C3 H3 0.9500 . ?
C4 C9 1.354(7) . ?
C4 C5 1.421(7) . ?
C5 C6 1.415(7) . ?
C6 C7 1.436(6) . ?
C7 C8 1.341(7) . ?
C8 C9 1.419(7) . ?
C8 H8 0.9500 . ?
C9 H9 0.9500 . ?
C10 C11 1.340(7) . ?
C10 H10 0.9500 . ?
C11 H11 0.9500 . ?
C12 H12 0.9500 . ?
C13 C14 1.504(6) . ?
C14 C15 1.376(6) . ?
C14 C19 1.408(7) . ?
C15 C16 1.399(6) . ?
C15 H15 0.9500 . ?
C16 C17 1.366(7) . ?
C16 H16 0.9500 . ?
C17 C18 1.416(6) . ?
C17 C20 1.511(6) . ?
C18 C21 1.406(7) . ?
C18 C19 1.437(6) . ?
C19 C24 1.425(6) . ?
C21 C22 1.363(7) . ?
C21 H21 0.9500 . ?
C22 C23 1.403(8) . ?
C22 H22 0.9500 . ?
C23 C24 1.352(7) . ?
C23 H23 0.9500 . ?
C24 H24 0.9500 . ?
 
loop_
 _geom_angle_atom_site_label_1
 _geom_angle_atom_site_label_2
 _geom_angle_atom_site_label_3
 _geom_angle
 _geom_angle_site_symmetry_1
 _geom_angle_site_symmetry_3
 _geom_angle_publ_flag
N3 Cd1 O1 116.81(14) 3_544 . ?
N3 Cd1 N4 90.76(16) 3_544 . ?
O1 Cd1 N4 128.01(14) . . ?
N3 Cd1 O2 123.51(12) 3_544 3_664 ?
O1 Cd1 O2 101.71(13) . 3_664 ?
N4 Cd1 O2 96.60(14) . 3_664 ?
N3 Cd1 O4 88.52(13) 3_544 . ?
O1 Cd1 O4 55.33(12) . . ?
N4 Cd1 O4 84.78(14) . . ?
O2 Cd1 O4 147.83(13) 3_664 . ?
N3 Cd1 O3 79.47(12) 3_544 3_664 ?
O1 Cd1 O3 97.83(12) . 3_664 ?
N4 Cd1 O3 131.63(13) . 3_664 ?
O2 Cd1 O3 54.58(11) 3_664 3_664 ?
O4 Cd1 O3 141.21(12) . 3_664 ?
N3 Cd1 C13 102.48(14) 3_544 . ?
O1 Cd1 C13 27.88(13) . . ?
N4 Cd1 C13 108.03(15) . . ?
O2 Cd1 C13 127.26(14) 3_664 . ?
O4 Cd1 C13 27.53(13) . . ?
O3 Cd1 C13 120.34(14) 3_664 . ?
N3 Cd1 C20 101.43(13) 3_544 3_664 ?
O1 Cd1 C20 101.76(12) . 3_664 ?
N4 Cd1 C20 115.52(15) . 3_664 ?
O2 Cd1 C20 27.45(13) 3_664 3_664 ?
O4 Cd1 C20 156.90(12) . 3_664 ?
O3 Cd1 C20 27.15(12) 3_664 3_664 ?
C13 Cd1 C20 129.42(14) . 3_664 ?
N6 S1 N5 101.7(2) . . ?
C13 O1 Cd1 95.8(3) . . ?
C20 O2 Cd1 96.9(3) . 4_465 ?
C20 O3 Cd1 86.2(2) . 4_465 ?
C13 O4 Cd1 86.8(3) . . ?
C12 N1 C11 105.6(4) . . ?
C12 N1 C7 129.1(4) . . ?
C11 N1 C7 125.2(4) . . ?
C3 N2 C1 106.9(4) . . ?
C3 N2 C4 125.6(4) . . ?
C1 N2 C4 126.6(4) . . ?
C3 N3 C2 105.1(4) . . ?
C3 N3 Cd1 129.0(3) . 4_655 ?
C2 N3 Cd1 125.9(3) . 4_655 ?
C12 N4 C10 105.8(4) . . ?
C12 N4 Cd1 124.4(4) . . ?
C10 N4 Cd1 129.5(3) . . ?
C5 N5 S1 105.1(3) . . ?
C6 N6 S1 106.3(3) . . ?
C2 C1 N2 105.7(4) . . ?
C2 C1 H1 127.1 . . ?
N2 C1 H1 127.1 . . ?
C1 C2 N3 110.5(4) . . ?
C1 C2 H2 124.7 . . ?
N3 C2 H2 124.7 . . ?
N3 C3 N2 111.8(4) . . ?
N3 C3 H3 124.1 . . ?
N2 C3 H3 124.1 . . ?
C9 C4 C5 117.6(4) . . ?
C9 C4 N2 121.7(5) . . ?
C5 C4 N2 120.7(4) . . ?
N5 C5 C6 113.8(4) . . ?
N5 C5 C4 125.3(4) . . ?
C6 C5 C4 120.9(4) . . ?
N6 C6 C5 113.1(4) . . ?
N6 C6 C7 127.6(4) . . ?
C5 C6 C7 119.3(4) . . ?
C8 C7 N1 121.6(4) . . ?
C8 C7 C6 117.8(4) . . ?
N1 C7 C6 120.5(4) . . ?
C7 C8 C9 122.5(4) . . ?
C7 C8 H8 118.8 . . ?
C9 C8 H8 118.8 . . ?
C4 C9 C8 121.6(5) . . ?
C4 C9 H9 119.2 . . ?
C8 C9 H9 119.2 . . ?
C11 C10 N4 109.7(5) . . ?
C11 C10 H10 125.1 . . ?
N4 C10 H10 125.1 . . ?
C10 C11 N1 106.7(5) . . ?
C10 C11 H11 126.6 . . ?
N1 C11 H11 126.6 . . ?
N4 C12 N1 112.1(5) . . ?
N4 C12 H12 124.0 . . ?
N1 C12 H12 124.0 . . ?
O4 C13 O1 121.7(4) . . ?
O4 C13 C14 118.8(4) . . ?
O1 C13 C14 119.5(4) . . ?
O4 C13 Cd1 65.7(2) . . ?
O1 C13 Cd1 56.3(2) . . ?
C14 C13 Cd1 173.8(3) . . ?
C15 C14 C19 120.0(4) . . ?
C15 C14 C13 117.5(4) . . ?
C19 C14 C13 122.4(4) . . ?
C14 C15 C16 120.7(5) . . ?
C14 C15 H15 119.7 . . ?
C16 C15 H15 119.7 . . ?
C17 C16 C15 121.0(4) . . ?
C17 C16 H16 119.5 . . ?
C15 C16 H16 119.5 . . ?
C16 C17 C18 120.2(4) . . ?
C16 C17 C20 117.5(4) . . ?
C18 C17 C20 122.3(4) . . ?
C21 C18 C17 122.5(4) . . ?
C21 C18 C19 118.8(4) . . ?
C17 C18 C19 118.6(4) . . ?
C14 C19 C24 123.4(4) . . ?
C14 C19 C18 119.3(4) . . ?
C24 C19 C18 117.3(4) . . ?
O3 C20 O2 122.3(4) . . ?
O3 C20 C17 120.0(4) . . ?
O2 C20 C17 117.6(4) . . ?
O3 C20 Cd1 66.7(2) . 4_465 ?
O2 C20 Cd1 55.7(2) . 4_465 ?
C17 C20 Cd1 173.3(3) . 4_465 ?
C22 C21 C18 121.8(5) . . ?
C22 C21 H21 119.1 . . ?
C18 C21 H21 119.1 . . ?
C21 C22 C23 119.7(5) . . ?
C21 C22 H22 120.2 . . ?
C23 C22 H22 120.2 . . ?
C24 C23 C22 120.7(5) . . ?
C24 C23 H23 119.7 . . ?
C22 C23 H23 119.7 . . ?
C23 C24 C19 121.8(4) . . ?
C23 C24 H24 119.1 . . ?
C19 C24 H24 119.1 . . ?
 
_refine_diff_density_max    0.508
_refine_diff_density_min   -0.439
_refine_diff_density_rms    0.060

_shelx_res_file
;
TITL pvl721_auto_a.res in P4(3)
    pvl721_auto_a.res
    created by SHELXL-2018/3 at 11:36:53 on 27-Sep-2021
REM Old TITL pvl721_auto in P4(1)
REM SHELXT solution in P4(3): R1 0.081, Rweak 0.029, Alpha 0.011
REM <I/s>   4.514 for   30 systematic absences,  Orientation as input
REM Flack x = -0.016 ( 0.010 ) from  1958 Parsons' quotients
REM Formula found by SHELXT:  C25 N5 O4 S Cd
CELL  0.71073   7.8549   7.8549  35.5541   90.000   90.000   90.000
ZERR    4.000   0.0002   0.0002   0.0013    0.000    0.000    0.000
LATT -1
SYMM -X, -Y, 1/2+Z
SYMM -Y, X, 3/4+Z
SYMM Y, -X, 1/4+Z
SFAC C H N O S CD
UNIT 96 56 24 16 4 4
ACTA
TEMP -103
L.S. 10
BOND $H
LIST 4
OMIT 0
FMAP 2
PLAN 20
WGHT    0.023400
FVAR       0.26763
CD1   6    0.278173    0.453422    0.377013    11.00000    0.03868    0.03748 =
         0.01918    0.00257    0.00148    0.00358
S1    5    0.526222    0.247558    0.557966    11.00000    0.04484    0.04410 =
         0.04550   -0.00455    0.00898    0.00586
O1    4    0.105612    0.625741    0.410256    11.00000    0.05714    0.04230 =
         0.02944    0.00682    0.01548    0.00071
O2    4   -0.358344    0.582986    0.590000    11.00000    0.06165    0.04305 =
         0.01932    0.00271    0.00909    0.00672
O3    4   -0.456178    0.813417    0.562693    11.00000    0.04820    0.03870 =
         0.02996    0.00084    0.00739    0.00629
O4    4    0.161522    0.386023    0.439399    11.00000    0.06146    0.04725 =
         0.03342    0.00210    0.01614    0.00962
N1    3    0.692687    0.195661    0.436647    11.00000    0.03304    0.03455 =
         0.03238    0.00726    0.00231    0.00138
N2    3    1.016616   -0.037356    0.570295    11.00000    0.03409    0.03470 =
         0.02423    0.00118    0.00052   -0.00510
N3    3    1.209839   -0.164426    0.605588    11.00000    0.03636    0.04090 =
         0.02563    0.00202    0.00134   -0.00208
N4    3    0.511244    0.312585    0.397254    11.00000    0.04186    0.03464 =
         0.03791    0.00283   -0.00182    0.00356
N5    3    0.700220    0.160013    0.571395    11.00000    0.04539    0.03473 =
         0.03616   -0.00348    0.00147    0.00110
N6    3    0.545753    0.241828    0.513226    11.00000    0.03705    0.03356 =
         0.04473   -0.00178    0.00305    0.00066
C1    1    0.933435   -0.095647    0.602025    11.00000    0.03442    0.03875 =
         0.02636   -0.00346    0.00276   -0.00921
AFIX  43
H1    2    0.815828   -0.084429    0.607745    11.00000   -1.20000
AFIX   0
C2    1    1.054054   -0.171881    0.623219    11.00000    0.03960    0.04460 =
         0.02444    0.00392    0.00487   -0.00846
AFIX  43
H2    2    1.034132   -0.223457    0.646983    11.00000   -1.20000
AFIX   0
C3    1    1.181232   -0.083172    0.573745    11.00000    0.03580    0.03709 =
         0.02515   -0.00016    0.00666   -0.00564
AFIX  43
H3    2    1.266297   -0.059790    0.555467    11.00000   -1.20000
AFIX   0
C4    1    0.939671    0.029714    0.537297    11.00000    0.03435    0.03720 =
         0.02500    0.00302   -0.00170   -0.01077
C5    1    0.783015    0.119631    0.539353    11.00000    0.03642    0.02557 =
         0.02996   -0.00227    0.00577   -0.00370
C6    1    0.696615    0.170629    0.506299    11.00000    0.03415    0.02293 =
         0.03981    0.00028    0.00373   -0.00076
C7    1    0.774990    0.142186    0.470342    11.00000    0.03264    0.02718 =
         0.03422    0.00474   -0.00048   -0.00182
C8    1    0.928025    0.066437    0.469753    11.00000    0.03394    0.04651 =
         0.02985    0.00530    0.00674    0.00049
AFIX  43
H8    2    0.984561    0.053159    0.446315    11.00000   -1.20000
AFIX   0
C9    1    1.008600    0.005415    0.502819    11.00000    0.02678    0.04662 =
         0.03094    0.00420   -0.00070    0.00183
AFIX  43
H9    2    1.113528   -0.053970    0.500713    11.00000   -1.20000
AFIX   0
C10   1    0.628832    0.221873    0.377154    11.00000    0.04873    0.06990 =
         0.03819    0.01988    0.01075    0.01648
AFIX  43
H10   2    0.631412    0.212484    0.350520    11.00000   -1.20000
AFIX   0
C11   1    0.739795    0.148281    0.400701    11.00000    0.04779    0.08266 =
         0.03563    0.01686    0.01193    0.02424
AFIX  43
H11   2    0.832852    0.077266    0.393983    11.00000   -1.20000
AFIX   0
C12   1    0.551769    0.292137    0.432456    11.00000    0.04304    0.04270 =
         0.03645   -0.00534   -0.00466    0.00914
AFIX  43
H12   2    0.489460    0.339563    0.452819    11.00000   -1.20000
AFIX   0
C13   1    0.082459    0.523207    0.437221    11.00000    0.04049    0.03741 =
         0.02467   -0.00703    0.00169   -0.00183
C14   1   -0.041523    0.568266    0.467898    11.00000    0.04434    0.02776 =
         0.01885   -0.00025    0.00168   -0.00369
C15   1    0.002113    0.526117    0.504203    11.00000    0.03423    0.03537 =
         0.02643    0.00125    0.00197    0.00383
AFIX  43
H15   2    0.107764    0.471407    0.509003    11.00000   -1.20000
AFIX   0
C16   1   -0.107545    0.563022    0.534118    11.00000    0.04848    0.03095 =
         0.01972    0.00010    0.00066   -0.00141
AFIX  43
H16   2   -0.075089    0.533325    0.559007    11.00000   -1.20000
AFIX   0
C17   1   -0.260591    0.641104    0.528104    11.00000    0.03735    0.02569 =
         0.01999    0.00028    0.00148   -0.00570
C18   1   -0.313414    0.681291    0.491070    11.00000    0.03518    0.02639 =
         0.02411   -0.00163   -0.00119   -0.00612
C19   1   -0.199699    0.645453    0.460420    11.00000    0.03613    0.03404 =
         0.02226   -0.00345    0.00091   -0.00845
C20   1   -0.367877    0.682208    0.562180    11.00000    0.03724    0.03292 =
         0.02057   -0.00352   -0.00199   -0.00763
C21   1   -0.475028    0.749177    0.483031    11.00000    0.04300    0.04148 =
         0.02827   -0.00070    0.00213   -0.00584
AFIX  43
H21   2   -0.551746    0.770451    0.503145    11.00000   -1.20000
AFIX   0
C22   1   -0.524608    0.785286    0.447172    11.00000    0.04318    0.06112 =
         0.03727    0.00311   -0.01358   -0.00054
AFIX  43
H22   2   -0.634401    0.831385    0.442497    11.00000   -1.20000
AFIX   0
C23   1   -0.412758    0.754059    0.417203    11.00000    0.06098    0.05319 =
         0.02564    0.00339   -0.01284   -0.00727
AFIX  43
H23   2   -0.446995    0.780140    0.392232    11.00000   -1.20000
AFIX   0
C24   1   -0.256689    0.687209    0.423492    11.00000    0.05044    0.04207 =
         0.01839    0.00092   -0.00282   -0.00915
AFIX  43
H24   2   -0.183060    0.667548    0.402744    11.00000   -1.20000
AFIX   0
HKLF 4




REM  pvl721_auto_a.res in P4(3)
REM wR2 = 0.0581, GooF = S = 1.053, Restrained GooF = 1.053 for all data
REM R1 = 0.0318 for 4745 Fo > 4sig(Fo) and 0.0359 for all 5113 data
REM 325 parameters refined using 1 restraints

END

WGHT      0.0236      0.0000

REM Highest difference peak  0.508,  deepest hole -0.439,  1-sigma level  0.060
Q1    1   0.2782  0.3146  0.3785  11.00000  0.05    0.51
Q2    1   0.1561  0.4521  0.3775  11.00000  0.05    0.40
Q3    1   0.3613  0.5428  0.3784  11.00000  0.05    0.39
Q4    1   0.3534  0.3538  0.3780  11.00000  0.05    0.34
Q5    1   0.4211  0.4492  0.3768  11.00000  0.05    0.34
Q6    1   0.3232  0.3985  0.3531  11.00000  0.05    0.29
Q7    1   0.7599  0.1257  0.5203  11.00000  0.05    0.27
Q8    1   0.7401  0.2025  0.4521  11.00000  0.05    0.24
Q9    1  -0.0061  0.5860  0.4842  11.00000  0.05    0.24
Q10   1   0.7502  0.1426  0.5511  11.00000  0.05    0.24
Q11   1  -0.2266  0.6872  0.4439  11.00000  0.05    0.23
Q12   1   0.1019  0.5786  0.3888  11.00000  0.05    0.23
Q13   1  -0.2670  0.6616  0.4727  11.00000  0.05    0.22
Q14   1   0.7009  0.2914  0.3883  11.00000  0.05    0.21
Q15   1   0.8169  0.0172  0.3923  11.00000  0.05    0.21
Q16   1  -0.0004  0.6282  0.3941  11.00000  0.05    0.21
Q17   1  -0.8198  0.8788  0.4435  11.00000  0.05    0.21
Q18   1  -0.2639  0.7042  0.5034  11.00000  0.05    0.21
Q19   1   0.9306 -0.0624  0.5591  11.00000  0.05    0.21
Q20   1  -0.3242  0.6256  0.5389  11.00000  0.05    0.21
;
_shelx_res_checksum   47820

_shelx_hkl_file
;
   0   0 -44  368.94   22.89
   0   0 -43    8.78    4.46
   0   0 -42    1.21    1.63
   0   0 -41   -1.22    2.14
   0   0 -40  125.52   12.47
   0   0 -39    3.32    2.09
   0   0 -38    2.06    1.97
   0   0 -37    1.15    1.84
   0   0 -36  275.34   16.97
   0   0 -35    9.31    3.33
   0   0 -35    7.33    2.09
   0   0 -34    6.15    2.92
   0   0 -34    3.09    1.53
   0   0 -33   19.05    4.58
   0   0 -33   19.57    3.19
   0   0 -32 1392.94   37.89
   0   0 -32 1367.44   29.33
   0   0 -31   28.93    5.12
   0   0 -31   31.90    4.04
   0   0 -30   -0.06    1.32
   0   0 -30    0.76    1.02
   0   0 -29    6.15    2.47
   0   0 -29    2.97    1.30
   0   0 -28  266.05   14.32
   0   0 -28  256.90   10.62
   0   0 -27    4.68    1.97
   0   0 -27    3.99    1.62
   0   0 -26   -1.31    1.26
   0   0 -26    0.52    0.82
   0   0 -25    4.83    2.29
   0   0 -25    1.42    0.76
   0   0 -24  268.34   13.17
   0   0 -24  274.90   10.23
   0   0 -23    4.46    1.89
   0   0 -23    3.55    1.43
   0   0 -23    3.85    1.79
   0   0 -22    1.07    1.03
   0   0 -22   -0.07    0.61
   0   0 -22   -0.05    1.00
   0   0 -21    4.38    1.90
   0   0 -21    6.83    1.57
   0   0 -21    5.79    2.11
   0   0 -20  831.58   22.18
   0   0 -20  789.95   17.59
   0   0 -20  811.70   22.34
   0   0 -19    7.21    2.19
   0   0 -19    4.74    1.54
   0   0 -19    2.96    1.68
   0   0 -18    2.45    1.39
   0   0 -18    1.16    0.66
   0   0 -18    2.30    1.59
   0   0 -17   17.38    3.28
   0   0 -17   15.07    2.10
   0   0 -17   15.05    2.83
   0   0 -16 2826.88   44.99
   0   0 -16 2702.73   39.33
   0   0 -16 2800.67   45.09
   0   0 -15    3.68    1.41
   0   0 -15    4.86    1.79
   0   0 -15    3.34    1.64
   0   0 -14    1.43    0.78
   0   0 -14    0.51    0.59
   0   0 -14   -0.01    1.01
   0   0 -13    4.10    1.97
   0   0 -13    1.75    0.83
   0   0 -13    1.35    1.30
   0   0 -12 1198.84   22.84
   0   0 -12 1175.28   19.31
   0   0 -12 1199.55   22.85
   0   0 -11    0.56    0.88
   0   0 -11    1.54    0.83
   0   0 -11    0.22    0.77
   0   0 -10    1.00    0.73
   0   0 -10    1.53    0.62
   0   0 -10    1.54    0.80
   0   0  -9   -0.06    0.68
   0   0  -9    0.23    0.41
   0   0  -9   -0.58    0.53
   0   0  -8  146.24    5.48
   0   0  -8  147.68    4.43
   0   0  -8  145.34    5.58
   0   0  -7   -0.47    0.54
   0   0  -7    0.02    0.39
   0   0  -7    0.14    0.46
   0   0  -6    0.41    0.44
   0   0  -6   -0.03    0.35
   0   0  -6    0.84    0.51
   0   0  -5    1.27    0.55
   0   0  -5    0.60    0.28
   0   0  -5    0.51    0.34
   0   0  -4 1159.19   16.54
   0   0  -4 1173.26   16.57
   0   0   4 1174.18   16.76
   0   0   4 1192.26   16.74
   0   0   5    0.42    0.42
   0   0   5    0.47    0.39
   0   0   6    0.31    0.39
   0   0   6    1.30    0.67
   0   0   7    0.93    0.48
   0   0   7    1.18    0.68
   0   0   8  181.34    6.25
   0   0   8  178.14    6.19
   0   0   9    0.77    0.37
   0   0   9    1.35    0.85
   0   0   9    0.41    0.71
   0   0  10    0.66    0.38
   0   0  10    0.94    0.89
   0   0  10    1.31    1.06
   0   0  11    0.12    0.79
   0   0  11    0.84    0.44
   0   0  11    2.06    1.14
   0   0  12 1184.92   22.93
   0   0  12 1206.70   17.15
   0   0  12 1262.98   23.21
   0   0  13    1.52    1.12
   0   0  13    2.58    0.65
   0   0  13    2.95    1.21
   0   0  14    0.73    0.46
   0   0  14   -0.50    0.87
   0   0  14    0.48    0.91
   0   0  15    2.82    0.85
   0   0  15    5.83    2.59
   0   0  15    6.80    2.88
   0   0  16 2696.02   44.44
   0   0  16 2758.38   35.30
   0   0  16 2745.71   44.52
   0   0  17    8.99    2.62
   0   0  17   14.65    1.50
   0   0  17   13.29    2.97
   0   0  18    1.77    1.08
   0   0  18    2.10    0.70
   0   0  18    2.45    1.34
   0   0  19    3.40    1.97
   0   0  19    1.62    0.69
   0   0  19    4.25    2.30
   0   0  20  774.53   21.40
   0   0  20  774.41   13.58
   0   0  20  761.07   21.31
   0   0  21    4.56    1.98
   0   0  21    6.49    1.08
   0   0  21    8.31    2.55
   0   0  22    2.29    1.50
   0   0  22    1.29    0.56
   0   0  22    0.59    1.13
   0   0  23    3.19    1.83
   0   0  23    2.72    0.82
   0   0  23    2.12    1.45
   0   0  24  298.40   13.82
   0   0  24  286.30    7.47
   0   0  24  298.27   13.82
   0   0  25    2.79    1.75
   0   0  25    2.94    0.73
   0   0  25    1.18    1.23
   0   0  26    0.58    1.02
   0   0  26    0.30    0.39
   0   0  26    1.11    1.44
   0   0  27    3.61    0.91
   0   0  27    2.08    1.64
   0   0  28  288.12    7.46
   0   0  28  280.40   14.60
   0   0  29    3.78    0.85
   0   0  29    5.71    2.45
   0   0  30    0.67    0.42
   0   0  30    2.06    1.81
   0   0  31   24.13    1.89
   0   0  31   27.02    5.16
   0   0  32 1356.71   19.73
   0   0  32 1406.01   37.79
   0   0  33   13.00    1.17
   0   0  33   28.46    5.29
   0   0  34    3.22    2.28
   0   0  35    4.56    2.62
   0   0  36  287.10   17.33
   0   0  37    6.43    2.82
   0   0  38    1.65    1.98
   0   0  39    2.16    1.61
   0   0  40  132.02   12.71
   0  -1 -45   20.10    4.96
  -1   0 -44   56.23    8.81
   0  -1 -44   61.15    8.99
   1   0 -44   64.77    9.52
   0  -1 -43   20.76    5.84
   0   1 -43   29.68    6.54
  -1   0 -43   25.25    5.76
   1   0 -43   25.70    6.26
   1   0 -42   19.91    5.49
  -1   0 -42   13.07    4.34
   0   1 -42   15.75    4.86
   0  -1 -42    9.33    4.10
   0   1 -41   71.36    9.63
   1   0 -41   62.62    9.03
   0  -1 -41   75.03    9.38
  -1   0 -41   62.99    8.99
   1   0 -40   42.91    7.32
  -1   0 -40   34.48    6.57
   0   1 -40   42.13    7.41
   0  -1 -40   45.15    7.28
   0   1 -39   80.21    9.93
   1   0 -39   92.29   10.35
   0  -1 -39   85.18    9.79
  -1   0 -39   89.46   10.29
  -1   0 -38   19.67    4.93
   0  -1 -38   25.54    5.47
   0   1 -38   25.69    5.64
   1   0 -38   25.25    5.32
   0   1 -37   67.56    8.75
  -1   0 -37   78.55    9.43
   1   0 -37   72.59    8.81
   0  -1 -37   83.14    9.20
   0   1 -36   48.95    7.32
   1   0 -36   47.18    7.11
  -1   0 -36   43.23    6.87
   0  -1 -36   48.16    7.03
   0   1 -35  142.14   12.22
   0  -1 -35  136.03   11.49
  -1   0 -35  145.57   12.18
   1   0 -35  147.92   12.14
   0  -1 -35  146.35    9.83
   1   0 -35  134.37    8.85
   0  -1 -34  120.16   10.49
   0   1 -34  134.14   11.63
   1   0 -34  114.44   10.45
  -1   0 -34  126.20   11.01
   0   1 -34  118.93    6.60
   1   0 -34  113.67    8.02
  -1   0 -34  116.87    7.50
   0  -1 -34  117.62    8.68
   0  -1 -33  120.10   10.40
  -1   0 -33  119.42   10.59
   1   0 -33  105.64    9.95
   0   1 -33  119.38   10.72
   0   1 -33  108.59    6.22
  -1   0 -33  109.53    7.19
   1   0 -33  106.15    7.72
   0  -1 -33  111.91    8.37
   0  -1 -32  149.54   11.33
  -1   0 -32  135.53   11.04
   1   0 -32  134.40   11.01
   0   1 -32  145.02   11.66
   1   0 -32  130.31    8.37
  -1   0 -32  121.58    7.47
   0   1 -32  137.79    6.95
   0  -1 -32  140.09    9.20
   1   0 -31   99.90    9.30
   0   1 -31   96.61    9.29
   0  -1 -31  100.84    8.99
  -1   0 -31   93.06    8.98
  -1   0 -31   96.32    6.53
   0   1 -31   93.88    5.65
   0  -1 -31  103.27    7.85
   1   0 -31   91.08    6.91
   0   1 -30  136.28   10.83
   0  -1 -30  124.85    9.89
  -1   0 -30  128.84   10.40
   1   0 -30  124.90   10.23
   0  -1 -30  123.60    8.42
  -1   0 -30  129.49    7.52
   0   1 -30  134.31    6.67
   1   0 -30  132.52    8.28
   1   0 -29  450.91   19.47
   0  -1 -29  444.16   18.69
  -1   0 -29  470.16   19.81
   0   1 -29  491.68   20.48
  -1   0 -29  448.23   14.31
   0   1 -29  472.50   12.96
   1   0 -29  437.36   15.31
   0  -1 -29  438.92   16.15
   0   1 -28  699.46   24.31
   1   0 -28  698.67   24.00
   0  -1 -28  699.52   23.24
  -1   0 -28  695.78   24.09
   1   0 -28  650.46   18.80
   0   1 -28  675.68   15.79
  -1   0 -28  647.72   17.46
   0  -1 -28  651.41   19.81
   1   0 -27   55.59    6.64
   0   1 -27   62.89    7.12
   0  -1 -27   55.10    6.28
  -1   0 -27   41.15    5.76
   0  -1 -27   48.69    5.39
   0   1 -27   51.22    3.99
  -1   0 -27   47.33    4.40
   1   0 -27   58.09    5.30
   0   1 -26  105.02    8.85
   0  -1 -26  115.49    8.65
   1   0 -26  105.74    8.62
  -1   0 -26  102.22    8.54
   0  -1 -26  102.72    7.18
  -1   0 -26  106.77    6.30
   0   1 -26   98.69    5.30
   1   0 -26   99.60    6.67
   0  -1 -25  103.81    8.02
  -1   0 -25   92.29    7.90
   0   1 -25  109.36    8.72
   1   0 -25   98.04    8.19
   0  -1 -25   97.81    6.90
   0   1 -25   96.16    5.13
   1   0 -25   93.27    6.39
  -1   0 -25   93.19    5.83
  -1   0 -25   90.11    7.96
   1   0 -24  164.34   10.41
  -1   0 -24  163.97   10.33
   0   1 -24  170.93   10.61
   0  -1 -24  176.09   10.27
  -1   0 -24  154.17    7.40
   1   0 -24  165.83    8.43
   0   1 -24  160.54    6.55
   0  -1 -24  173.60    9.07
   0  -1 -24  177.65   10.37
  -1   0 -24  169.77   10.67
  -1   0 -23  272.23   13.11
   1   0 -23  283.95   13.36
   0   1 -23  294.63   13.74
   0  -1 -23  285.50   12.86
  -1   0 -23  266.03    9.71
   1   0 -23  280.25   10.82
   0   1 -23  278.44    8.51
   0  -1 -23  266.69   11.22
  -1   0 -23  282.42   13.55
   0  -1 -23  292.12   13.22
   0   1 -22   62.07    6.19
  -1   0 -22   52.60    5.53
   1   0 -22   53.68    5.68
   0  -1 -22   51.15    5.23
   0   1 -22   50.54    3.40
   1   0 -22   52.77    4.57
   0  -1 -22   48.17    4.60
   0  -1 -22   52.52    5.37
  -1   0 -22   52.02    5.55
  -1   0 -21  141.08    8.94
   0   1 -21  141.37    9.09
   1   0 -21  133.93    8.71
   0  -1 -21  152.58    8.84
   0   1 -21  137.74    5.54
   1   0 -21  132.88    7.10
   0  -1 -21  139.92    7.70
   0   1 -21  146.50    9.30
  -1   0 -21  150.62    9.31
   0  -1 -21  137.79    8.46
  -1   0 -20  209.18   10.74
   0  -1 -20  230.44   10.65
   0   1 -20  233.87   11.40
   1   0 -20  216.24   10.93
   1   0 -20  218.03    8.97
   0  -1 -20  214.58    9.49
   0   1 -20  220.58    6.94
   0   1 -20  221.06   11.25
   0  -1 -20  240.37   10.92
  -1   0 -20  227.73   11.28
   0   1 -19  293.49   12.58
   1   0 -19  306.95   12.67
   0  -1 -19  301.14   11.93
  -1   0 -19  291.64   12.44
   0  -1 -19  293.49   10.95
   0   1 -19  277.52    7.72
   1   0 -19  294.94   10.35
  -1   0 -19  277.14   12.24
   0   1 -19  300.37   12.86
   0  -1 -19  306.34   12.16
   1   0 -18  324.04   12.90
  -1   0 -18  336.34   13.10
   0  -1 -18  332.41   12.18
   0   1 -18  318.26   12.98
   0  -1 -18  321.46   11.34
   0   1 -18  321.83    8.09
   1   0 -18  309.73   10.47
   0   1 -18  333.90   13.27
   0  -1 -18  327.69   12.27
  -1   0 -18  331.03   13.02
  -1   0 -17  358.72   13.12
   0   1 -17  341.52   13.17
   0  -1 -17  348.26   12.19
   1   0 -17  342.86   12.95
   0   1 -17  332.36    8.03
   1   0 -17  340.64   10.75
   0  -1 -17  336.09   11.37
   0  -1 -17  349.72   12.30
   0   1 -17  330.19   13.01
  -1   0 -17  354.11   13.20
   0   1 -16  686.43   18.69
   0  -1 -16  698.35   17.50
   1   0 -16  689.41   18.38
  -1   0 -16  673.03   18.27
   0  -1 -16  671.12   16.55
   1   0 -16  662.64   15.60
   0   1 -16  668.93   12.12
  -1   0 -16  661.72   18.30
   0  -1 -16  683.81   17.39
   0   1 -16  688.90   18.84
  -1   0 -15  783.97   11.58
   0   1 -15  769.55   19.56
  -1   0 -15  797.42   19.64
   1   0 -15  734.70   18.88
   0  -1 -15  777.41   18.16
   1   0 -15  742.98   16.45
   0  -1 -15  749.41   17.44
   0   1 -15  744.28   12.77
   0   1 -15  767.91   19.50
   0  -1 -15  774.88   18.19
  -1   0 -15  765.60   19.38
  -1   0 -14  557.55    9.11
  -1   0 -14  574.96   15.72
   0   1 -14  595.22   16.11
   1   0 -14  572.32   15.53
   0  -1 -14  577.07   14.66
   0   1 -14  559.67   10.01
   1   0 -14  567.73   13.54
   0   1 -14  550.10   15.87
  -1   0 -14  548.69   15.59
   0  -1 -14  555.44   14.53
  -1   0 -13  443.95    7.67
   0  -1 -13  449.19   12.30
   1   0 -13  440.30   13.03
  -1   0 -13  450.12   13.50
   0   1 -13  448.61   13.47
   0   1 -13  442.09    8.18
   1   0 -13  431.02   11.31
   0  -1 -13  444.83   12.33
   0   1 -13  440.83   13.41
  -1   0 -13  453.12   13.43
  -1   0 -12  270.84    5.54
   0  -1 -12  281.95    9.08
   0   1 -12  292.06   10.22
  -1   0 -12  270.17    9.87
   1   0 -12  274.10    9.68
   0   1 -12  283.21    5.82
   1   0 -12  272.42    8.44
  -1   0 -12  276.79    9.85
   0  -1 -12  293.89    9.26
   0   1 -12  297.70   10.30
  -1   0 -11  395.37    6.99
  -1   0 -11  380.44   11.51
   0  -1 -11  377.98   10.30
   1   0 -11  408.12   11.54
   0   1 -11  397.46   11.67
   0   1 -11  375.50    6.75
   1   0 -11  385.36    9.99
  -1   0 -11  399.58   11.59
   0  -1 -11  380.56   10.38
   0   1 -11  378.30   11.44
  -1   0 -10   31.18    1.61
   0  -1 -10   26.19    2.40
   0  -1 -10   25.77    2.22
  -1   0 -10   29.52    2.99
   1   0 -10   30.36    2.88
   0   1 -10   34.50    3.36
   0   1 -10   28.30    1.36
   1   0 -10   28.01    2.48
   0   1 -10   35.02    3.25
   0  -1 -10   30.87    2.61
  -1   0 -10   30.20    2.98
   0  -1  -9  524.06   11.16
  -1   0  -9  527.72    8.68
   0  -1  -9  557.82   11.67
  -1   0  -9  547.84   12.96
   1   0  -9  543.37   12.82
   0   1  -9  533.59   12.85
   1   0  -9  514.51   11.44
   0   1  -9  522.01   12.88
  -1   0  -9  520.94   12.81
   0  -1  -9  530.58   11.48
   0  -1  -8  294.81    7.65
  -1   0  -8  284.81    5.72
   1   0  -8  279.79    8.58
   0  -1  -8  312.48    7.79
   0   1  -8  330.42    9.26
  -1   0  -8  279.49    8.58
   1   0  -8  275.87    7.73
   0   1  -8  310.76    9.09
   0  -1  -8  305.79    7.71
  -1   0  -8  281.63    8.65
   0   1  -7 1325.29   17.62
   0  -1  -7 1334.04   20.47
  -1   0  -7 1304.87   17.78
   0   1  -7 1353.18   21.92
   0  -1  -7 1307.30   19.75
   1   0  -7 1365.56   20.79
   0   1  -7 1310.51   21.69
   0  -1  -7 1323.53   19.75
   0   1  -6   70.05    2.52
   0  -1  -6   71.85    3.40
   0   1  -6   70.49    3.65
   0  -1  -6   78.46    3.10
   1   0  -6   74.74    3.45
  -1   0  -6   77.64    2.64
   0  -1  -6   70.27    2.93
   0   1  -6   72.17    3.70
   0  -1  -5 1296.40   19.65
   0   1  -5 1307.19   17.61
   0  -1  -5 1303.60   17.88
   0   1  -5 1305.23   20.02
   1   0  -5 1285.72   19.62
   0  -1  -5 1289.68   17.81
   0   1  -5 1279.45   19.99
  -1   0  -5 1327.23   18.57
   0  -1  -4  886.18   14.69
   0   1  -4  906.67   13.18
   0  -1  -4  898.05   12.49
   0   1  -4  922.70   14.65
   1   0  -4  877.66   14.60
   0   1  -4  915.41   14.62
  -1   0  -4  889.92   13.76
   0  -1  -4  897.13   12.49
   0  -1  -3 2467.16   32.55
   0   1  -3 2503.21   31.18
   0   1  -3 2470.82   31.68
   1   0  -3 2528.49   32.49
   0   1  -3 2497.12   31.72
   0  -1  -2  896.31   14.23
   0   1  -2  876.01   13.35
   0   1  -2  879.47   12.89
   1   0  -2  887.63   14.06
  -1   0  -2  915.77   13.68
   0  -1  -1  171.15    4.81
   0   1  -1  182.52    4.71
   1   0  -1  163.26    4.65
  -1   0  -1  163.95    4.54
   0   1   0  699.26   11.56
   0  -1   0  687.30   11.52
   1   0   0  702.83   11.53
  -1   0   0  710.78   11.54
   0  -1   1  149.07    4.19
   0   1   1  139.98    4.28
  -1   0   1  133.63    4.16
   1   0   1  134.54    4.01
   0   1   2  932.93   14.39
   0  -1   2  894.59   13.52
   0  -1   2  872.40   12.95
  -1   0   2  896.23   14.12
   1   0   2  905.51   13.67
   0  -1   2  889.77   13.02
   0   1   3 2502.99   32.48
   0  -1   3 2439.82   31.10
   0  -1   3 2431.37   31.58
  -1   0   3 2555.50   32.51
   1   0   3 2518.28   31.54
   0  -1   3 2488.66   31.62
   0   1   4  948.29   15.07
   0  -1   4  938.21   13.53
   0  -1   4  945.56   14.91
   0   1   4  901.61   12.66
  -1   0   4  913.06   14.89
   0  -1   4  901.52   14.78
   0   1   4  908.73   12.75
   0  -1   5 1293.48   17.61
   0   1   5 1317.71   19.66
   0   1   5 1286.68   17.83
   0  -1   5 1344.40   20.16
  -1   0   5 1309.26   19.75
   0   1   5 1289.41   17.91
   0  -1   5 1286.53   20.03
   0  -1   6   56.49    2.25
   0   1   6   60.78    3.08
   0  -1   6   59.10    3.27
  -1   0   6   60.08    3.33
   0   1   6   59.33    2.68
  -1   0   6   58.27    3.12
   0  -1   6   57.17    3.27
   0   1   6   64.23    2.79
   0  -1   7 1253.15   16.94
   0   1   7 1304.46   19.81
  -1   0   7 1293.18   21.20
   0  -1   7 1226.94   21.03
  -1   0   7 1314.21   20.23
   0   1   7 1259.91   19.01
   0  -1   7 1224.24   21.05
   0   1   8  333.36    8.24
   0  -1   8  337.06    6.14
   0   1   8  334.09    8.16
  -1   0   8  317.05    9.13
   0  -1   8  331.47    9.42
  -1   0   8  308.85    8.30
   0  -1   8  336.44    9.50
   0   1   8  338.13    8.19
   0   1   9  520.40   11.02
   0  -1   9  523.05    8.38
   0   1   9  525.38   11.37
   0  -1   9  519.65   12.78
  -1   0   9  519.53   12.61
  -1   0   9  531.30   11.57
   0   1   9  533.55   11.44
   0  -1   9  527.56   12.79
   0  -1  10   38.87    1.73
   0   1  10   42.10    2.97
  -1   0  10   39.34    3.31
   0   1  10   39.72    3.02
   0  -1  10   39.80    3.36
  -1   0  10   43.22    3.02
   0  -1  10   37.68    1.63
   0   1  10   45.22    3.21
   0  -1  10   36.49    3.23
   0  -1  11  356.43    6.33
   0   1  11  344.30    8.89
  -1   0  11  356.41   10.87
   0   1  11  335.07    9.71
   0  -1  11  342.87   10.96
  -1   0  11  366.40    9.67
   0  -1  11  361.58   11.08
   1   0  11  353.28    6.49
   0   1  11  350.87    9.84
   0   1  12  295.96    8.24
   0  -1  12  295.90    5.52
   0  -1  12  289.05   10.27
  -1   0  12  287.15    9.89
   0   1  12  285.54    9.19
  -1   0  12  282.30    8.61
   0  -1  12  310.75   10.42
   1   0  12  273.88    5.59
   0   1  12  309.35    9.48
  -1   0  12  281.89    9.86
   0  -1  13  446.09    7.42
   0   1  13  469.29   10.89
  -1   0  13  427.87   12.95
   0  -1  13  446.09   13.51
   0   1  13  445.95   12.36
  -1   0  13  438.38   11.42
   0   1  13  455.56   12.32
   1   0  13  453.72    7.71
   0  -1  13  452.94   13.43
  -1   0  13  427.86   12.89
   0   1  14  578.21   12.72
   0  -1  14  590.33    9.02
   0  -1  14  599.96   16.37
   0   1  14  572.15   14.79
  -1   0  14  588.56   15.77
  -1   0  14  562.77   13.62
   0  -1  14  582.67   16.04
  -1   0  14  568.20   15.62
   0   1  14  577.59   14.70
   1   0  14  578.80    9.30
   0  -1  15  726.84   10.76
   0   1  15  735.58   14.98
   0  -1  15  688.50   18.64
  -1   0  15  748.77   18.68
   0   1  15  748.00   17.82
  -1   0  15  746.49   16.36
  -1   0  15  731.77   18.59
   0  -1  15  721.31   18.70
   0   1  15  740.61   17.72
   1   0  15  759.22   11.26
   0   1  16  676.93   14.28
   0  -1  16  680.74   10.04
   0  -1  16  703.92   18.97
  -1   0  16  670.53   18.10
   0   1  16  679.83   17.24
  -1   0  16  666.71   15.60
   1   0  16  634.11   10.31
   0  -1  16  661.79   18.39
  -1   0  16  696.92   18.30
   0   1  16  687.99   17.23
   0   1  17  354.25    9.97
   0  -1  17  355.95    6.38
  -1   0  17  361.64   13.15
   0  -1  17  372.22   13.61
   0   1  17  357.43   12.44
  -1   0  17  355.18   11.09
   0   1  17  371.09   12.57
  -1   0  17  362.95   13.06
   1   0  17  376.43    6.86
   0  -1  17  356.02   13.37
  -1   0  18  302.42   12.24
   0   1  18  311.88   11.85
   0  -1  18  319.24   12.85
   0   1  18  304.02    9.29
   0  -1  18  317.42    5.78
   0  -1  18  311.11   12.69
  -1   0  18  309.95   12.45
   1   0  18  311.41    6.13
   0   1  18  301.46   11.62
  -1   0  19  313.97   12.76
   0  -1  19  303.90   12.88
   0   1  19  318.24   12.25
   0  -1  19  295.05    5.52
   0   1  19  305.04    9.27
   1   0  19  289.43    5.86
  -1   0  19  300.86   12.47
   0  -1  19  293.99   12.56
   0   1  19  307.45   11.99
  -1   0  20  234.41   11.22
   0  -1  20  237.89   11.62
   0   1  20  246.01   11.07
   0   1  20  242.48    8.24
   0   1  20  247.21   10.97
  -1   0  20  224.70   11.02
   0  -1  20  228.40   11.41
   1   0  20  231.15    5.01
   0  -1  21  135.10    8.83
   0   1  21  145.69    8.61
  -1   0  21  130.83    8.61
   0   1  21  137.98    6.16
   0   1  21  145.96    8.57
   1   0  21  137.90    3.61
   0  -1  21  138.52    9.02
  -1   0  21  124.92    8.28
   0  -1  22   47.60    5.54
  -1   0  22   47.57    5.25
   0   1  22   39.55    4.60
   0   1  22   41.98    3.42
   0  -1  22   49.14    5.57
   0   1  22   42.06    4.76
  -1   0  22   44.95    5.10
   1   0  22   43.74    1.90
   0  -1  23  284.60   13.70
  -1   0  23  289.59   13.56
   0   1  23  282.82   12.81
   0   1  23  277.39    9.16
   0   1  23  269.51   12.50
   0  -1  23  263.95   13.17
  -1   0  23  285.42   13.36
  -1   0  24  182.46    7.37
   0  -1  24  178.99   10.98
   0   1  24  193.10   10.77
  -1   0  24  190.48   11.08
   0   1  24  191.65    7.57
  -1   0  24  178.83   10.78
   0  -1  24  178.05   10.97
   0   1  24  185.31   10.51
   0  -1  25   82.22    7.54
   0   1  25   86.74    7.38
  -1   0  25   79.85    7.38
   0   1  25   88.32    5.12
  -1   0  25   80.44    4.84
   0  -1  25   85.02    7.69
   0   1  25   84.29    7.30
  -1   0  25   79.21    7.26
   0   1  26  114.74    8.65
  -1   0  26  114.16    8.92
   0   1  26  123.51    6.18
  -1   0  26  110.35    5.79
  -1   0  26  115.42    8.99
   0  -1  26  118.24    9.31
   0   1  26  119.25    8.85
   0   1  27   64.11    6.79
  -1   0  27   51.19    4.01
   0   1  27   64.42    4.48
   0  -1  27   61.00    6.94
   0   1  27   60.42    6.54
  -1   0  27   61.11    6.85
   0   1  28  706.73   16.40
  -1   0  28  672.11   15.95
   0   1  28  687.93   23.10
  -1   0  28  691.18   23.77
   0  -1  28  673.74   23.98
   0   1  29  458.52   12.74
  -1   0  29  437.48   12.38
   0   1  29  452.43   18.81
   0  -1  29  451.32   19.69
  -1   0  29  445.73   19.23
  -1   0  30  119.91    6.11
   0   1  30  125.40    6.31
   0  -1  30  121.09   10.15
   0   1  30  113.75    9.51
  -1   0  30  118.67    9.92
  -1   0  31   97.14    5.49
   0   1  31  102.63    5.65
   0  -1  31  102.36    9.60
   0   1  31  103.49    9.18
  -1   0  31   96.05    9.25
   0   1  32  134.17    6.50
  -1   0  32  118.82    6.10
  -1   0  32  128.61   10.77
   0   1  32  124.06   10.26
   0  -1  32  113.83   10.30
   0   1  33  120.41    6.20
  -1   0  33  108.29    5.76
   0  -1  33  112.87   10.39
  -1   0  33  108.02   10.17
   0   1  33  111.44    9.93
  -1   0  34  122.07    6.14
   0   1  34  125.54    6.24
   0   1  34  126.03   10.76
   0  -1  34  131.58   11.50
  -1   0  34  130.56   11.32
  -1   0  35  145.13    6.52
   0   1  35  146.21    6.68
  -1   0  35  148.50   12.40
   0  -1  35  137.48   12.01
   0   1  35  134.00   11.31
   0   1  36   38.36    3.30
   0  -1  36   42.91    6.94
   0   1  36   34.81    6.01
  -1   0  36   38.81    6.38
  -1   0  37   69.89    8.60
   0  -1  37   73.51    9.00
  -1   0  38   27.29    5.67
   0  -1  38   23.04    5.17
   0  -1  39   80.21    9.86
  -1   0  39   77.10    9.42
   0  -1  40   48.71    7.83
  -1   0  40   33.76    6.49
   0  -1  41   70.73    9.44
  -1   0  41   66.39    8.97
  -1   0  42   11.16    3.86
   0  -1  42   13.14    4.10
  -1   0  43   28.67    6.37
  -1   0  44   68.72    9.86
   1  -1 -45   56.03    8.76
  -1  -1 -44   12.65    4.56
   1  -1 -44    9.11    4.14
  -1   1 -43   50.85    8.59
   1  -1 -43   51.71    8.35
   1   1 -43   62.73    9.62
  -1  -1 -43   53.81    8.39
  -1  -1 -42   27.02    5.96
   1   1 -42   14.08    4.31
  -1   1 -42   21.13    5.80
   1  -1 -42   25.90    5.73
   1  -1 -41   26.37    5.95
  -1  -1 -41   30.01    5.94
  -1   1 -41   36.06    6.85
   1   1 -41   39.05    7.31
   1   1 -40   24.44    5.67
  -1   1 -40   23.71    5.71
  -1  -1 -40   23.30    5.38
   1  -1 -40   33.26    6.39
  -1  -1 -39   72.90    9.13
   1  -1 -39   82.26    9.71
   1   1 -39   82.04   10.12
  -1   1 -39   73.98    9.66
  -1  -1 -38   28.13    5.62
   1  -1 -38   31.80    5.94
   1   1 -38   21.71    5.27
  -1   1 -38   28.40    5.74
  -1   1 -37  107.81   11.07
   1  -1 -37  107.11   10.62
   1   1 -37  112.86   11.40
  -1  -1 -37  111.56   10.73
   1  -1 -36   30.17    5.77
  -1  -1 -36   32.50    5.90
  -1   1 -36   22.18    5.47
   1   1 -36   29.16    5.95
   1  -1 -35  178.23   13.09
   1   1 -35  154.91   12.80
  -1  -1 -35  178.81   13.17
  -1   1 -35  173.69   13.52
  -1  -1 -35  154.65    9.90
  -1  -1 -34   39.75    6.40
  -1   1 -34   29.42    5.53
   1   1 -34   32.44    6.12
   1  -1 -34   26.48    5.12
   1   1 -34   23.04    3.46
  -1  -1 -34   28.33    4.38
   1  -1 -34   32.70    4.87
   1   1 -33  252.77   15.73
  -1  -1 -33  259.87   15.40
   1  -1 -33  266.73   15.46
  -1   1 -33  266.82   16.17
  -1  -1 -33  252.87   12.50
  -1   1 -33  263.32    9.20
   1   1 -33  262.14   10.83
   1  -1 -33  243.57   12.83
  -1   1 -32    4.65    2.85
   1  -1 -32    9.31    3.34
  -1  -1 -32    8.59    3.21
   1   1 -32   13.88    4.12
  -1  -1 -32    6.08    2.25
   1   1 -32    8.73    2.38
   1  -1 -32   10.15    2.91
  -1   1 -32    7.27    1.75
   1  -1 -31  237.55   14.16
  -1  -1 -31  235.10   14.05
  -1   1 -31  231.71   14.59
   1   1 -31  229.89   14.52
   1  -1 -31  227.59   12.05
   1   1 -31  226.42    9.82
  -1   1 -31  222.79    8.22
  -1  -1 -31  230.11   11.61
  -1   1 -30   61.21    7.34
  -1  -1 -30   49.94    6.43
   1   1 -30   68.17    7.84
   1  -1 -30   64.63    7.31
  -1   1 -30   57.05    4.02
   1  -1 -30   59.94    6.13
   1   1 -30   56.46    4.83
  -1  -1 -30   43.34    4.98
   1  -1 -29  392.48   17.53
   1   1 -29  396.92   18.52
  -1  -1 -29  396.60   17.89
  -1   1 -29  401.07   18.47
  -1  -1 -29  373.11   14.61
   1  -1 -29  376.20   15.29
  -1   1 -29  388.27   10.86
   1   1 -29  385.16   12.74
  -1  -1 -28   12.10    2.92
   1   1 -28   16.77    3.99
  -1   1 -28   12.45    3.48
   1  -1 -28   17.77    4.00
  -1  -1 -28   10.82    2.61
   1  -1 -28   15.76    3.30
  -1   1 -28   17.06    2.24
   1   1 -28   14.20    2.55
  -1  -1 -27  116.51    9.09
   1  -1 -27  120.17    9.14
   1   1 -27  122.88    9.85
  -1   1 -27  120.21    9.61
   1   1 -27  117.29    6.55
   1  -1 -27  113.64    7.98
  -1  -1 -27  103.11    7.26
  -1   1 -27  115.12    5.40
  -1   1 -26  125.11    9.71
   1   1 -26  127.44    9.86
   1  -1 -26  133.45    9.43
  -1  -1 -26  132.95    9.46
  -1  -1 -26  139.21    8.28
  -1   1 -26  130.89    5.65
   1   1 -26  118.52    6.54
   1  -1 -26  115.69    7.95
  -1  -1 -26  154.85   10.34
  -1  -1 -25  119.16    8.76
   1  -1 -25  111.56    8.38
   1   1 -25  130.70    9.61
  -1   1 -25  117.66    9.18
   1  -1 -25  112.24    7.63
  -1   1 -25  124.15    5.40
   1   1 -25  112.67    6.21
  -1  -1 -25  129.12    9.20
  -1   1 -24   30.59    4.64
   1  -1 -24   37.46    5.03
  -1  -1 -24   32.75    4.49
   1   1 -24   44.49    5.77
  -1   1 -24   32.85    2.76
   1   1 -24   29.41    3.16
   1  -1 -24   33.09    4.16
  -1   1 -24   35.76    5.04
  -1  -1 -24   38.68    4.93
  -1  -1 -23  417.53   16.17
  -1   1 -23  456.06   17.55
   1   1 -23  457.26   17.68
   1  -1 -23  432.73   16.23
  -1   1 -23  436.63   10.41
   1   1 -23  434.99   12.44
   1  -1 -23  428.73   15.03
  -1  -1 -23  438.82   16.65
  -1   1 -23  461.90   18.02
   1  -1 -22   58.22    5.73
  -1   1 -22   65.89    6.38
   1   1 -22   63.23    6.55
  -1  -1 -22   57.42    5.68
   1  -1 -22   61.15    5.53
  -1   1 -22   64.89    3.59
   1   1 -22   59.55    4.26
  -1   1 -22   61.37    6.54
  -1  -1 -22   58.39    5.75
   1  -1 -21  557.47   17.93
  -1  -1 -21  585.19   18.50
   1   1 -21  592.47   19.64
  -1   1 -21  577.98   19.20
  -1   1 -21  566.11   11.70
   1   1 -21  548.99   13.83
   1  -1 -21  542.59   16.75
  -1  -1 -21  598.38   18.77
  -1   1 -21  619.85   20.06
   1  -1 -20   53.54    5.29
  -1  -1 -20   53.02    5.16
  -1   1 -20   43.23    4.97
   1   1 -20   59.95    5.84
  -1  -1 -20   50.60    3.46
   1  -1 -20   54.67    5.11
   1   1 -20   50.96    3.78
  -1   1 -20   45.30    2.81
  -1  -1 -20   54.94    5.29
  -1   1 -20   40.20    4.87
  -1  -1 -19  445.08   11.06
  -1   1 -19  483.33   16.61
  -1  -1 -19  446.33   15.27
   1   1 -19  444.40   16.19
   1  -1 -19  484.85   15.58
   1   1 -19  433.75   11.60
  -1   1 -19  451.56    9.59
   1  -1 -19  449.47   14.48
  -1  -1 -19  456.70   15.44
  -1   1 -19  463.92   16.60
  -1  -1 -18  248.98    7.80
  -1   1 -18  232.74   11.14
   1   1 -18  253.90   11.58
   1  -1 -18  250.76   10.64
  -1  -1 -18  258.32   11.01
   1   1 -18  242.55    8.11
  -1   1 -18  233.76    6.32
   1  -1 -18  259.08   10.57
  -1  -1 -18  250.16   10.88
  -1   1 -18  236.96   11.27
  -1  -1 -17  334.58    9.21
   1  -1 -17  343.69   12.19
  -1   1 -17  354.19   13.41
  -1  -1 -17  351.94   12.62
   1   1 -17  337.69   13.10
   1  -1 -17  332.14   11.81
  -1   1 -17  336.73    7.54
   1   1 -17  337.16    9.55
  -1  -1 -17  334.05   12.46
  -1   1 -17  348.11   13.49
  -1   1 -16    2.06    0.86
   1  -1 -16    2.93    1.23
   1   1 -16    2.80    1.37
  -1  -1 -16    1.82    0.57
  -1  -1 -16    1.94    1.10
   1   1 -16    2.74    0.89
   1  -1 -16    4.38    1.69
  -1   1 -16    1.90    1.38
  -1  -1 -16    1.59    1.04
  -1  -1 -15  542.77   12.06
  -1  -1 -15  536.00   15.25
   1   1 -15  540.38   16.51
   1  -1 -15  570.81   15.22
  -1   1 -15  569.34   16.66
   1  -1 -15  569.23   15.31
   1   1 -15  536.41   12.19
  -1  -1 -15  550.50   15.48
  -1   1 -15  564.46   16.65
  -1  -1 -14   93.57    4.43
   1  -1 -14   91.19    5.51
  -1  -1 -14   96.94    5.92
   1   1 -14   98.17    6.27
  -1   1 -14  100.30    6.43
   1  -1 -14   93.24    5.77
   1   1 -14   91.54    4.40
  -1   1 -14   93.21    6.29
  -1  -1 -14   95.87    5.83
  -1  -1 -13  462.86   10.84
  -1  -1 -13  495.05   13.64
   1   1 -13  497.00   14.58
   1  -1 -13  496.73   13.25
  -1   1 -13  506.89   14.60
   1  -1 -13  470.81   13.31
   1   1 -13  486.36   10.97
  -1  -1 -13  495.94   13.73
  -1   1 -13  490.03    8.27
  -1   1 -13  489.77   14.55
  -1  -1 -12   47.84    3.09
   1  -1 -12   45.66    3.59
  -1  -1 -12   49.39    4.01
   1   1 -12   47.88    4.20
  -1   1 -12   44.18    4.00
   1  -1 -12   52.24    4.11
   1   1 -12   50.05    3.08
  -1   1 -12   46.09    4.12
  -1  -1 -12   50.80    3.99
  -1   1 -12   45.79    1.92
  -1  -1 -11  629.62   12.86
   1   1 -11  625.23   15.77
  -1  -1 -11  644.66   15.08
   1  -1 -11  645.54   14.47
  -1   1 -11  681.85   16.27
   1  -1 -11  649.60   15.29
   1   1 -11  622.21   12.49
  -1   1 -11  645.75    9.62
  -1   1 -11  640.91   15.96
  -1  -1 -11  638.08   14.95
  -1  -1 -10   92.57    4.27
   1   1 -10  100.24    5.64
  -1  -1 -10   97.82    5.09
   1  -1 -10   92.54    4.72
  -1   1 -10   89.92    5.37
   1   1 -10   91.71    4.04
   1  -1 -10   94.24    5.20
  -1   1 -10   93.44    2.65
  -1   1 -10  100.05    5.58
  -1  -1 -10   97.93    5.11
  -1  -1  -9  131.75    5.08
  -1   1  -9  135.21    3.30
  -1   1  -9  144.91    6.52
   1  -1  -9  126.23    5.29
   1   1  -9  133.51    6.30
   1   1  -9  126.73    4.66
   1  -1  -9  125.51    5.92
  -1   1  -9  137.12    6.21
  -1  -1  -8  321.40    8.21
  -1   1  -8  306.02    9.29
  -1   1  -8  293.60    5.82
   1   1  -8  337.16    9.83
   1  -1  -8  304.79    9.23
   1   1  -8  309.41    7.56
  -1   1  -8  301.54    5.42
  -1   1  -8  305.28    9.35
  -1  -1  -7 1479.28   22.72
  -1   1  -7 1485.87   24.51
   1   1  -7 1322.65   24.45
  -1   1  -7 1516.17   18.93
   1   1  -7 1473.66   21.84
   1  -1  -7 1489.86   24.56
  -1   1  -7 1537.82   24.62
  -1  -1  -6   77.63    3.67
  -1   1  -6   75.81    4.14
   1  -1  -6   80.60    4.25
  -1   1  -6   76.61    2.47
  -1   1  -6   77.29    4.11
   1   1  -6   87.75    3.62
  -1  -1  -5 1016.50   16.97
   1  -1  -5  999.82   18.03
  -1   1  -5 1021.18   14.21
   1   1  -5 1016.09   16.27
  -1  -1  -4  764.41   13.73
   1  -1  -4  739.87   14.34
  -1   1  -4  750.87   11.51
   1   1  -4  735.49   12.93
  -1  -1  -3 1217.83   19.34
   1  -1  -3 1245.72   19.90
  -1   1  -3 1224.41   17.31
   1   1  -3 1232.80   18.74
  -1  -1  -2  215.83    6.30
  -1   1  -2  202.07    5.22
   1  -1  -2  204.57    6.14
   1   1  -2  216.58    5.93
   1   1  -2  221.08    6.27
  -1  -1  -1  777.42   13.98
  -1   1  -1  796.17   12.97
   1  -1  -1  761.92   13.56
   1   1  -1  776.52   13.90
   1   1   0  237.35    6.60
  -1  -1   0  227.78    6.47
   1  -1   0  221.70    5.92
  -1   1   0  224.90    6.00
  -1  -1   1  789.62   14.09
   1   1   1  777.52   14.06
  -1   1   1  788.41   13.80
   1  -1   1  806.44   13.07
  -1  -1   1  792.44   13.75
  -1  -1   2  207.04    6.14
   1   1   2  209.94    6.17
  -1   1   2  197.47    6.04
   1  -1   2  192.58    5.08
  -1  -1   2  214.65    5.94
   1   1   3 1240.28   19.79
  -1  -1   3 1264.11   19.69
   1  -1   3 1269.11   17.66
  -1   1   3 1284.93   20.29
  -1  -1   3 1253.82   19.10
   1   1   4  749.83   13.60
   1  -1   4  729.48   11.20
  -1   1   4  742.80   14.17
  -1  -1   4  721.25   12.76
  -1  -1   4  724.77   13.39
   1   1   5 1103.17   17.91
  -1  -1   5 1045.62   18.69
   1  -1   5 1098.09   14.92
  -1   1   5 1093.02   19.02
  -1  -1   5 1083.40   17.03
  -1  -1   5 1050.61   17.55
   1   1   6   67.70    3.53
  -1  -1   6   72.25    4.04
  -1   1   6   75.96    3.42
  -1  -1   6   76.45    3.39
   1  -1   6   70.92    2.36
  -1   1   6   71.91    4.09
  -1  -1   6   73.09    3.55
   1   1   7 1464.55   22.61
  -1  -1   7 1453.06   24.69
  -1   1   7 1506.04   22.48
  -1   1   7 1503.04   24.54
  -1  -1   7 1485.30   21.94
   1  -1   7 1485.35   18.89
   1   1   8  318.28    8.13
  -1  -1   8  311.85    7.58
  -1   1   8  282.87    8.95
  -1  -1   8  313.00    9.58
  -1   1   8  291.39    8.02
   1   1   9  144.20    5.25
  -1  -1   9  138.89    4.89
  -1   1   9  134.11    6.13
  -1  -1   9  142.95    6.50
  -1   1   9  136.74    5.48
   1   1  10   90.63    4.15
  -1  -1  10   87.20    5.34
  -1   1  10   86.75    4.55
  -1   1  10   89.00    5.07
  -1  -1  10   90.86    4.02
   1   1  11  628.98   12.78
  -1   1  11  652.13   14.47
  -1  -1  11  631.18   15.86
   1  -1  11  656.06   16.04
  -1   1  11  639.33   15.31
  -1  -1  11  627.76   12.52
  -1   1  11  645.44   14.34
   1  -1  11  663.40   16.11
   1   1  12   54.55    3.27
  -1  -1  12   59.99    4.65
   1  -1  12   51.96    4.24
  -1   1  12   47.43    3.63
  -1   1  12   46.22    3.91
  -1  -1  12   52.66    3.14
  -1   1  12   48.87    3.72
   1  -1  12   44.44    3.99
   1   1  13  508.62   11.33
  -1  -1  13  495.28   14.68
  -1   1  13  481.66   13.18
   1  -1  13  530.47   15.00
  -1  -1  13  529.41   11.48
  -1  -1  13  505.27   14.78
  -1   1  13  499.17   13.32
   1  -1  13  522.60   14.92
   1   1  14   98.80    4.56
   1  -1  14   92.82    6.09
  -1   1  14   86.05    5.32
  -1  -1  14   91.72    6.10
  -1  -1  14   86.22    4.28
  -1  -1  14   91.35    6.10
  -1   1  14   84.97    5.30
   1  -1  14   94.83    6.23
   1   1  15  544.57   12.04
  -1  -1  15  529.67   16.11
   1  -1  15  566.81   16.64
  -1   1  15  558.12   15.06
  -1  -1  15  546.17   12.34
  -1  -1  15  553.63   16.43
  -1   1  15  561.14   15.05
   1  -1  15  573.63   16.57
   1   1  16    6.91    1.54
  -1   1  16    3.01    1.15
  -1   1  16    1.15    0.82
  -1  -1  16    4.30    1.35
   1  -1  16    3.41    1.95
  -1  -1  16    4.22    1.05
  -1  -1  16    5.54    1.62
  -1   1  16    1.87    1.26
   1  -1  16    3.94    2.01
   1   1  17  356.62    9.42
  -1   1  17  340.12   10.74
  -1   1  17  342.82   12.17
   1  -1  17  341.12   13.45
  -1  -1  17  352.80   13.45
  -1  -1  17  352.43    9.85
  -1  -1  17  351.50   13.47
  -1   1  17  336.00   12.08
   1  -1  17  353.18   13.43
  -1   1  18  237.58    8.91
   1   1  18  252.28    7.80
  -1   1  18  250.38   10.60
  -1  -1  18  246.02   11.33
   1  -1  18  237.98   11.26
  -1  -1  18  242.64    8.19
  -1   1  18  239.71   10.34
  -1  -1  18  242.61   11.35
   1  -1  18  218.37   10.86
   1   1  19  493.68   11.67
  -1   1  19  499.73   13.59
  -1   1  19  500.44   15.90
  -1  -1  19  495.06   16.93
   1  -1  19  483.74   16.99
  -1  -1  19  477.81   12.33
  -1   1  19  501.15   15.78
   1  -1  19  491.30   17.01
  -1  -1  19  475.01   16.66
  -1   1  20   45.98    3.93
   1   1  20   60.82    3.88
   1  -1  20   54.46    5.74
  -1   1  20   45.41    4.77
  -1  -1  20   54.77    5.55
  -1  -1  20   52.34    3.82
   1  -1  20   64.43    6.57
  -1   1  20   50.12    4.94
  -1  -1  20   47.33    5.21
  -1   1  21  574.66   15.13
   1   1  21  577.66   13.05
  -1  -1  21  606.34   19.62
  -1   1  21  575.05   18.16
   1  -1  21  605.73   19.79
  -1  -1  21  563.42   14.17
  -1   1  21  583.25   18.13
  -1  -1  21  568.66   19.25
   1  -1  21  580.22   19.43
  -1   1  22   49.35    5.20
   1  -1  22   61.26    6.42
  -1  -1  22   54.02    5.86
  -1   1  22   55.66    4.48
   1   1  22   66.14    4.11
  -1   1  22   51.49    5.30
   1  -1  22   71.20    6.98
  -1  -1  22   52.04    5.60
  -1  -1  23  442.69   17.34
  -1   1  23  447.47   16.54
   1  -1  23  480.44   18.24
  -1   1  23  437.55   13.13
   1   1  23  422.50   10.97
   1  -1  23  436.72   17.37
  -1  -1  23  433.92   17.30
  -1   1  23  460.44   16.61
   1  -1  24   29.26    4.93
  -1  -1  24   39.17    5.28
  -1   1  24   32.17    4.52
   1   1  24   38.90    3.20
  -1   1  24   31.86    3.44
   1  -1  24   30.59    4.88
  -1   1  24   34.23    4.63
  -1  -1  24   32.24    4.77
  -1   1  25  105.21    8.15
  -1   1  25  107.27    6.37
   1   1  25  116.65    5.41
  -1  -1  25  120.64    9.26
   1  -1  25  123.11    9.47
  -1   1  25  111.32    8.31
  -1   1  26  125.86    9.13
   1   1  26  142.91    6.01
  -1   1  26  120.45    6.83
  -1  -1  26  135.03    9.96
   1  -1  26  124.73    9.65
  -1   1  26  128.15    9.14
  -1   1  27  117.90    9.00
  -1   1  27  125.07    7.02
   1   1  27  110.57    5.31
  -1   1  27  117.85    8.95
  -1  -1  27  107.57    9.10
   1  -1  27  116.74    9.57
   1   1  28   16.24    2.09
  -1   1  28   15.16    2.71
  -1  -1  28   18.58    4.32
   1  -1  28   15.35    4.13
  -1   1  28   10.75    3.26
  -1  -1  29  379.21   10.05
   1   1  29  382.19   10.39
  -1   1  29  357.26   12.58
  -1   1  29  368.46   16.86
  -1  -1  29  371.84    9.89
   1  -1  29  368.01   17.82
  -1  -1  29  368.35   17.84
  -1   1  30   65.43    5.27
  -1  -1  30   65.00    3.88
   1   1  30   64.54    4.08
  -1   1  30   61.87    6.98
   1  -1  30   70.02    8.07
  -1  -1  30   70.61    4.00
  -1  -1  30   61.00    7.39
  -1   1  31  242.31   10.11
   1   1  31  225.51    7.66
  -1  -1  31  227.28    7.32
  -1   1  31  231.40   13.75
  -1  -1  31  224.26    7.24
  -1  -1  31  226.34   14.35
  -1  -1  32    7.24    1.41
   1   1  32   12.33    1.83
  -1  -1  32   11.42    1.62
  -1   1  32    7.50    2.11
  -1  -1  32   10.57    3.69
  -1   1  32    7.43    3.08
   1   1  33  279.25    8.18
  -1  -1  33  258.57    7.57
  -1  -1  33  282.31    7.81
  -1   1  33  271.02   10.89
  -1   1  33  266.34   15.44
  -1  -1  33  269.49   16.22
  -1   1  34   30.12    3.64
   1   1  34   33.69    2.59
  -1  -1  34   24.13    2.11
  -1  -1  34   32.24    6.05
  -1   1  34   29.36    5.44
  -1   1  35  162.93    8.30
  -1   1  35  155.80   12.21
  -1  -1  35  155.88   12.79
  -1   1  36   26.61    3.29
  -1  -1  36   25.94    5.62
  -1   1  36   30.96    5.68
  -1  -1  37  119.67   11.48
  -1   1  37  114.15   10.79
  -1   1  38   23.91    5.11
  -1  -1  38   21.82    5.02
  -1  -1  39   74.87    9.42
  -1   1  39   81.86    9.60
  -1  -1  40   23.49    5.20
  -1   1  40   28.91    5.69
  -1  -1  41   25.59    5.76
  -1   1  41   25.87    5.43
  -1   1  42   15.03    4.39
  -1  -1  42   19.98    5.33
  -1   1  43   60.22    8.74
  -1  -1  43   52.08    8.46
  -1   1  44    8.77    3.49
  -1   1  45   48.19    8.01
  -1  -2 -45   37.82    7.21
  -1  -2 -44   98.11   11.30
  -1  -2 -43   38.60    7.19
  -2   1 -42   23.00    5.70
   1   2 -42   23.38    5.99
  -1  -2 -42   19.38    4.74
  -1  -2 -41   60.73    8.35
   1   2 -41   74.62    9.96
  -2   1 -41   67.46    9.81
  -1  -2 -40   69.36    8.76
   1   2 -40   70.04    9.68
  -2   1 -40   75.35    9.91
   1   2 -39   87.50   10.66
  -1  -2 -39   86.71    9.75
   2  -1 -39   91.73   10.16
  -2   1 -39   83.03   10.32
   1   2 -38    3.80    3.03
   2  -1 -38    8.61    3.46
  -2   1 -38    7.03    3.70
  -1  -2 -38    7.64    3.10
   2  -1 -37   96.79   10.13
  -1  -2 -37  117.06   10.83
   1   2 -37  118.67   11.89
  -2   1 -37   94.52   10.60
   1   2 -36   80.85    9.76
  -2   1 -36  100.80   10.60
   2  -1 -36   97.24    9.98
  -1  -2 -36   84.62    9.09
   2  -1 -35  143.34   11.86
  -2   1 -35  118.87   11.53
  -1  -2 -35  129.44   10.95
   1   2 -35  126.10   11.81
  -2   1 -34   21.72    4.84
   1   2 -34   34.68    6.28
  -1  -2 -34   28.81    5.37
   2  -1 -34   24.51    5.03
  -2   1 -34   24.93    2.80
  -2   1 -33  195.28   14.12
   2  -1 -33  191.52   13.35
  -1  -2 -33  192.93   12.96
   1   2 -33  198.55   14.35
  -2   1 -33  187.17    7.54
   1   2 -32  288.59   17.13
   2  -1 -32  286.27   16.08
  -1  -2 -32  271.94   15.22
  -2   1 -32  297.00   17.25
  -2   1 -32  298.27    9.73
   1   2 -32  279.24    9.63
  -2   1 -32  316.08    9.86
   2  -1 -31  148.45   11.27
   1   2 -31  156.61   12.32
  -1  -2 -31  156.62   11.26
  -2   1 -31  130.50   11.11
  -2   1 -31  139.00    6.46
  -1  -2 -31  143.61   10.10
   1   2 -31  146.49    6.72
  -2   1 -31  138.92    6.35
   2  -1 -30   55.49    6.85
  -2   1 -30   69.07    8.02
   1   2 -30   68.91    8.04
  -1  -2 -30   65.02    7.09
  -1  -2 -30   63.72    6.61
   1   2 -30   62.02    4.31
  -2   1 -30   62.95    4.19
   2  -1 -30   53.04    6.06
  -2   1 -30   62.05    4.12
   2  -1 -29   77.69    7.88
  -1  -2 -29   97.83    8.55
   1   2 -29   83.92    8.57
  -2   1 -29   82.50    8.48
   1   2 -29   85.53    4.98
  -2   1 -29   80.46    4.74
  -1  -2 -29   81.56    7.27
   2  -1 -29   78.68    7.22
  -2   1 -29   83.92    4.76
   2  -1 -28   73.27    7.43
  -1  -2 -28   69.48    7.02
  -2   1 -28   78.95    8.13
   1   2 -28   60.55    7.30
  -2   1 -28   74.09    4.45
   1   2 -28   60.09    4.14
   2  -1 -28   72.30    6.76
  -2   1 -28   75.50    4.42
  -1  -2 -27   82.26    7.48
   2  -1 -27   76.62    7.46
   1   2 -27   75.07    7.88
  -2   1 -27   80.71    8.05
   1   2 -27   69.59    4.39
  -2   1 -27   74.84    4.41
   2  -1 -27   75.99    6.81
  -2   1 -27   70.12    4.23
  -1  -2 -27   86.97    7.69
   2  -1 -26   26.87    4.44
  -2   1 -26   28.45    4.74
  -1  -2 -26   23.79    4.03
   1   2 -26   29.71    4.73
   2  -1 -26   24.49    3.97
   1   2 -26   26.57    2.73
  -2   1 -26   27.87    2.67
  -1  -2 -26   23.95    3.97
  -2   1 -26   27.06    2.59
   1   2 -25  241.47   13.54
  -1  -2 -25  246.34   12.39
  -2   1 -25  234.84   13.35
   2  -1 -25  224.14   12.29
   2  -1 -25  224.56   11.59
   1   2 -25  236.22    8.10
  -1  -2 -25  236.41   12.30
  -2   1 -25  230.46    7.72
  -1  -2 -24   95.96    7.48
   2  -1 -24   98.63    7.95
  -2   1 -24  105.12    8.70
   1   2 -24   91.72    8.18
   1   2 -24   87.66    4.73
   2  -1 -24   97.21    7.46
  -1  -2 -24   95.40    7.58
  -2   1 -24  106.00    5.00
  -2   1 -23  241.94   13.15
   2  -1 -23  260.45   12.64
  -1  -2 -23  241.70   11.74
  -1  -2 -23  234.32    9.78
   1   2 -23  251.19   13.32
   2  -1 -23  250.25   11.91
   1   2 -23  239.66    7.95
  -1  -2 -23  255.31   12.18
  -2   1 -23  246.42   13.32
  -2   1 -23  248.87    7.88
   2  -1 -22   21.48    3.55
  -1  -2 -22   17.64    3.19
  -1  -2 -22   15.34    2.39
   1   2 -22   26.57    4.40
  -2   1 -22   18.59    3.68
   1   2 -22   22.90    2.35
   2  -1 -22   23.09    3.67
  -2   1 -22   15.32    1.88
  -2   1 -22   14.57    3.18
  -1  -2 -22   16.37    3.01
  -1  -2 -21  493.25   14.30
  -2   1 -21  500.61   18.30
   1   2 -21  470.80   18.12
  -1  -2 -21  523.47   16.95
   1   2 -21  500.40   11.84
   2  -1 -21  505.30   16.84
  -2   1 -21  488.42   11.33
  -1  -2 -21  495.73   16.58
  -2   1 -21  479.03   18.16
  -1  -2 -20  292.44   10.67
  -2   1 -20  321.09   14.24
   1   2 -20  300.82   13.72
  -1  -2 -20  298.81   12.25
   1   2 -20  280.38    8.41
   2  -1 -20  310.45   12.77
  -2   1 -20  331.52   14.46
  -1  -2 -20  298.80   12.33
  -2   1 -20  326.45    8.66
  -1  -2 -19  272.40   10.17
  -2   1 -19  270.73   12.81
  -1  -2 -19  284.73   11.62
   1   2 -19  288.41   13.15
   2  -1 -19  272.28   11.73
  -2   1 -19  276.82    7.87
  -1  -2 -19  293.58   11.82
  -2   1 -19  281.37   13.16
   1   2 -19  271.01    8.05
  -1  -2 -18   83.69    5.39
   1   2 -18   97.24    7.43
  -2   1 -18   80.64    6.76
  -1  -2 -18   82.78    5.96
   2  -1 -18   89.77    6.57
  -2   1 -18   85.98    7.00
  -2   1 -18   78.06    3.92
  -1  -2 -18   85.87    6.08
   1   2 -18   93.99    4.41
  -2   1 -17  345.71    6.38
  -1  -2 -17  390.27   12.03
  -1  -2 -17  398.29   13.05
  -2   1 -17  358.56   14.19
   1   2 -17  380.38   14.47
   2  -1 -17  379.76   13.60
  -1  -2 -17  391.85   13.04
  -2   1 -17  361.12    9.01
  -2   1 -17  383.58   14.75
   1   2 -17  383.68    9.50
  -2   1 -16 1381.56   18.65
  -1  -2 -16 1334.38   25.68
  -1  -2 -16 1380.15   27.04
  -2   1 -16 1398.52   30.36
   1   2 -16 1329.72   29.49
   2  -1 -16 1404.76   28.73
   1   2 -16 1318.61   21.78
  -2   1 -16 1433.42   30.50
  -2   1 -16 1423.30   21.86
  -1  -2 -16 1358.37   26.90
  -1  -2 -15  427.26   12.50
   1   2 -15  441.47   14.94
  -2   1 -15  414.03   14.60
  -1  -2 -15  430.28   12.89
   2  -1 -15  413.74   13.89
  -2   1 -15  414.87   14.65
  -1  -2 -15  434.82   13.04
  -2   1 -15  406.90    9.52
  -2   1 -15  388.97    7.75
   1   2 -15  409.80    9.75
  -1  -2 -14  285.18   10.01
  -1  -2 -14  300.29   10.29
   1   2 -14  286.39   11.76
  -2   1 -14  306.57   12.24
   2  -1 -14  302.00   11.46
  -2   1 -14  307.61   12.18
   1   2 -14  297.90    7.99
  -1  -2 -14  289.55   10.18
  -2   1 -14  312.14    7.93
  -1  -2 -13  149.12    6.95
   1   2 -13  141.60    7.81
  -1  -2 -13  153.10    6.94
  -2   1 -13  142.89    7.96
  -2   1 -13  148.64    5.23
   2  -1 -13  136.43    7.43
   1   2 -13  140.20    5.21
  -2   1 -13  151.97    8.20
  -1  -2 -13  156.72    7.03
  -1  -2 -12  729.87   16.99
  -1  -2 -12  734.46   16.40
  -2   1 -12  790.83   19.66
   1   2 -12  722.43   18.73
  -2   1 -12  797.14   14.09
   2  -1 -12  769.03   18.67
  -1  -2 -12  714.01   16.31
   1   2 -12  711.11   13.86
  -2   1 -12  799.82   19.69
  -1  -2 -11  857.91   18.44
   1   2 -11  826.93   19.76
  -1  -2 -11  857.06   17.41
   2  -1 -11  849.12   19.57
  -2   1 -11  825.37   14.90
  -1  -2 -11  853.49   17.39
   1   2 -11  845.50   15.22
  -1  -2 -10    0.59    0.74
   1   2 -10    0.22    0.76
   2  -1 -10    2.16    0.85
  -2   1 -10   -0.06    0.47
   1   2 -10    0.47    0.47
  -1  -2  -9  230.61    8.53
   1   2  -9  223.26    8.93
   2  -1  -9  231.32    9.00
  -2   1  -9  235.99    6.79
  -1  -2  -8   47.96    3.78
   1   2  -8   44.52    3.83
   2  -1  -8   58.67    4.36
  -2   1  -8   62.26    3.33
   1   2  -8   42.99    3.22
  -1  -2  -7 1431.55   25.57
  -2   1  -7 1429.82   22.36
   2  -1  -7 1482.50   26.35
   1   2  -7 1459.72   24.30
  -1  -2  -6  142.50    6.47
   1   2  -6  143.09    6.04
  -2   1  -6  150.78    5.43
   2  -1  -6  157.01    6.92
   1   2  -5  177.09    6.87
  -1  -2  -5  191.68    7.52
   2  -1  -5  184.64    7.42
  -2   1  -5  200.47    6.43
  -1  -2  -4   32.13    2.99
   1   2  -4   37.88    3.05
   2  -1  -4   41.45    3.36
  -2   1  -4   44.72    2.99
  -1  -2  -3 2066.33   31.97
   1   2  -3 2101.74   31.47
  -2   1  -3 1930.33   29.32
   2  -1  -3 1948.52   31.21
   1   2  -2 2894.86   41.71
  -1  -2  -2 2888.33   42.11
   2  -1  -2 3066.47   42.07
  -2   1  -2 2916.13   40.45
  -1  -2  -1 1403.63   23.84
   1   2  -1 1353.54   23.35
  -2   1  -1 1308.63   22.27
   2  -1  -1 1316.43   22.78
  -1  -2   0 9538.84  118.21
   1   2   0 9751.72  118.35
  -2   1   0 9999.00  117.49
   2  -1   0 9977.77  117.26
  -1  -2   1 1423.54   24.07
   1   2   1 1459.13   24.51
   2  -1   1 1364.59   22.84
  -2   1   1 1355.94   23.47
  -1  -2   2 2859.31   41.15
   1   2   2 2842.14   41.31
  -2   1   2 2922.05   41.44
   2  -1   2 2891.23   39.74
   1   2   3 2175.77   32.54
  -1  -2   3 2180.35   32.07
  -2   1   3 1948.77   31.94
   2  -1   3 2001.25   30.06
   1   2   4   23.08    2.55
  -1  -2   4   28.30    2.61
  -1  -2   4   27.70    2.49
   2  -1   4   29.89    2.48
  -2   1   4   28.80    2.88
  -1  -2   4   26.12    2.27
   1   2   5  199.80    7.57
  -1  -2   5  182.52    6.89
  -1  -2   5  186.95    6.93
  -2   1   5  186.97    7.58
   2  -1   5  194.82    6.31
  -1  -2   5  181.91    6.16
   1   2   6  132.34    6.15
  -1  -2   6  127.43    5.72
  -1  -2   6  132.17    6.02
  -2   1   6  158.12    6.96
   2  -1   6  141.37    5.21
  -1  -2   6  123.38    4.93
   1   2   7 1484.91   25.68
  -1  -2   7 1492.57   24.75
  -1  -2   7 1491.15   25.91
  -2   1   7 1487.15   26.55
   2  -1   7 1443.46   22.56
  -1  -2   7 1474.38   22.87
   1   2   8   49.79    3.86
  -1  -2   8   42.97    3.26
  -1  -2   8   46.00    3.80
  -2   1   8   62.92    4.59
   2  -1   8   67.09    3.41
  -1  -2   8   42.86    2.81
  -1  -2   9  217.05    7.51
   1   2   9  215.02    8.14
  -1  -2   9  203.60    8.40
  -2   1   9  197.94    8.45
  -1  -2   9  209.94    6.47
   2  -1   9  209.95    6.32
  -1  -2  10    1.03    0.67
   1   2  10    0.78    0.98
  -2   1  10    0.15    0.66
  -1  -2  10    2.25    1.11
  -2   1  10    0.89    0.76
   2  -1  10    0.50    0.52
  -1  -2  10    1.74    0.78
   1   2  11  889.10   18.63
  -1  -2  11  861.33   17.11
  -2   1  11  848.28   18.73
  -1  -2  11  892.02   20.26
  -2   1  11  868.09   20.00
  -1  -2  11  864.73   15.57
  -1  -2  12  710.70   15.10
   1   2  12  697.39   16.38
  -2   1  12  751.78   17.47
  -1  -2  12  705.22   18.23
  -2   1  12  750.95   18.38
  -1  -2  12  698.02   13.55
  -1  -2  12  712.11   18.33
   1   2  13  167.02    7.39
  -1  -2  13  166.81    6.56
  -1  -2  13  163.06    8.34
  -2   1  13  152.36    7.51
  -2   1  13  152.20    7.92
  -1  -2  13  158.07    5.56
  -1  -2  13  158.56    8.28
  -1  -2  14  301.88    9.08
   1   2  14  294.24   10.06
  -2   1  14  306.38   11.14
  -1  -2  14  305.71   12.01
  -1  -2  14  304.67    8.09
  -2   1  14  291.59   11.28
  -1  -2  14  311.73   12.01
   1   2  15  441.03   12.59
  -1  -2  15  413.83   10.89
  -2   1  15  408.51   13.47
  -1  -2  15  431.91   14.80
  -2   1  15  398.81   13.71
  -1  -2  15  409.45    9.80
  -1  -2  15  434.76   14.77
  -1  -2  16 1354.21   23.32
   1   2  16 1385.30   25.81
  -2   1  16 1415.06   28.36
  -1  -2  16 1368.21   29.93
  -1  -2  16 1371.56   22.03
  -2   1  16 1390.76   28.69
  -1  -2  16 1375.53   29.94
   1   2  17  416.28   12.42
  -1  -2  17  397.64   10.63
  -1  -2  17  420.57   15.24
  -2   1  17  381.85   13.64
  -2   1  17  381.53   13.71
  -1  -2  17  398.12    9.81
  -1  -2  17  415.07   15.17
  -1  -2  18   95.48    4.88
   1   2  18   89.88    5.59
  -2   1  18   85.07    6.37
  -1  -2  18   99.85    7.36
  -1  -2  18   91.56    4.41
  -2   1  18   87.40    6.48
  -1  -2  18   86.33    6.92
  -2   1  18   86.82    6.36
  -1  -2  19  271.86    8.50
   1   2  19  281.65   10.17
  -1  -2  19  259.32   12.40
  -2   1  19  268.02   11.77
  -2   1  19  267.70   11.64
  -1  -2  19  264.70    8.01
  -2   1  19  256.05   11.45
  -1  -2  19  286.10   13.07
  -1  -2  20  294.86    9.00
   1   2  20  316.68   10.94
  -2   1  20  309.48   12.96
  -1  -2  20  300.38   13.81
  -1  -2  20  292.29    8.61
  -2   1  20  312.86   12.84
  -2   1  20  316.62   13.01
  -1  -2  20  298.73   13.59
  -1  -2  21  494.93   12.08
   1   2  21  510.04   14.43
  -2   1  21  513.69   17.55
  -1  -2  21  521.75   18.77
  -1  -2  21  507.91   12.01
  -2   1  21  486.48   16.64
  -1  -2  21  500.76   18.48
  -2   1  21  491.99   17.10
   1   2  22   22.56    3.12
  -1  -2  22   22.58    2.47
  -1  -2  22   20.71    3.73
  -2   1  22   15.45    2.98
  -1  -2  22   20.25    2.15
  -2   1  22   17.30    3.13
  -1  -2  22   20.61    3.68
   1   2  23  240.76    9.70
  -1  -2  23  238.79    7.87
  -1  -2  23  245.12   13.19
  -2   1  23  257.39   12.60
  -1  -2  23  241.35    8.01
  -1  -2  23  241.94   13.03
  -2   1  23  235.61   12.02
  -2   1  24  102.60    8.02
  -1  -2  24   95.86    4.84
   1   2  24   99.25    6.15
  -2   1  24  101.32    7.98
  -1  -2  24   91.29    8.19
  -2   1  25  213.58   11.96
   1   2  25  235.41    9.70
  -1  -2  25  228.48    7.58
  -2   1  25  202.21   11.75
  -1  -2  25  225.35   13.16
  -2   1  26   24.85    4.17
  -2   1  26   27.45    3.66
  -1  -2  26   29.93    2.64
   1   2  26   28.12    3.41
  -2   1  26   27.97    4.37
  -1  -2  26   34.54    5.30
  -2   1  27   79.15    6.21
   1   2  27   85.16    5.80
  -1  -2  27   76.70    4.19
  -1  -2  27   81.04    8.02
  -2   1  27   75.38    7.34
  -1  -2  28   71.45    3.94
  -2   1  28   78.46    6.24
   1   2  28   82.61    5.70
  -2   1  28   81.68    7.85
  -1  -2  28   70.22    7.67
   1   2  29   79.93    5.66
  -1  -2  29   82.90    4.13
  -2   1  29   82.95    6.53
  -2   1  29   76.13    7.63
  -1  -2  29   83.71    8.60
  -2   1  30   58.36    5.46
  -1  -2  30   62.06    3.47
   1   2  30   73.74    5.46
  -2   1  30   53.99    6.55
  -1  -2  30   69.13    7.91
   1   2  31  155.01    7.99
  -1  -2  31  158.66    5.40
  -2   1  31  149.00    8.81
  -1  -2  31  144.99   11.87
  -2   1  31  144.95   11.03
  -1  -2  32  276.05    6.97
  -2   1  32  288.63   12.63
   1   2  32  284.14   11.03
  -1  -2  32  266.20    6.91
  -2   1  32  290.30   16.05
  -1  -2  32  291.87   16.97
  -2   1  33  189.56   10.15
   1   2  33  216.38    9.48
  -1  -2  33  172.78    4.82
  -1  -2  33  204.21   14.52
  -2   1  33  191.85   13.18
  -2   1  34   24.59    3.69
   1   2  34   25.34    3.22
  -2   1  34   29.38    5.41
  -1  -2  34   28.72    5.60
  -2   1  35  126.97    8.32
   1   2  35  124.80    7.02
  -1  -2  35  123.66   11.66
  -2   1  35  118.60   10.86
  -2   1  36   85.70    6.83
   1   2  36   80.76    5.70
  -1  -2  36   84.38    9.89
  -2   1  36   85.47    9.51
  -2   1  37   95.48    7.23
  -2   1  37   95.50   10.10
  -1  -2  37  107.09   11.29
  -2   1  38    2.25    2.28
  -1  -2  38    9.07    3.65
  -1  -2  39   74.96    9.73
  -2   1  39   74.52    9.23
  -2   1  40   69.25    9.00
  -1  -2  40   76.22    9.92
  -2   1  41   63.46    8.84
  -1  -2  41   64.22    9.45
  -2   1  42   21.51    5.43
  -1  -2  42   28.01    6.63
  -2   1  43   30.14    6.38
  -2   1  44  109.28   12.03
   0  -2 -45   41.11    7.71
   0  -2 -44    5.76    2.95
   0  -2 -43   15.35    4.56
  -2   0 -43   20.46    5.44
  -2   0 -42  167.80   15.22
   0   2 -42  181.69   15.93
   0  -2 -42  171.51   14.34
   0   2 -41   21.06    5.93
   0  -2 -41   32.78    6.32
  -2   0 -41   29.04    6.47
   2   0 -41   32.20    6.47
   2   0 -40    5.29    3.35
   0  -2 -40    2.82    2.68
   0   2 -40    3.17    2.77
  -2   0 -40    0.81    2.13
   0  -2 -39   42.87    6.92
   2   0 -39   38.44    6.78
   0   2 -39   45.64    7.65
  -2   0 -39   37.13    6.78
  -2   0 -38  101.27   11.01
   0  -2 -38   89.62    9.65
   2   0 -38   95.12   10.48
   0   2 -38  104.76   11.35
   2   0 -37    4.91    2.74
   0   2 -37    4.33    3.13
  -2   0 -37    3.24    2.49
   0  -2 -37    4.11    2.73
   2   0 -36    5.16    2.36
  -2   0 -36    7.42    3.15
   0   2 -36    7.08    3.28
   0  -2 -36    9.03    3.28
  -2   0 -35   46.38    6.92
   0  -2 -35   53.00    7.03
   0   2 -35   47.22    7.34
   2   0 -35   50.20    7.38
   0  -2 -34  281.72   15.97
   2   0 -34  266.73   16.46
   0   2 -34  288.19   17.53
  -2   0 -34  281.72   17.03
   2   0 -34  267.81   13.29
   2   0 -33    4.99    2.97
  -2   0 -33    2.13    2.06
   0  -2 -33    6.14    2.64
   0   2 -33    3.12    2.48
  -2   0 -33    1.57    1.43
   2   0 -33    2.87    1.87
   0   2 -32   19.38    4.53
  -2   0 -32   19.80    4.22
   2   0 -32   23.90    4.75
   0  -2 -32   23.19    4.45
   2   0 -32   20.40    3.80
  -2   0 -32   18.42    3.00
   0   2 -32   21.34    1.80
   0  -2 -31   64.88    7.13
   2   0 -31   57.98    7.50
  -2   0 -31   57.46    7.28
   0   2 -31   57.63    7.48
  -2   0 -31   52.36    4.84
   0   2 -31   46.17    2.72
   2   0 -31   60.81    6.27
   2   0 -30  515.16   21.60
  -2   0 -30  518.01   21.82
   0  -2 -30  530.69   20.40
   0   2 -30  528.50   22.39
   0   2 -30  511.42   10.39
   0  -2 -30  527.36   19.60
   2   0 -30  500.22   17.80
  -2   0 -30  497.68   15.55
   0  -2 -29   34.73    5.10
  -2   0 -29   32.53    5.14
   0   2 -29   39.31    6.00
   2   0 -29   35.21    5.61
   0   2 -29   26.78    2.03
   0  -2 -29   37.09    5.20
   2   0 -29   37.54    4.90
   0  -2 -28   36.78    5.01
  -2   0 -28   37.34    5.50
   0   2 -28   36.28    5.32
   2   0 -28   30.00    4.95
   2   0 -28   36.96    4.55
   0  -2 -28   41.69    5.19
   0   2 -28   35.78    2.28
   0  -2 -27   14.75    3.34
  -2   0 -27   17.52    3.89
   0   2 -27   18.81    4.31
   2   0 -27   14.13    3.61
   0  -2 -27    8.49    2.44
   0   2 -27   12.29    1.34
   2   0 -27   11.82    2.79
   2   0 -26  621.25   22.22
  -2   0 -26  646.09   22.87
   0   2 -26  625.59   22.73
   0  -2 -26  615.67   20.37
   0  -2 -26  625.59   20.41
   0   2 -26  619.11   11.16
   2   0 -26  594.49   18.69
   2   0 -25  167.62   10.94
  -2   0 -25  164.72   10.96
   0  -2 -25  171.04   10.03
   0   2 -25  180.98   11.62
   0   2 -25  164.74    4.79
   0  -2 -25  167.51   10.05
   2   0 -25  153.26    8.91
  -2   0 -24    4.56    1.73
   2   0 -24    4.53    1.94
   0  -2 -24    7.69    2.22
   0   2 -24    6.53    2.65
   0  -2 -24    5.57    2.00
   2   0 -24    6.64    2.13
  -2   0 -24    4.71    2.03
   0   2 -24    5.80    0.86
   2   0 -23  142.25    9.61
   0  -2 -23  139.36    8.58
  -2   0 -23  122.95    9.11
   0   2 -23  131.42    9.51
   2   0 -23  147.10    8.39
   0   2 -23  129.30    3.95
   0  -2 -23  136.86    8.79
  -2   0 -23  139.56    9.72
   0  -2 -23  132.61    8.50
  -2   0 -22  197.39    5.15
   2   0 -22  206.91   11.46
   0   2 -22  205.49   11.50
   0  -2 -22  210.15   10.31
  -2   0 -22  204.40   11.44
   0  -2 -22  209.95   10.73
   2   0 -22  206.23    9.89
   0   2 -22  209.02    5.01
   0  -2 -22  195.83   10.12
  -2   0 -22  198.30   11.42
  -2   0 -21   64.16    2.83
   0  -2 -21   66.42    5.59
  -2   0 -21   62.52    6.19
   0   2 -21   56.39    5.96
   2   0 -21   63.42    6.18
   2   0 -21   62.22    5.33
   0  -2 -21   61.87    5.74
   0   2 -21   56.81    2.34
   0  -2 -21   71.21    5.83
  -2   0 -21   72.13    6.61
  -2   0 -20   20.05    1.60
   2   0 -20   18.70    3.28
   0  -2 -20   15.15    2.73
   0   2 -20   20.19    3.58
  -2   0 -20   18.72    3.36
   2   0 -20   22.42    3.21
   0  -2 -20   16.46    2.96
   0  -2 -20   13.60    2.49
  -2   0 -20   21.06    3.53
   0   2 -20   18.05    1.21
  -2   0 -19  179.54    5.33
  -2   0 -19  184.48   10.23
   0   2 -19  198.87   10.73
   0  -2 -19  216.31    9.62
   0  -2 -19  202.95   10.08
   2   0 -19  193.81    9.10
   0   2 -19  189.17    4.21
   0  -2 -19  209.33    9.50
  -2   0 -19  191.64   10.48
  -2   0 -18 1201.86   18.64
   0  -2 -18 1246.30   25.47
   0   2 -18 1213.65   28.52
  -2   0 -18 1221.28   28.50
   2   0 -18 1223.12   25.62
  -2   0 -18 1239.12   28.71
   0  -2 -18 1241.01   25.62
  -2   0 -17  227.91    6.27
   0   2 -17  222.51   10.85
   0  -2 -17  222.25    9.23
  -2   0 -17  244.54   11.32
   2   0 -17  233.08    9.73
  -2   0 -17  253.41   11.44
   0  -2 -17  217.33    9.13
  -2   0 -16   29.35    2.12
   0   2 -16   31.64    4.03
  -2   0 -16   25.29    3.58
   0  -2 -16   23.85    2.93
   2   0 -16   30.05    3.42
   0  -2 -16   25.45    2.92
  -2   0 -16   30.24    3.83
  -2   0 -15  132.78    4.78
   0   2 -15  143.84    8.26
  -2   0 -15  129.63    7.71
   0  -2 -15  131.64    6.55
   0  -2 -15  123.49    6.60
   2   0 -15  120.94    6.68
  -2   0 -15  142.51    8.20
   0  -2 -15  127.94    6.43
   0  -2 -14 2242.69   36.42
  -2   0 -14 2195.49   30.97
   0  -2 -14 2287.84   35.18
   0   2 -14 2270.61   39.27
  -2   0 -14 2330.41   39.87
   2   0 -14 2200.86   36.76
  -2   0 -14 2288.82   39.86
   0  -2 -14 2283.21   35.31
  -2   0 -13 1103.12   17.99
   0  -2 -13 1083.43   21.93
   0   2 -13 1125.46   24.08
   0  -2 -13 1110.44   20.63
   2   0 -13 1094.63   22.35
   0  -2 -13 1102.01   20.60
   0   2 -13 1111.09   17.56
  -2   0 -12   11.59    1.42
   0   2 -12    8.31    1.13
   0   2 -12   18.15    3.12
   0  -2 -12    6.71    1.67
   0  -2 -12    6.04    1.31
   2   0 -12   12.59    1.98
  -2   0 -12   14.23    1.87
   0  -2 -12    5.60    1.21
   0  -2 -11  300.34   10.05
  -2   0 -11  330.30    8.18
   0   2 -11  316.08    7.85
   0  -2 -11  319.49    8.75
   0   2 -11  318.55   10.91
   2   0 -11  337.31   10.66
  -2   0 -11  330.07    9.31
   0  -2 -11  312.76    8.74
   0  -2 -10 1031.21   20.60
   0   2 -10 1058.63   17.35
   0   2 -10 1065.16   21.38
   0  -2 -10 1040.95   17.72
   2   0 -10 1020.64   20.61
   0  -2 -10 1034.33   17.76
  -2   0 -10 1030.58   17.41
  -2   0 -10 1058.58   19.06
   0  -2  -9  215.12    8.12
   0   2  -9  213.62    6.44
   0  -2  -9  217.77    6.25
   0   2  -9  218.87    8.27
   2   0  -9  210.91    8.04
   0  -2  -9  217.19    6.28
  -2   0  -9  218.96    6.56
  -2   0  -9  229.36    7.45
   0   2  -8   14.02    1.65
   0  -2  -8   18.06    1.59
   0  -2  -8   20.08    2.36
   0   2  -8   16.74    2.19
   2   0  -8   13.36    2.06
  -2   0  -8   17.44    2.04
   0  -2  -8   19.20    1.65
   0  -2  -7  334.01   10.10
   0   2  -7  327.27    8.45
   0  -2  -7  344.17    7.12
   0   2  -7  328.11    9.50
   2   0  -7  338.57   10.09
  -2   0  -7  339.18    9.20
   0  -2  -7  339.35    7.08
   0   2  -6  852.90   15.55
   0  -2  -6  866.59   17.46
   0   2  -6  861.84   16.39
   0  -2  -6  836.60   12.53
   2   0  -6  858.83   17.41
   0  -2  -6  844.87   12.56
  -2   0  -6  860.78   16.25
   0   2  -5  325.14    8.55
   0  -2  -5  313.77    9.54
   0   2  -5  328.14    8.60
   2   0  -5  320.72    9.58
  -2   0  -5  317.33    8.80
   0   2  -4  263.28    7.76
   0  -2  -4  288.55    8.87
   2   0  -4  282.27    8.67
  -2   0  -4  279.27    8.21
   0   2  -4  258.80    7.19
   0  -2  -3  491.12   12.08
   0   2  -3  503.39   11.44
  -2   0  -3  540.41   11.92
   2   0  -3  510.44   12.18
   0   2  -3  493.16   10.01
   0  -2  -2 1525.21   25.36
   0   2  -2 1595.96   24.97
   2   0  -2 1575.36   25.32
  -2   0  -2 1583.54   24.96
   0   2  -2 1565.37   21.83
   0  -2  -1  456.52   11.15
   0   2  -1  432.73   10.71
   0   2  -1  427.88    7.94
   2   0  -1  421.75   10.71
  -2   0  -1  444.06   10.71
   0  -2   0   58.36    3.64
   0   2   0   57.53    3.66
   0  -2   0   55.60    2.09
   2   0   0   45.03    3.12
  -2   0   0   42.70    3.17
   0  -2   0   58.96    2.16
   0   2   1  439.32   10.90
   0  -2   1  416.47   10.43
   0  -2   1  410.58    7.74
  -2   0   1  419.03   10.62
   2   0   1  419.16   10.38
   0  -2   1  420.39    7.81
   0  -2   2 1520.77   23.89
   0   2   2 1467.29   24.47
   0  -2   2 1454.79   20.82
  -2   0   2 1506.37   24.41
   0  -2   2 1466.19   20.83
   2   0   2 1449.70   23.71
   0  -2   3  449.39   10.72
   0   2   3  455.97   11.72
   0  -2   3  453.31    9.48
  -2   0   3  474.44   11.56
   0  -2   3  471.02    9.58
   2   0   3  481.76   11.19
   0  -2   4  257.19    7.68
   0   2   4  275.71    8.80
   0  -2   4  257.34    7.13
  -2   0   4  294.35    8.80
   2   0   4  283.88    8.17
   0  -2   4  273.32    7.35
   0  -2   5  362.58    9.15
   0   2   5  354.44   10.23
   0  -2   5  359.23    9.11
  -2   0   5  370.81   10.20
   2   0   5  346.70    9.31
   0  -2   5  353.19    9.06
   0   2   6  843.15   17.29
   0  -2   6  829.74   15.31
   0  -2   6  799.38   15.84
  -2   0   6  829.61   17.11
   0  -2   6  854.24   16.17
   2   0   6  828.35   15.80
   0  -2   7  324.35    8.44
   0   2   7  333.82   10.15
   0  -2   7  318.72    9.43
  -2   0   7  355.14   10.32
   0  -2   7  338.62    9.60
   0  -2   8   15.71    1.75
   0   2   8   24.89    2.70
   0  -2   8   15.19    2.06
  -2   0   8   13.30    2.03
   0  -2   8   15.75    1.22
   0  -2   8   18.40    2.27
   0  -2   9  207.91    6.41
   0   2   9  221.01    8.24
   0  -2   9  214.31    8.17
  -2   0   9  216.82    8.22
   0  -2   9  209.40    4.61
   0  -2   9  219.59    8.25
   0  -2  10 1063.84   17.65
   0   2  10 1050.32   20.80
  -2   0  10 1042.56   21.81
   0  -2  10 1070.35   21.67
  -2   0  10 1032.30   20.91
   0  -2  10 1066.47   14.30
   0  -2  10 1064.98   21.59
   0   2  11  325.24   10.41
   0  -2  11  312.09    7.96
   0   2  11  301.71    8.53
  -2   0  11  350.26   11.49
   0  -2  11  309.99   10.85
  -2   0  11  347.09   10.81
   0   2  11  312.35    8.70
   0  -2  11  312.39   10.83
   0  -2  12   14.16    1.81
   0   2  12   11.78    2.46
  -2   0  12   10.17    2.05
   0  -2  12    8.55    2.02
   0   2  12    7.15    1.52
  -2   0  12   14.37    2.15
   0  -2  12   10.29    2.19
   0   2  12    6.28    1.33
   0  -2  13 1092.67   17.60
   0   2  13 1074.80   21.77
   0   2  13 1080.05   20.25
  -2   0  13 1076.36   23.74
   0  -2  13 1079.40   23.69
  -2   0  13 1105.35   22.39
   0  -2  13 1096.13   23.75
   0   2  13 1070.40   20.19
   0   2  14 2302.98   36.81
   0  -2  14 2282.29   31.08
  -2   0  14 2311.96   39.62
   0   2  14 2237.41   35.28
   0  -2  14 2319.02   39.93
  -2   0  14 2300.17   37.55
   0  -2  14 2299.90   39.67
   0   2  14 2267.66   35.35
   0  -2  15  130.51    4.58
   0   2  15  116.39    6.54
   0   2  15  105.63    5.91
   0  -2  15  118.26    7.32
  -2   0  15  115.91    7.26
  -2   0  15  114.20    6.54
   0  -2  15  121.86    7.49
   0   2  15  113.08    6.09
   0  -2  16   27.72    2.03
   0   2  16   24.25    3.09
  -2   0  16   26.30    3.44
   0   2  16   24.05    2.90
   0  -2  16   26.47    3.41
  -2   0  16   26.27    3.23
   0  -2  16   30.80    3.89
   0   2  16   24.20    3.01
   0  -2  17  239.64    6.21
   0   2  17  243.43    9.60
   0   2  17  244.86    9.66
   0  -2  17  265.88   11.77
  -2   0  17  258.31   11.40
  -2   0  17  256.78   10.23
   0   2  17  257.38    9.97
   0  -2  17  245.65   11.27
   0  -2  18 1188.93   17.71
   0   2  18 1177.51   24.06
   0  -2  18 1229.68   28.57
  -2   0  18 1181.79   27.53
   0   2  18 1163.95   24.72
  -2   0  18 1191.24   25.28
   0  -2  18 1198.36   28.08
   0   2  18 1192.36   24.86
   0  -2  19  205.00    5.36
   0   2  19  226.59    9.34
  -2   0  19  213.02   10.83
   0   2  19  221.87    9.83
   0  -2  19  214.06   11.12
  -2   0  19  215.36    9.69
   0  -2  19  221.91   11.29
   0   2  19  226.50    9.85
  -2   0  19  205.86   10.69
   0  -2  20   18.42    1.43
   0   2  20   15.20    2.50
  -2   0  20   22.70    3.62
   0   2  20   17.61    2.90
   0  -2  20   19.71    3.44
  -2   0  20   18.75    2.90
  -2   0  20   17.71    3.24
   0   2  20   17.64    2.96
   0  -2  20   19.15    3.39
   0   2  21   72.71    5.28
   0  -2  21   63.56    2.53
   0  -2  21   68.53    6.58
  -2   0  21   68.99    6.42
   0   2  21   70.97    5.79
  -2   0  21   67.32    5.46
  -2   0  21   65.44    6.21
   0  -2  21   66.64    6.36
   0   2  21   68.22    5.68
   0  -2  22  195.12    4.48
   0   2  22  202.79    9.01
  -2   0  22  206.05   11.40
   0   2  22  199.18   10.12
   0  -2  22  234.75   12.41
  -2   0  22  202.78    9.79
  -2   0  22  210.49   11.40
   0  -2  22  204.10   11.50
   0   2  22  189.93    9.82
   0   2  23  135.51    7.42
  -2   0  23  154.03   10.00
   0   2  23  146.33    8.81
   0  -2  23  145.35    9.86
  -2   0  23  158.15    8.72
   0  -2  23  133.49    9.60
   0   2  23  145.74    8.80
  -2   0  23  151.05    9.84
   0   2  24    7.55    1.89
   0   2  24    5.42    1.97
  -2   0  24    3.50    1.57
  -2   0  24    4.71    1.53
   0   2  24    9.41    2.56
  -2   0  24    5.17    1.83
   0  -2  24    6.14    2.38
   0   2  25  165.14    8.39
  -2   0  25  160.21   10.60
   0   2  25  163.45    9.92
  -2   0  25  155.19    9.00
   0  -2  25  171.68   11.30
  -2   0  25  158.92   10.59
   0   2  25  170.04   10.16
   0   2  26  632.65   20.76
   0   2  26  650.03   17.76
   0  -2  26  647.46   23.15
  -2   0  26  638.30   22.56
   0   2  26  657.58   21.09
   0   2  27   13.34    3.30
   0   2  27   13.49    2.64
  -2   0  27    9.51    2.66
   0  -2  27    9.92    3.10
   0   2  27   13.95    3.42
   0   2  28   41.85    5.39
   0   2  28   39.87    4.20
  -2   0  28   34.49    5.26
   0  -2  28   39.56    5.76
   0   2  28   40.18    5.22
   0   2  29   35.73    4.05
   0  -2  29   39.14    6.09
   0   2  29   38.28    5.28
  -2   0  29   36.77    5.59
   0   2  30  510.40   15.87
  -2   0  30  486.31   20.94
   0  -2  30  485.40   21.40
  -2   0  31   58.52    5.13
   0   2  31   68.21    5.60
   0  -2  31   48.56    6.90
  -2   0  31   57.25    7.12
  -2   0  32   21.68    3.16
   0   2  32   25.93    3.49
  -2   0  32   21.37    4.69
   0  -2  32   25.38    5.13
  -2   0  33    0.68    0.95
   0   2  33    1.49    1.01
  -2   0  33    0.65    1.49
   0  -2  33    3.25    2.26
   0   2  34  279.54   11.51
  -2   0  34  262.69   11.09
   0  -2  34  252.10   16.35
  -2   0  34  264.86   16.27
   0   2  35   48.69    4.69
  -2   0  35   40.94    4.28
  -2   0  35   43.12    6.82
   0  -2  35   37.03    6.51
  -2   0  36    4.82    1.52
   0   2  36   10.07    2.38
   0  -2  36    8.17    3.37
  -2   0  36    0.70    1.90
  -2   0  37    7.08    3.17
   0  -2  37    1.87    1.74
   0  -2  38  107.22   11.63
  -2   0  38  104.03   11.01
  -2   0  39   39.20    7.00
   0  -2  39   32.36    6.69
  -2   0  40    5.41    3.06
   0  -2  40    0.30    2.06
  -2   0  41   36.88    6.98
   0  -2  41   33.64    6.92
   0  -2  42  177.85   15.82
  -2   0  42  183.06   15.47
  -2   0  43   16.89    5.09
  -2   0  44    3.95    3.22
   1  -2 -45   18.75    5.32
  -2  -1 -44   -0.11    1.74
   1  -2 -44    5.13    3.40
   1  -2 -43    7.83    3.62
  -2  -1 -43    3.82    2.50
  -1   2 -42  182.69   16.05
   1  -2 -42  171.23   14.46
  -2  -1 -42  179.51   15.39
   2   1 -41   12.27    4.66
  -1   2 -41   19.76    5.77
  -2  -1 -41   16.06    4.94
   1  -2 -41   17.51    5.01
   2   1 -40   -1.91    2.21
   1  -2 -40    2.59    2.48
  -1   2 -40    4.23    3.11
  -2  -1 -40   -1.41    1.21
   1  -2 -39   32.33    5.98
  -2  -1 -39   25.27    5.53
   2   1 -39   30.95    6.36
  -1   2 -39   27.59    5.82
  -1   2 -38  104.65   11.41
   2   1 -38  101.40   10.93
   1  -2 -38   95.07   10.10
  -2  -1 -38  110.10   11.19
  -2  -1 -37   86.43    9.77
   2   1 -37   91.03   10.22
  -1   2 -37   81.28    9.86
   1  -2 -37   75.32    8.55
   1  -2 -36    4.01    2.44
   2   1 -36    1.90    1.83
  -1   2 -36    1.10    1.25
  -2  -1 -36    4.97    2.47
   1  -2 -35   54.04    6.99
   2   1 -35   53.19    7.65
  -2  -1 -35   52.93    7.41
  -1   2 -35   56.67    7.85
  -2  -1 -34  189.89   13.65
   2   1 -34  171.37   13.43
   1  -2 -34  170.38   12.34
  -1   2 -34  162.97   13.08
  -2  -1 -34  161.38   10.14
   2   1 -34  154.06    9.33
   2   1 -33  104.29   10.30
  -2  -1 -33  112.82   10.38
  -1   2 -33  112.90   10.62
   1  -2 -33  110.06    9.60
   2   1 -33   95.56    7.27
  -2  -1 -33   90.83    7.41
   1  -2 -32   23.47    4.43
   2   1 -32   25.60    5.27
  -1   2 -32   32.36    5.73
  -2  -1 -32   23.59    4.65
   2   1 -32   20.58    3.41
   2   1 -31   73.36    8.49
  -2  -1 -31   69.46    7.71
   1  -2 -31   70.02    7.29
  -1   2 -31   76.21    8.52
   2   1 -31   68.16    6.04
  -2  -1 -30  179.35   12.41
   1  -2 -30  174.83   11.53
  -1   2 -30  174.32   12.62
   2   1 -30  178.09   12.75
   2   1 -30  167.07    9.27
   1  -2 -29   17.80    3.88
   2   1 -29   19.64    4.48
  -2  -1 -29   25.74    4.85
  -1   2 -29   16.41    3.83
   2   1 -29   18.51    3.15
  -2  -1 -28  131.53   10.24
  -1   2 -28  132.30   10.55
   1  -2 -28  125.05    9.25
   2   1 -28  126.24   10.36
   1  -2 -28  126.07    9.32
   2   1 -28  116.85    7.46
   2   1 -27  247.38   14.29
  -2  -1 -27  226.05   13.27
   1  -2 -27  233.57   12.43
  -1   2 -27  255.20   14.47
   2   1 -27  216.39   10.22
   1  -2 -27  246.66   12.92
   1  -2 -26  615.36   20.49
  -2  -1 -26  638.23   14.19
  -1   2 -26  569.46   21.81
  -2  -1 -26  639.78   22.32
   2   1 -26  620.80   22.87
   2   1 -26  609.62   17.72
   1  -2 -26  596.72   20.55
  -2  -1 -25   38.82    3.15
   1  -2 -25   62.12    6.07
  -1   2 -25   56.96    6.57
   2   1 -25   45.61    6.05
  -2  -1 -25   44.09    5.64
   2   1 -25   46.07    4.53
   1  -2 -25   55.00    5.96
  -2  -1 -25   46.04    5.78
   2   1 -24    6.56    2.40
   1  -2 -24    7.47    2.13
  -2  -1 -24    4.51    1.14
  -2  -1 -24    3.13    1.56
  -1   2 -24    6.96    2.28
   2   1 -24    3.71    1.35
   1  -2 -24    7.13    2.26
  -2  -1 -24    2.34    1.49
  -2  -1 -23  118.21    5.61
   2   1 -23  129.17    9.49
  -1   2 -23  131.81    9.51
   1  -2 -23  136.49    8.55
  -2  -1 -23  134.76    9.28
   2   1 -23  120.59    7.12
   1  -2 -23  141.43    9.10
  -1   2 -23  136.43    9.80
  -2  -1 -23  130.87    9.18
  -2  -1 -22  247.24    8.29
   1  -2 -22  227.02   10.90
  -2  -1 -22  270.67   13.00
  -1   2 -22  241.92   12.76
   2   1 -22  230.70   12.47
   2   1 -22  232.21    9.86
   1  -2 -22  232.75   11.67
  -1   2 -22  240.19   12.79
  -2  -1 -22  273.29   13.08
  -2  -1 -21  352.33   10.29
  -2  -1 -21  375.75   15.21
  -1   2 -21  387.46   15.92
   1  -2 -21  381.65   13.96
   2   1 -21  377.56   15.78
   2   1 -21  365.05   12.47
   1  -2 -21  381.50   14.85
  -1   2 -21  403.18   16.43
  -2  -1 -21  375.99   15.32
  -2  -1 -20   54.37    3.78
   1  -2 -20   58.10    5.13
  -2  -1 -20   60.55    5.80
  -1   2 -20   58.49    5.94
   2   1 -20   56.06    5.86
   2   1 -20   57.43    4.67
   1  -2 -20   58.29    5.60
  -1   2 -20   61.45    6.39
  -2  -1 -20   57.29    5.71
  -2  -1 -19   96.02    5.06
   2   1 -19  100.29    7.60
  -1   2 -19  111.19    7.95
  -2  -1 -19  101.38    7.39
   1  -2 -19  111.80    6.88
   1  -2 -19  111.39    7.58
   2   1 -19   95.39    5.99
  -2  -1 -19  100.50    7.33
  -1   2 -19  120.62    8.38
  -2  -1 -18  847.94   17.35
  -2  -1 -18  852.13   22.65
  -1   2 -18  880.59   23.42
   1  -2 -18  852.32   20.26
   1  -2 -18  848.51   22.36
   2   1 -18  843.68   19.40
  -1   2 -18  866.02   23.67
  -2  -1 -18  870.26   22.88
  -2  -1 -17  301.17    9.32
  -1   2 -17  327.61   13.28
   1  -2 -17  317.85   11.17
  -2  -1 -17  313.69   12.71
   1  -2 -17  321.64   12.80
   2   1 -17  314.29   10.81
  -1   2 -17  333.83   13.54
  -2  -1 -17  311.16   12.64
  -1   2 -16  175.74    4.01
  -2  -1 -16  144.67    6.31
  -2  -1 -16  162.23    8.81
   1  -2 -16  171.26    7.77
  -1   2 -16  177.36    9.43
   2   1 -16  163.09    7.49
   1  -2 -16  176.07    9.14
  -2  -1 -16  160.02    8.77
  -1   2 -16  184.15    9.80
  -1   2 -15  652.08   10.51
  -2  -1 -15  631.76   14.35
  -2  -1 -15  645.44   18.10
   1  -2 -15  655.57   15.81
  -1   2 -15  678.84   18.84
   1  -2 -15  654.03   18.36
   2   1 -15  645.53   15.93
  -1   2 -15  649.31   18.74
  -2  -1 -15  640.54   18.17
  -2  -1 -14  847.33   17.08
  -1   2 -14  824.29   13.09
   1  -2 -14  865.67   18.08
  -1   2 -14  844.42   21.05
   1  -2 -14  841.12   20.86
   2   1 -14  816.40   18.28
  -1   2 -14  836.72   21.07
  -2  -1 -13   88.02    4.85
  -1   2 -13  104.81    3.69
   1  -2 -13  105.99    5.34
  -1   2 -13  105.04    6.56
   2   1 -13   92.90    5.37
   1  -2 -13  103.25    6.61
  -1   2 -13  100.99    6.52
  -1   2 -12  174.66    5.18
  -2  -1 -12  184.40    7.01
  -1   2 -12  179.35    8.50
   1  -2 -12  190.26    6.92
   1  -2 -12  184.06    8.77
   2   1 -12  178.80    7.41
  -1   2 -12  170.82    8.37
  -1   2 -11   96.69    3.83
  -2  -1 -11   78.39    4.50
  -1   2 -11   98.49    5.98
   1  -2 -11  100.87    4.72
   1  -2 -11   95.78    6.15
   2   1 -11   89.77    5.12
  -1   2 -11  102.44    6.13
  -2  -1 -10 1000.77   19.09
  -1   2 -10  980.76   16.32
  -1   2 -10  991.47   20.95
   2   1 -10 1014.34   19.81
   1  -2 -10  982.02   21.61
  -1   2 -10 1013.91   21.05
  -1   2  -9  196.47    5.98
  -2  -1  -9  179.49    6.96
  -1   2  -9  199.65    8.02
   1  -2  -9  212.09    8.78
   2   1  -9  181.98    7.22
  -1   2  -9  192.55    7.95
  -1   2  -8   46.04    2.87
  -2  -1  -8   48.88    3.54
  -1   2  -8   51.32    3.82
   1  -2  -8   51.53    4.20
   2   1  -8   49.60    3.65
  -1   2  -8   49.06    3.71
  -1   2  -7  226.01    6.81
  -2  -1  -7  221.78    7.78
  -1   2  -7  231.87    8.03
   2   1  -7  225.44    7.96
   1  -2  -7  245.69    9.05
  -1   2  -7  213.93    7.78
  -2  -1  -6  520.83   12.42
  -1   2  -6  463.35   10.71
  -1   2  -6  482.03   11.68
   1  -2  -6  486.84   13.05
   2   1  -6  515.89   12.50
  -1   2  -6  458.36   11.55
  -2  -1  -5 1125.38   20.61
  -1   2  -5 1126.10   19.28
  -1   2  -5 1136.57   19.65
   1  -2  -5 1163.03   21.79
  -2  -1  -5 1139.83   21.21
  -1   2  -5 1090.20   19.40
   2   1  -5 1145.19   20.80
  -1   2  -4   74.39    4.03
  -2  -1  -4   70.85    4.27
  -1   2  -4   68.98    3.67
   1  -2  -4   78.52    4.68
  -1   2  -4   73.79    3.79
  -2  -1  -4   74.24    4.49
   2   1  -4   81.30    4.58
  -2  -1  -3   19.90    2.26
  -1   2  -3   20.79    2.13
  -1   2  -3   19.23    1.80
   1  -2  -3   20.41    2.38
  -2  -1  -3   17.34    2.16
  -1   2  -3   17.00    1.70
   2   1  -3   15.25    2.05
  -1   2  -2  464.11   11.34
  -1   2  -2  454.64    9.44
   1  -2  -2  454.52   11.51
   2   1  -2  485.44   11.94
  -2  -1  -2  479.82   11.97
  -1   2  -2  454.17    9.49
  -2  -1  -2  480.95   12.05
  -1   2  -1  487.23   11.85
   1  -2  -1  502.62   11.82
  -2  -1  -1  482.15   12.17
   2   1  -1  504.31   12.18
  -2  -1  -1  481.82   12.13
  -1   2   0  253.10    8.21
   1  -2   0  253.86    7.71
   2   1   0  237.45    8.02
  -2  -1   0  233.49    8.06
  -2  -1   0  237.10    8.12
  -1   2   1  491.70   12.21
   1  -2   1  480.00   10.98
  -2  -1   1  515.74   12.41
   2   1   1  481.52   12.04
  -1   2   2  420.74   11.28
   1  -2   2  413.66    9.67
  -2  -1   2  449.25   11.38
  -1   2   3   19.27    2.36
   1  -2   3   18.98    1.77
  -2  -1   3   15.34    2.11
  -1   2   4   72.74    4.61
  -2  -1   4   75.67    4.46
   1  -2   4   63.18    3.13
  -1   2   5 1178.63   22.11
   1  -2   5 1140.23   17.51
  -2  -1   5 1148.08   21.08
  -1   2   5 1155.03   16.10
  -1   2   6  502.96   13.15
  -2  -1   6  521.82   12.65
   1  -2   6  479.03    9.14
  -1   2   6  480.73    8.84
  -1   2   7  238.78    8.78
  -1   2   7  219.27    5.66
  -2  -1   7  202.09    7.53
   1  -2   7  211.86    5.13
  -1   2   8   60.27    4.49
  -1   2   8   55.57    2.89
   1  -2   8   51.94    2.15
  -2  -1   8   52.99    3.83
   2   1   8   56.63    3.73
   1  -2   8   51.04    3.86
  -1   2   9  203.44    8.35
  -2  -1   9  179.82    8.19
  -1   2   9  187.28    5.87
   1  -2   9  187.44    7.87
  -2  -1   9  169.38    6.95
   1  -2   9  184.51    3.93
   1  -2   9  201.70    8.02
   2   1   9  176.56    6.79
  -1   2   9  192.35    5.93
  -1   2  10 1015.42   21.25
  -1   2  10  988.80   17.53
  -2  -1  10 1064.82   22.57
   1  -2  10  991.96   21.06
  -2  -1  10 1027.30   20.06
   1  -2  10 1008.60   21.15
  -1   2  10  997.52   17.58
   2   1  10 1076.08   19.42
  -1   2  11  103.15    6.02
   1  -2  11   98.99    5.97
  -2  -1  11   92.36    6.10
  -1   2  11   91.45    4.51
  -2  -1  11   88.03    5.05
   1  -2  11  105.11    6.20
   2   1  11   89.83    4.77
  -1   2  11   99.30    4.69
  -1   2  12  190.86    8.26
   1  -2  12  191.38    8.67
  -2  -1  12  195.55    9.16
  -1   2  12  195.07    7.01
  -2  -1  12  190.57    7.73
   1  -2  12  189.16    8.65
  -1   2  12  187.88    6.94
   2   1  12  200.80    7.23
  -1   2  13   88.16    5.63
   1  -2  13   85.32    6.03
  -1   2  13   79.36    4.61
  -2  -1  13   78.59    5.89
  -2  -1  13   79.98    4.98
   2   1  13   78.31    4.48
  -1   2  13   87.65    4.83
   1  -2  13   88.02    6.06
  -1   2  14  893.30   20.24
   1  -2  14  871.12   21.50
  -1   2  14  867.62   18.25
  -2  -1  14  904.51   22.30
  -2  -1  14  895.69   19.13
  -1   2  14  879.60   18.37
   2   1  14  876.21   17.41
   1  -2  14  822.95   21.02
  -1   2  15  649.69   17.00
   1  -2  15  660.76   18.61
  -1   2  15  635.25   15.59
  -2  -1  15  655.23   18.90
  -2  -1  15  626.61   15.70
   1  -2  15  647.91   18.49
  -1   2  15  638.35   15.54
   2   1  15  628.88   14.16
  -1   2  16  167.34    8.17
  -2  -1  16  163.17    9.14
  -1   2  16  168.81    7.70
   1  -2  16  175.82    9.35
  -2  -1  16  159.88    7.41
   1  -2  16  197.17    9.98
  -1   2  16  163.05    7.52
   2   1  16  157.09    6.48
  -1   2  17  326.55   11.78
   1  -2  17  316.36   13.04
  -2  -1  17  320.19   13.35
  -1   2  17  320.50   11.26
  -2  -1  17  311.29   10.81
  -1   2  17  328.05   11.31
   2   1  17  327.32    9.65
   1  -2  17  344.64   13.79
  -1   2  18  807.37   19.96
   1  -2  18  835.85   22.87
  -2  -1  18  829.53   22.91
  -1   2  18  778.58   19.47
  -2  -1  18  810.36   18.97
  -1   2  18  794.79   19.43
   2   1  18  817.18   16.69
   1  -2  18  853.98   23.09
  -1   2  19  107.71    6.71
  -2  -1  19  103.11    7.82
   1  -2  19  131.51    8.82
  -1   2  19  111.43    6.86
  -2  -1  19  107.43    6.34
   2   1  19  115.19    5.50
   1  -2  19  128.53    8.63
  -1   2  19  112.54    6.89
  -2  -1  19  102.97    7.69
  -1   2  20   44.04    4.32
  -1   2  20   47.88    4.64
   1  -2  20   48.55    5.37
  -2  -1  20   57.78    5.90
  -2  -1  20   56.75    4.73
   2   1  20   55.34    3.81
  -2  -1  20   56.25    5.83
   1  -2  20   58.22    6.14
  -1   2  20   44.53    4.48
  -1   2  21  400.39   13.66
   1  -2  21  418.34   16.70
  -1   2  21  402.39   14.28
  -2  -1  21  392.97   16.30
  -2  -1  21  396.78   13.02
  -2  -1  21  385.90   15.90
   1  -2  21  398.60   16.17
  -1   2  21  406.64   14.30
   2   1  21  380.10   10.58
  -1   2  22  221.83   10.11
   1  -2  22  228.39   12.54
  -2  -1  22  245.90   12.94
  -1   2  22  223.89   10.76
  -2  -1  22  232.77    9.89
  -1   2  22  219.27   10.60
  -2  -1  22  234.56   12.44
   2   1  22  255.06    8.33
   1  -2  22  222.45   12.34
  -1   2  23  133.90    7.79
  -1   2  23  132.54    8.42
   1  -2  23  135.74    9.76
  -2  -1  23  121.01    9.22
  -2  -1  23  129.94    7.38
  -1   2  23  136.02    8.44
  -2  -1  23  116.23    9.02
   1  -2  23  128.67    9.53
   2   1  23  130.20    5.87
  -1   2  24    8.35    2.12
   2   1  24    5.37    1.43
  -1   2  24    5.26    1.94
  -2  -1  24    4.89    1.57
  -2  -1  24    1.64    1.29
  -1   2  24    5.06    2.02
   1  -2  24    4.68    1.96
  -1   2  25   54.74    5.08
  -1   2  25   50.12    5.50
  -2  -1  25   44.86    4.45
   2   1  25   45.37    3.43
  -2  -1  25   45.78    5.92
  -1   2  25   54.04    5.86
   1  -2  25   51.85    6.40
  -1   2  26  601.08   17.98
  -1   2  26  604.99   20.30
  -2  -1  26  636.71   18.08
  -1   2  26  612.57   20.30
   1  -2  26  615.22   22.77
  -2  -1  26  633.78   22.98
  -1   2  27  226.25   10.68
  -1   2  27  234.58   12.47
  -2  -1  27  231.37   10.56
   1  -2  27  224.60   13.69
  -2  -1  27  227.49   13.62
  -1   2  27  217.21   11.93
  -1   2  28  120.79    9.13
  -1   2  28  121.79    7.81
  -2  -1  28  107.67    9.46
   1  -2  28  152.44   11.31
  -1   2  28  116.90    8.84
  -1   2  29   15.51    3.00
   1  -2  29   21.37    4.54
  -1   2  29   16.50    3.51
  -2  -1  29   13.68    3.55
  -1   2  30  190.28   10.06
   1  -2  30  184.22   12.96
  -1   2  30  183.96   11.65
  -2  -1  30  189.22   13.12
  -1   2  31   70.36    6.10
  -1   2  31   71.51    7.43
  -2  -1  31   65.65    7.96
   1  -2  31   89.30    9.39
  -1   2  32   24.07    3.60
  -2  -1  32   20.35    4.80
   1  -2  32   26.31    5.40
  -1   2  32   30.75    5.05
  -1   2  33  110.80    7.72
  -1   2  33  104.40    9.41
  -2  -1  33   91.61    9.56
  -1   2  34  167.11    9.59
  -2  -1  34  172.63   13.39
  -1   2  34  164.55   12.07
  -2  -1  35   53.32    4.47
  -1   2  35   53.90    5.53
  -2  -1  35   48.68    7.16
  -1   2  35   56.05    7.34
  -1   2  36    3.58    1.54
  -2  -1  36    1.08    1.24
  -1   2  36    4.95    2.62
  -1   2  37   83.83    6.73
  -2  -1  37   72.76    9.28
  -1   2  37   75.78    8.57
  -2  -1  38  100.51   11.10
  -1   2  38   98.25   10.19
  -1   2  39   28.10    5.59
  -2  -1  39   29.66    6.08
  -2  -1  40    0.61    2.07
  -1   2  40    3.47    2.02
  -2  -1  41   23.23    5.60
  -1   2  41   17.32    4.71
  -2  -1  42  168.41   15.14
  -2  -2 -44  108.90   12.11
  -2  -2 -43   29.65    6.85
  -2  -2 -42   11.80    4.19
  -2  -2 -41   15.72    4.45
  -2   2 -41   19.51    5.30
  -2  -2 -40   83.19    9.98
  -2   2 -40   74.61    9.99
   2   2 -39   49.89    8.32
  -2   2 -39   51.04    8.16
  -2  -2 -39   51.89    8.02
   2   2 -38   19.62    5.36
  -2  -2 -38   21.31    5.01
  -2   2 -38   13.36    4.14
   2   2 -37   36.75    6.84
  -2  -2 -37   40.03    6.53
  -2   2 -37   31.38    6.30
  -2   2 -36  114.85   11.70
   2   2 -36   98.92   11.02
  -2  -2 -36   96.53    9.96
  -2   2 -35   55.53    7.96
   2   2 -35   46.42    7.25
  -2  -2 -35   50.56    7.12
  -2  -2 -34   18.21    4.12
  -2   2 -34   12.95    3.87
   2   2 -34   14.15    4.11
  -2  -2 -33   41.97    6.19
  -2   2 -33   36.17    6.16
   2   2 -33   46.66    7.15
   2   2 -32  100.41    6.68
  -2  -2 -32   99.30    9.37
  -2   2 -32  112.75   10.66
   2   2 -32  102.77   10.31
   2   2 -31   59.54    5.03
   2   2 -31   56.31    7.57
  -2  -2 -31   56.90    6.89
  -2   2 -31   63.51    8.02
   2   2 -30   26.46    3.43
  -2  -2 -30   22.97    4.47
   2   2 -30   21.37    4.67
  -2   2 -30   22.01    4.62
   2   2 -29   83.34    5.92
  -2  -2 -29   93.05    8.59
   2   2 -29   94.32    9.51
  -2   2 -29   91.67    9.18
  -2  -2 -28  780.70   19.72
   2   2 -28  813.42   20.11
   2   2 -28  828.92   28.25
  -2  -2 -28  806.06   26.10
  -2   2 -28  891.93   29.00
  -2  -2 -27  170.32    8.40
   2   2 -27  177.68    8.57
  -2  -2 -27  193.45   12.00
   2   2 -27  193.13   12.99
  -2   2 -27  184.49   12.41
  -2  -2 -26   80.24    5.73
  -2  -2 -26   81.59    7.52
  -2   2 -26   70.80    7.51
   2   2 -26   70.80    7.70
   2   2 -26   74.42    5.45
  -2  -2 -25  103.34    6.45
  -2  -2 -25  106.46    8.57
  -2   2 -25  113.63    9.34
   2   2 -25  101.83    9.28
   2   2 -25   98.84    6.20
   2  -2 -25  105.20    8.46
  -2  -2 -25  104.39    8.41
  -2  -2 -24  116.27    6.85
  -2  -2 -24  123.34    8.92
  -2   2 -24  138.83   10.20
   2   2 -24  130.94   10.10
   2  -2 -24  133.38    9.32
   2   2 -24  124.14    6.87
  -2  -2 -24  121.95    8.89
  -2  -2 -23  282.75   10.86
  -2  -2 -23  287.43   13.53
  -2   2 -23  280.68   14.42
   2   2 -23  292.99   14.98
   2   2 -23  275.55   10.46
   2  -2 -23  271.32   13.41
  -2  -2 -23  297.24   13.78
  -2  -2 -22   77.26    5.48
   2   2 -22   76.98    7.41
  -2   2 -22   74.91    7.20
  -2  -2 -22   75.64    6.74
   2   2 -22   77.59    5.27
   2  -2 -22   68.77    6.57
  -2  -2 -22   78.65    6.83
  -2   2 -22   78.17    7.49
  -2  -2 -21  204.97    9.00
  -2   2 -21  175.95   10.96
  -2  -2 -21  197.05   10.64
   2   2 -21  176.45   11.30
   2   2 -21  197.84    8.52
   2  -2 -21  194.93   10.94
  -2   2 -21  201.96   11.74
  -2  -2 -21  195.27   10.74
  -2  -2 -20  254.33   10.12
  -2   2 -20  296.98   13.89
  -2  -2 -20  261.76   12.10
   2  -2 -20  292.21   13.27
   2   2 -20  252.61    9.64
  -2  -2 -20  274.28   12.39
  -2   2 -20  286.34   13.80
  -2  -2 -19  104.29    6.32
  -2  -2 -19  102.94    7.30
  -2   2 -19  105.60    8.06
   2   2 -19   94.95    5.69
   2  -2 -19   93.69    7.33
  -2   2 -19  101.08    7.91
  -2  -2 -19  107.55    7.45
  -2  -2 -18   47.50    4.21
  -2   2 -18   38.90    1.93
  -2  -2 -18   50.61    5.02
  -2   2 -18   42.76    5.04
   2  -2 -18   44.02    4.97
  -2   2 -18   40.38    1.78
  -2   2 -18   42.72    5.02
   2   2 -18   50.71    4.06
  -2  -2 -18   52.26    5.08
  -2  -2 -17  250.39    9.88
  -2   2 -17  238.96    5.80
  -2  -2 -17  261.76   11.29
  -2   2 -17  253.13   11.99
   2  -2 -17  256.47   11.86
  -2   2 -17  243.32    5.18
   2   2 -17  232.34    8.92
  -2  -2 -17  258.24   11.27
  -2   2 -17  236.55   11.64
  -2   2 -16  808.28   13.57
  -2  -2 -16  808.11   19.15
  -2  -2 -16  815.23   20.80
  -2   2 -16  844.74   22.75
  -2   2 -16  811.09   12.31
   2  -2 -16  820.47   22.15
  -2  -2 -16  808.71   20.88
  -2   2 -16  805.20   22.32
   2   2 -16  780.63   17.75
  -2   2 -15   39.54    2.46
  -2  -2 -15   44.71    4.05
  -2   2 -15   39.44    4.48
   2  -2 -15   45.58    4.90
  -2   2 -15   41.93    2.17
   2   2 -15   44.39    3.72
  -2   2 -15   40.44    4.59
  -2  -2 -14  116.83    6.52
  -2   2 -14  112.50    4.44
  -2   2 -14  102.17    7.08
  -2   2 -14  105.48    3.64
   2  -2 -14  104.36    7.16
   2   2 -14  114.80    5.98
  -2   2 -14  108.43    7.25
  -2  -2 -13   77.84    5.29
  -2   2 -13   71.14    3.63
  -2   2 -13   76.25    5.89
  -2   2 -13   69.94    3.07
   2  -2 -13   77.94    6.11
   2   2 -13   69.95    4.60
  -2   2 -13   71.42    5.75
  -2  -2 -12 1211.86   24.64
  -2   2 -12 1278.02   20.71
  -2   2 -12 1259.55   26.76
  -2   2 -12 1261.83   18.87
   2  -2 -12 1278.93   27.44
   2   2 -12 1230.44   23.36
  -2   2 -12 1287.04   27.11
  -2   2 -11  220.19    7.13
  -2  -2 -11  258.73    9.74
  -2   2 -11  230.57    9.94
   2  -2 -11  237.41   10.44
  -2   2 -11  220.82    6.18
   2   2 -11  259.99    8.97
  -2   2 -11  223.21    9.86
  -2  -2 -10  353.87   11.50
  -2   2 -10  314.82   11.43
  -2   2 -10  329.32    9.04
  -2   2 -10  306.91    7.69
   2  -2 -10  347.46   12.47
  -2   2 -10  314.52   11.54
   2   2 -10  322.76   10.17
  -2  -2  -9  204.11    8.60
  -2   2  -9  218.39    9.08
  -2   2  -9  195.05    6.03
   2  -2  -9  197.41    9.10
   2   2  -9  200.13    7.84
  -2   2  -9  195.84    8.70
  -2  -2  -8  384.47   12.19
  -2   2  -8  422.39    9.57
   2  -2  -8  411.50   13.26
   2   2  -8  382.61   11.26
  -2  -2  -7  719.42   17.30
   2  -2  -7  724.42   17.99
  -2   2  -7  707.62   13.83
   2   2  -7  733.62   16.32
  -2  -2  -6  214.92    8.65
  -2   2  -6  187.89    6.46
   2  -2  -6  190.91    8.51
   2   2  -6  220.30    8.17
  -2  -2  -5  332.23   10.83
   2  -2  -5  286.25   10.28
  -2   2  -5  277.41    8.27
  -2  -2  -4 1441.57   26.92
   2  -2  -4 1493.23   27.14
  -2   2  -4 1478.26   24.19
  -2  -2  -3  519.25   14.06
  -2   2  -3  497.01   12.09
   2  -2  -3  508.34   13.67
  -2  -2  -2   67.71    4.73
  -2   2  -2   64.16    4.05
   2  -2  -2   63.98    4.38
   2   2  -2   63.76    4.58
  -2  -2  -1  226.06    8.93
   2  -2  -1  231.45    8.36
  -2   2  -1  208.33    7.71
   2   2  -1  225.99    8.78
  -2  -2  -1  223.29    8.64
  -2  -2   0  868.78   19.40
  -2   2   0  896.39   18.29
   2  -2   0  902.67   18.24
  -2  -2   0  874.02   18.93
   2   2   0  884.08   19.30
  -2  -2   1  251.31    9.44
   2  -2   1  244.62    8.34
  -2   2   1  236.99    8.62
   2   2   1  263.59    9.48
  -2  -2   1  249.69    9.03
  -2  -2   2   64.25    4.59
   2   2   2   62.13    4.57
   2  -2   2   66.50    4.12
  -2   2   2   59.12    4.28
  -2  -2   2   59.38    4.27
   2   2   3  534.71   14.25
  -2  -2   3  541.43   14.42
  -2   2   3  513.11   13.87
   2  -2   3  501.61   12.22
  -2  -2   3  535.22   13.70
   2   2   4 1449.79   26.85
  -2  -2   4 1419.58   26.79
  -2   2   4 1503.57   27.17
   2  -2   4 1457.61   23.81
  -2  -2   4 1458.82   25.91
  -2  -2   5  309.42   10.51
   2   2   5  316.56   10.65
   2  -2   5  287.19    8.34
  -2   2   5  284.61   10.39
  -2  -2   5  304.26    9.85
   2   2   6  212.26    8.64
  -2  -2   6  223.86    8.84
   2  -2   6  194.43    6.48
  -2   2   6  204.66    8.94
  -2  -2   6  220.50    8.19
  -2  -2   7  739.44   17.27
   2   2   7  700.18   17.07
   2  -2   7  678.23   13.53
  -2   2   7  710.84   17.89
  -2  -2   7  744.81   16.45
  -2  -2   8  416.54   12.50
   2   2   8  394.62   12.30
   2  -2   8  455.89    9.91
  -2  -2   8  408.82   11.67
  -2   2   8  425.94   13.56
  -2  -2   8  395.26   12.94
   2   2   9  202.97    8.43
  -2  -2   9  190.63    8.19
  -2  -2   9  192.71    7.67
   2  -2   9  185.45    5.83
  -2   2   9  195.21    9.05
  -2  -2   9  195.02    8.92
  -2   2   9  194.03    7.08
   2   2  10  364.56   11.67
  -2  -2  10  364.46   11.63
  -2  -2  10  359.16   12.65
  -2   2  10  358.35   10.23
   2  -2  10  336.57    8.06
  -2  -2  10  348.85   10.67
  -2   2  10  354.10   12.68
  -2  -2  11  259.80    9.58
   2   2  11  252.06    9.56
  -2  -2  11  258.14   10.69
  -2   2  11  220.94    8.10
  -2   2  11  219.23   10.10
  -2  -2  11  254.45    8.89
   2  -2  11  214.91    6.03
   2   2  12 1290.15   25.16
  -2  -2  12 1225.39   27.29
  -2   2  12 1290.62   23.80
  -2  -2  12 1249.65   23.73
  -2   2  12 1277.66   27.48
  -2  -2  12 1277.39   24.81
   2  -2  12 1299.63   19.00
   2   2  13   67.18    4.98
  -2  -2  13   69.12    5.77
  -2   2  13   62.28    4.47
  -2   2  13   63.14    5.49
  -2  -2  13   65.95    4.49
  -2  -2  13   71.12    4.98
   2   2  14  110.71    6.29
  -2  -2  14  108.06    7.46
  -2   2  14  101.35    5.88
  -2  -2  14  105.49    5.73
  -2   2  14   98.80    7.02
  -2  -2  14  110.38    6.25
   2   2  15   48.57    4.26
  -2   2  15   41.07    3.85
  -2  -2  15   51.73    5.22
  -2   2  15   46.24    4.78
  -2  -2  15   49.71    3.91
  -2  -2  15   47.82    4.16
   2   2  16  801.48   19.13
  -2  -2  16  839.23   22.87
  -2   2  16  811.03   19.40
  -2  -2  16  817.74   18.19
  -2   2  16  817.45   19.49
  -2  -2  16  806.91   18.85
   2   2  17  255.65   10.00
  -2   2  17  231.71    9.92
  -2  -2  17  248.18   12.04
  -2  -2  17  231.69    8.92
  -2  -2  17  239.58    9.50
  -2   2  17  234.35    9.91
   2   2  18   51.77    4.45
  -2   2  18   48.57    4.93
  -2   2  18   46.47    4.47
  -2  -2  18   49.00    5.48
  -2  -2  18   44.93    3.85
  -2  -2  18   52.89    4.37
  -2   2  18   42.08    4.22
   2   2  19  108.43    6.44
  -2   2  19   97.04    6.96
  -2   2  19  100.09    6.81
  -2  -2  19  108.91    8.19
  -2  -2  19  110.81    6.16
  -2  -2  19  105.38    6.23
  -2  -2  19   97.13    7.82
  -2   2  19   95.01    6.63
   2   2  20  267.53   10.37
  -2   2  20  296.74   12.40
  -2   2  20  292.09   12.12
  -2  -2  20  260.10   13.17
  -2  -2  20  268.43    9.90
  -2   2  20  292.52   12.07
  -2  -2  20  253.09   12.97
  -2  -2  20  263.38   10.13
   2   2  21  212.48    9.18
  -2   2  21  206.66   10.37
  -2  -2  21  214.42   11.97
  -2   2  21  202.62   10.28
  -2  -2  21  202.76    8.64
  -2  -2  21  188.87   11.40
  -2   2  21  200.12   10.13
  -2  -2  21  194.07    8.63
  -2   2  22   67.71    6.06
   2   2  22   83.09    5.73
  -2  -2  22   75.81    7.35
  -2   2  22   66.58    5.97
  -2  -2  22   74.42    5.22
  -2   2  22   62.40    5.79
  -2  -2  22   73.89    5.29
  -2  -2  22   76.28    7.31
  -2   2  23  284.88   12.57
   2   2  23  295.36   11.00
  -2  -2  23  283.09   10.57
  -2   2  23  273.52   12.63
  -2  -2  23  290.51   10.66
  -2   2  23  274.24   12.64
  -2  -2  23  281.51   14.70
   2   2  24  137.38    7.40
  -2   2  24  145.65    9.04
  -2  -2  24  133.37    7.16
  -2   2  24  138.59    9.13
  -2  -2  24  133.70    7.16
  -2  -2  24  130.31    9.99
  -2   2  24  138.64    9.05
  -2  -2  25   98.64    6.11
  -2   2  25  103.47    7.61
   2   2  25  108.07    6.57
  -2   2  25   96.32    7.72
  -2  -2  25  102.59    6.36
  -2   2  25  100.26    7.84
  -2  -2  25   97.60    8.85
  -2  -2  26   73.44    5.28
  -2   2  26   64.59    6.05
   2   2  26   71.43    5.32
  -2   2  26   55.73    6.05
  -2  -2  26   70.08    5.24
  -2   2  26   62.94    6.36
  -2  -2  26   75.39    7.94
   2   2  27  192.54    8.93
  -2  -2  27  182.86    8.45
  -2   2  27  160.17    9.72
  -2   2  27  166.52   10.80
  -2  -2  27  188.75    8.84
  -2   2  27  166.57   10.66
  -2  -2  27  170.87   12.19
   2   2  28  844.68   20.19
  -2  -2  28  777.86   19.13
  -2   2  28  841.32   23.69
  -2  -2  28  834.52   20.47
  -2   2  28  811.08   25.23
  -2  -2  28  854.85   28.76
   2   2  29   94.91    6.25
  -2   2  29   80.35    6.98
  -2  -2  29   77.55    5.47
  -2  -2  29   81.72    5.90
  -2   2  29   75.65    7.39
  -2  -2  29   85.08    8.86
  -2   2  30   27.09    4.07
   2   2  30   30.81    3.52
  -2  -2  30   26.97    3.18
  -2  -2  30   25.38    4.91
  -2   2  30   26.39    4.59
  -2   2  31   51.78    5.59
  -2  -2  31   69.29    5.07
   2   2  31   68.09    5.14
  -2   2  31   55.43    6.59
  -2  -2  31   70.34    8.39
   2   2  32   95.89    6.13
  -2  -2  32   94.99    5.90
  -2   2  32  100.48    7.89
  -2  -2  32   88.24    9.55
  -2   2  32  102.50    9.25
  -2   2  33   43.00    5.23
  -2  -2  33   49.00    7.35
   2   2  33   49.13    4.38
  -2   2  33   45.83    6.43
  -2   2  34   17.05    3.49
   2   2  34   18.46    2.77
  -2   2  34   13.18    3.67
  -2  -2  34   17.11    4.54
  -2   2  35   52.89    5.94
  -2   2  35   50.42    6.97
  -2  -2  35   63.50    8.44
  -2   2  36  102.78    8.22
  -2  -2  36   99.24   10.72
  -2   2  36  105.83   10.13
  -2   2  37   43.11    5.36
  -2  -2  37   38.87    6.81
  -2   2  37   41.81    6.59
  -2   2  38   22.72    4.14
  -2   2  38   19.72    4.71
  -2  -2  38   19.73    5.12
  -2   2  39   44.56    7.01
  -2  -2  39   53.95    8.40
  -2  -2  40   88.25   10.83
  -2   2  40   83.49    9.70
  -2  -2  41   13.52    4.65
  -2   2  41   14.79    4.50
  -2   2  42   13.00    4.23
  -2   2  43   22.46    5.48
  -2   2  44  116.42   12.24
  -2   2  45   14.70    5.02
  -2  -3 -44   55.57    8.82
  -2  -3 -43   13.79    4.29
  -2  -3 -42    3.91    2.11
  -2  -3 -41   17.32    5.01
  -2  -3 -40  168.14   13.74
  -3   2 -40  152.89   14.76
  -2  -3 -39   31.03    6.04
  -3   2 -39   30.57    6.69
  -2  -3 -38    8.28    2.99
  -3   2 -38   13.82    4.73
  -3   2 -37   20.68    5.46
  -2  -3 -37   15.87    4.40
  -3   2 -36  175.26   14.75
  -2  -3 -36  150.08   12.28
  -3   2 -35   30.52    6.22
  -2  -3 -35   20.01    4.61
  -3   2 -34   -1.81    1.89
  -2  -3 -34    1.62    1.90
   2   3 -34    3.02    2.67
  -2  -3 -33   46.06    6.38
   2   3 -33   49.41    7.61
  -3   2 -33   60.57    8.12
  -2  -3 -32  242.71   14.49
  -3   2 -32  228.34   15.70
   2   3 -32  225.02   15.85
  -3   2 -31   45.44    6.85
   2   3 -31   42.56    6.86
  -2  -3 -31   50.55    6.46
  -3   2 -30   24.50    5.06
  -2  -3 -30   27.99    4.73
  -2  -3 -30   20.92    3.49
   2   3 -30   24.15    5.17
  -3   2 -30   18.40    1.25
   2   3 -30   21.59    2.89
  -2  -3 -29   18.56    3.69
   2   3 -29   21.11    4.64
  -3   2 -29   21.35    4.51
  -2  -3 -29   19.04    3.31
  -3   2 -29   20.55    1.50
  -3   2 -29   19.01    1.49
   2   3 -29   21.96    2.78
  -2  -3 -28  155.23    9.23
   2   3 -28  163.12   12.47
  -2  -3 -28  164.24   10.98
  -3   2 -28  153.19   12.12
  -3   2 -28  137.73    4.51
  -3   2 -28  146.34    4.52
   2   3 -28  162.88    7.71
  -2  -3 -27   -0.44    1.00
  -3   2 -27    3.75    2.44
   2   3 -27    3.61    2.13
  -2  -3 -27    2.05    1.31
  -3   2 -27    4.72    0.85
   2   3 -27    3.73    1.23
  -2  -3 -26   33.10    4.17
  -3   2 -26   26.67    4.81
  -2  -3 -26   34.53    4.76
  -3   2 -26   33.72    2.26
   2   3 -26   27.88    3.12
  -2  -3 -26   35.48    4.96
  -3   2 -25   14.11    3.51
  -2  -3 -25    8.89    2.07
  -2  -3 -25   12.79    3.03
  -3   2 -25   11.62    1.41
   2   3 -25    8.61    1.80
  -2  -3 -25   13.32    3.30
  -2  -3 -24  225.27   11.02
  -3   2 -24  204.76   13.02
  -2  -3 -24  223.75   11.95
  -3   2 -24  208.90    6.31
   2   3 -24  207.48    8.65
  -2  -3 -24  217.73   11.82
  -2  -3 -23  121.47    8.00
  -3   2 -23  133.37   10.24
  -2  -3 -23  129.09    8.80
  -3   2 -23  134.34    5.03
   2   3 -23  125.02    6.59
  -2  -3 -23  123.43    8.64
  -3   2 -22   35.75    1.92
  -3   2 -22   32.73    1.84
  -2  -3 -22   32.41    4.13
  -3   2 -22   36.84    5.26
  -2  -3 -22   29.77    4.25
  -3   2 -22   34.19    2.55
  -2  -3 -22   31.67    4.22
   2   3 -22   28.77    3.15
  -3   2 -21  178.53    5.30
  -2  -3 -21  178.91    9.64
  -3   2 -21  178.09   11.38
  -2  -3 -21  189.93   10.26
   3  -2 -21  176.65   11.00
  -3   2 -21  182.58    6.21
  -3   2 -21  178.55    5.23
  -2  -3 -21  170.85    9.82
   2   3 -21  163.16    7.61
  -2  -3 -20  181.34    9.69
  -3   2 -20  176.65    5.73
  -2  -3 -20  186.97    9.96
  -3   2 -20  187.34   11.50
   3  -2 -20  178.32   10.98
  -3   2 -20  185.10    6.37
  -3   2 -20  179.50   11.48
   2   3 -20  167.49    7.68
  -2  -3 -20  195.73   10.20
  -3   2 -19   75.90    3.85
  -2  -3 -19   76.62    6.28
  -2  -3 -19   72.90    6.05
  -3   2 -19   79.48    7.27
   3  -2 -19   90.32    7.60
  -3   2 -19   76.44    4.05
  -2  -3 -19   71.79    6.01
  -3   2 -19   84.38    7.56
   2   3 -19   69.75    4.90
  -2  -3 -18   23.88    3.43
  -2  -3 -18   18.78    3.04
  -3   2 -18   20.64    2.08
  -3   2 -18   17.13    3.36
  -3   2 -18   19.80    2.09
   3  -2 -18   16.98    3.30
  -3   2 -18   19.97    3.65
   2   3 -18   16.89    2.44
  -2  -3 -18   22.41    3.26
  -2  -3 -17   95.64    6.86
  -2  -3 -17   92.00    6.54
  -3   2 -17  106.11    8.13
   3  -2 -17   96.84    7.70
  -3   2 -17   98.29    4.75
  -2  -3 -17   93.91    6.62
   2   3 -17   80.79    5.18
  -3   2 -17  109.84    8.31
  -2  -3 -16  441.76   15.17
  -3   2 -16  412.06   16.27
  -2  -3 -16  440.18   14.36
   3  -2 -16  451.53   16.74
  -3   2 -16  413.91   10.60
  -2  -3 -16  432.34   14.41
  -3   2 -16  408.18   16.24
  -2  -3 -15   65.18    5.68
  -3   2 -15   69.49    6.27
   3  -2 -15   75.89    6.62
  -3   2 -15   70.70    4.12
  -3   2 -15   76.42    6.68
  -2  -3 -14   27.54    3.62
  -3   2 -14   28.41    4.06
   3  -2 -14   26.96    4.01
  -3   2 -14   27.64    2.60
  -3   2 -14   26.56    3.89
  -2  -3 -13   71.40    5.84
  -3   2 -13   82.72    6.65
  -3   2 -13   84.54    4.65
   3  -2 -13   81.79    6.71
  -3   2 -13   80.45    6.62
  -2  -3 -12  382.34   13.79
  -3   2 -12  344.58   10.08
   3  -2 -12  369.47   14.41
  -2  -3 -11   68.47    5.77
   3  -2 -11   86.37    6.63
  -3   2 -11   72.80    4.39
  -2  -3 -10   13.92    2.60
   3  -2 -10   18.90    3.12
  -3   2 -10   15.55    2.03
  -2  -3  -9  119.00    7.49
   3  -2  -9  119.74    7.65
  -3   2  -9  126.43    6.00
  -2  -3  -8  547.12   16.63
  -3   2  -8  500.68   13.15
   3  -2  -8  536.18   16.71
   2   3  -8  531.98   15.56
  -2  -3  -7  117.03    7.31
  -3   2  -7  135.24    6.43
   3  -2  -7  148.24    8.26
   2   3  -7  125.90    7.22
   2   3  -6    3.92    1.35
  -2  -3  -6    7.51    1.88
  -3   2  -6    4.61    1.29
   3  -2  -6    4.75    1.55
  -2  -3  -5  307.82   12.15
   3  -2  -5  349.00   12.59
  -3   2  -5  334.79   10.76
   2   3  -5  304.98   11.56
  -2  -3  -4  938.27   22.53
   2   3  -4  935.83   21.72
   3  -2  -4  925.17   21.82
  -3   2  -4  885.47   19.59
   2   3  -3   -0.29    1.06
  -2  -3  -3    1.02    1.08
   3  -2  -3    3.61    1.46
  -3   2  -3    2.09    0.99
   2   3  -2  152.46    8.04
  -2  -3  -2  170.56    8.68
  -3   2  -2  162.18    7.66
   3  -2  -2  137.25    7.48
  -2  -3  -1  408.37   14.10
   3  -2  -1  494.79   14.31
  -3   2  -1  506.04   14.21
   2   3   0 3532.87   54.03
  -2  -3   0 3533.29   54.11
   3  -2   0 3491.54   52.10
  -3   2   0 3423.76   51.96
   2   3   1  399.90   13.76
  -2  -3   1  406.24   13.91
  -3   2   1  484.65   14.34
   3  -2   1  503.36   14.08
   2   3   2  179.57    8.81
  -2  -3   2  153.11    8.23
   3  -2   2  167.97    7.67
  -3   2   2  141.14    7.58
   2   3   3    1.19    0.92
  -2  -3   3    0.84    0.88
   3  -2   3    2.84    1.19
  -3   2   3    2.50    1.04
  -2  -3   3    1.22    0.83
   2   3   4  858.32   21.32
  -2  -3   4  909.42   21.63
  -3   2   4  874.13   21.22
   3  -2   4  878.35   19.29
  -2  -3   4  910.53   20.26
   2   3   5  306.88   11.92
  -2  -3   5  295.91   11.66
  -3   2   5  341.48   12.46
   3  -2   5  353.26   10.94
  -2  -3   5  300.34   10.77
   2   3   6    6.74    1.73
  -2  -3   6    3.11    1.19
  -2  -3   6    5.13    1.55
  -3   2   6    3.30    1.32
   3  -2   6    6.07    1.40
  -2  -3   6    7.02    1.65
   2   3   7  113.38    7.11
  -2  -3   7  115.67    7.06
  -2  -3   7  123.44    7.06
   3  -2   7  118.54    5.97
  -3   2   7  139.27    8.03
  -2  -3   7  119.63    6.52
  -2  -3   8  558.15   16.27
   2   3   8  565.77   16.62
  -2  -3   8  534.30   15.90
   3  -2   8  506.28   13.19
  -3   2   8  540.05   16.83
  -2  -3   8  554.58   14.80
  -2  -3   9  112.32    6.93
   2   3   9  111.94    7.11
  -2  -3   9  113.92    7.10
   3  -2   9  120.59    5.85
  -3   2   9  123.49    7.81
  -2  -3   9  109.07    6.13
   2   3  10   16.10    2.70
  -2  -3  10   13.64    2.47
  -2  -3  10   16.98    2.80
  -3   2  10   15.10    2.93
  -2  -3  10   10.87    1.93
   3  -2  10   14.30    1.95
  -2  -3  11   66.34    5.33
   2   3  11   67.67    5.52
  -2  -3  11   67.99    5.71
  -3   2  11   71.67    6.18
  -2  -3  11   67.76    4.77
   3  -2  11   67.91    4.22
   2   3  12  400.51   14.02
  -2  -3  12  396.57   13.52
  -3   2  12  406.63   13.12
  -2  -3  12  409.78   14.87
  -3   2  12  387.10   14.82
  -2  -3  12  416.85   12.37
   3  -2  12  388.52   10.65
  -2  -3  13   79.41    5.80
   2   3  13   73.27    5.89
  -2  -3  13   71.18    6.06
  -3   2  13   81.47    5.73
  -3   2  13   76.02    6.47
  -2  -3  13   67.84    4.72
   3  -2  13   83.79    4.55
  -2  -3  14   25.49    3.29
   2   3  14   24.34    3.40
  -2  -3  14   24.53    3.80
  -3   2  14   21.32    2.98
  -2  -3  14   23.33    2.80
  -3   2  14   26.08    3.92
   3  -2  14   24.88    2.43
   2   3  15   71.00    5.87
  -2  -3  15   64.34    5.25
  -3   2  15   75.53    6.61
  -2  -3  15   64.09    4.58
  -3   2  15   76.87    5.81
  -2  -3  15   64.21    6.02
   2   3  16  461.13   15.45
  -2  -3  16  456.98   14.47
  -2  -3  16  436.79   12.78
  -3   2  16  442.92   16.68
  -3   2  16  426.25   14.70
  -2  -3  16  472.94   17.26
  -2  -3  17   85.39    6.03
   2   3  17  106.06    7.20
  -3   2  17   95.25    6.77
  -2  -3  17   90.91    7.49
  -2  -3  17   88.86    5.40
  -3   2  17   95.73    7.66
  -2  -3  18   17.82    2.76
   2   3  18   25.76    3.65
  -2  -3  18   24.44    4.03
  -3   2  18   17.20    3.03
  -2  -3  18   19.62    2.54
  -3   2  18   17.28    3.35
  -2  -3  18   21.76    3.76
  -2  -3  19   74.43    5.66
   2   3  19   85.07    6.50
  -3   2  19   90.17    6.92
  -2  -3  19   83.08    7.41
  -2  -3  19   75.70    5.05
  -3   2  19   97.70    7.88
  -2  -3  19   80.06    7.36
  -2  -3  20  172.67    8.69
   2   3  20  188.15    9.79
  -3   2  20  161.83    9.50
  -2  -3  20  185.99   11.43
  -2  -3  20  185.20    7.99
  -3   2  20  169.73   10.65
  -2  -3  20  175.54   11.09
   2   3  21  177.29    9.57
  -2  -3  21  172.58    8.66
  -3   2  21  170.00    9.94
  -3   2  21  179.47   11.10
  -2  -3  21  177.28    7.87
  -2  -3  21  175.14   11.37
   2   3  22   35.08    4.28
  -2  -3  22   30.89    3.67
  -3   2  22   29.49    4.20
  -3   2  22   29.89    4.55
  -2  -3  22   32.26    3.30
  -2  -3  22   30.33    4.88
  -3   2  22   37.03    4.69
  -2  -3  23  120.61    7.28
   2   3  23  115.60    7.79
  -3   2  23  133.27    9.11
  -2  -3  23  124.04    6.56
  -2  -3  23  116.85    9.64
  -3   2  23  133.42    9.03
   2   3  24  227.87   11.00
  -2  -3  24  224.32    9.96
  -3   2  24  214.76   11.98
  -2  -3  24  238.00    9.22
  -2  -3  24  225.76   13.69
  -3   2  24  221.29   12.01
   2   3  25   14.04    2.82
  -2  -3  25   13.69    2.57
  -3   2  25   13.45    3.12
  -2  -3  25   12.69    2.08
  -2  -3  25   11.83    3.13
  -3   2  25   12.27    2.98
   2   3  26   36.49    4.41
  -2  -3  26   29.74    3.59
  -3   2  26   32.72    4.72
  -3   2  26   33.85    4.69
  -2  -3  26   32.19    3.36
  -2  -3  26   33.53    5.48
  -3   2  26   31.92    4.77
   2   3  27    2.58    1.50
  -2  -3  27    1.70    1.09
  -3   2  27    0.89    1.55
  -2  -3  27    2.39    1.10
  -2  -3  27    2.46    2.12
  -3   2  27    1.29    1.43
   2   3  28  143.38    8.79
  -2  -3  28  144.96    7.87
  -3   2  28  137.64    9.75
  -2  -3  28  155.75    7.54
  -3   2  28  139.97   10.34
  -2  -3  28  137.01   11.54
  -2  -3  29   17.50    2.76
   2   3  29   18.19    3.24
  -3   2  29   11.69    2.95
  -2  -3  29   16.69    2.47
  -3   2  29   19.74    3.93
  -2  -3  29   22.12    4.66
  -2  -3  30   23.39    3.10
   2   3  30   26.85    3.87
  -3   2  30   21.02    4.11
  -2  -3  30   24.11    2.97
  -2  -3  30   21.14    4.57
  -3   2  30   21.26    4.18
  -3   2  31   46.23    5.97
   2   3  31   43.57    5.14
  -3   2  31   46.83    6.36
  -2  -3  31   37.27    6.40
   2   3  32  244.16   11.84
  -3   2  32  241.50   13.36
  -2  -3  32  250.33   16.63
  -3   2  32  228.74   14.29
  -3   2  33   46.86    5.95
   2   3  33   43.08    4.92
  -2  -3  33   44.33    7.14
  -3   2  33   42.81    6.35
  -3   2  34    2.01    2.13
   2   3  34    1.17    1.10
  -2  -3  34    2.07    2.16
  -3   2  34   -0.05    1.50
  -3   2  35   20.63    4.10
   2   3  35   20.21    3.50
  -2  -3  35   15.31    4.44
  -3   2  35   21.48    4.77
  -3   2  36  164.97   11.42
  -3   2  36  155.74   12.66
  -2  -3  36  174.77   14.62
  -3   2  37   18.37    3.77
  -2  -3  37   22.34    5.38
  -3   2  37   17.48    4.32
  -3   2  38   11.98    3.24
  -3   2  38   11.99    3.91
  -2  -3  38   12.94    4.17
  -3   2  39   28.06    5.77
  -2  -3  39   27.78    6.14
  -2  -3  40  142.68   14.06
  -3   2  40  152.52   13.28
  -3   2  41   18.93    4.79
  -3   2  42    5.46    2.53
  -3   2  43   12.40    4.13
  -3   2  44   58.36    8.82
  -1  -3 -45   19.28    5.06
  -1  -3 -44   78.88   10.09
  -1  -3 -43   52.38    8.00
  -1  -3 -42   10.55    3.60
   1   3 -41   68.24    9.79
  -3   1 -41   69.00    9.83
  -1  -3 -41   66.68    8.72
  -3   1 -40  108.61   12.19
   1   3 -40   93.72   11.40
  -1  -3 -40  102.49   10.63
  -3   1 -39   48.60    7.99
  -1  -3 -39   41.95    6.91
   1   3 -39   42.41    7.45
  -1  -3 -38    5.36    3.25
  -3   1 -38    3.01    3.16
   1   3 -38    2.25    2.49
   1   3 -37   81.71   10.21
  -3   1 -37   83.26   10.08
  -1  -3 -37   75.38    8.65
  -3   1 -36   72.93    9.41
   1   3 -36   71.58    9.25
  -1  -3 -36   78.76    8.61
  -3   1 -35   54.79    7.99
   1   3 -35   46.87    7.59
  -1  -3 -35   62.23    7.45
  -3   1 -34   -1.21    1.30
   1   3 -34    1.57    2.59
  -1  -3 -34    2.47    1.94
  -3   1 -33   92.09    9.90
  -1  -3 -33   74.19    7.95
   1   3 -33   77.30    9.20
  -3   1 -33   87.69    5.33
  -3   1 -32  179.12   13.75
   1   3 -32  174.52   13.62
  -1  -3 -32  159.85   11.37
  -3   1 -32  176.94    7.70
   1   3 -31    7.19    2.59
  -3   1 -31    4.48    2.64
  -1  -3 -31    4.49    2.34
  -3   1 -31    5.53    1.52
  -1  -3 -30   15.78    3.50
   1   3 -30   18.85    4.38
  -3   1 -30    8.69    2.82
  -3   1 -30   12.69    2.09
  -3   1 -29   85.42    9.00
  -1  -3 -29   69.20    7.06
   1   3 -29   89.99    9.35
  -3   1 -29   87.82    5.34
  -1  -3 -28  344.37   15.57
   1   3 -28  318.74   17.39
  -3   1 -28  341.28   17.86
  -3   1 -28  345.36   11.04
  -1  -3 -28  350.44   15.84
   1   3 -27   79.25    8.33
  -3   1 -27   67.66    7.66
  -1  -3 -27   83.27    7.29
  -1  -3 -27   70.57    6.85
  -3   1 -27   69.42    4.71
  -1  -3 -26   20.95    3.78
   1   3 -26   23.94    4.53
  -3   1 -26   17.42    3.97
   3  -1 -26   22.63    4.12
  -3   1 -26   17.33    2.32
  -1  -3 -26   24.25    4.03
   1   3 -25  116.40    9.82
  -1  -3 -25  111.49    8.08
  -1  -3 -25   98.04    7.23
  -3   1 -25  104.94    9.26
   3  -1 -25  104.96    8.38
  -1  -3 -25  106.01    7.95
  -3   1 -25   89.87    5.32
  -1  -3 -24  288.55   12.57
  -3   1 -24  322.90   16.07
  -1  -3 -24  326.09   13.71
   1   3 -24  292.23   15.47
   3  -1 -24  301.91   14.30
  -1  -3 -24  319.78   13.73
  -3   1 -24  309.55   10.13
  -1  -3 -23  143.64    8.68
  -3   1 -23  151.23    4.01
  -3   1 -23  175.87   11.53
   1   3 -23  159.07   10.81
  -1  -3 -23  168.36    9.47
   3  -1 -23  166.15   10.30
  -3   1 -23  177.13    7.39
  -1  -3 -23  159.49    9.32
  -3   1 -22   19.30    1.55
   1   3 -22   31.49    4.83
  -1  -3 -22   29.08    3.90
  -1  -3 -22   24.48    3.51
  -3   1 -22   22.46    4.15
   3  -1 -22   23.12    3.86
  -1  -3 -22   28.79    3.85
  -3   1 -22   17.19    2.32
  -1  -3 -21  131.26    8.12
  -3   1 -21  137.44    4.68
   1   3 -21  140.71    9.92
  -1  -3 -21  132.98    8.01
  -3   1 -21  144.02   10.09
   3  -1 -21  147.01    9.48
  -3   1 -21  138.35    6.46
  -1  -3 -21  140.51    8.30
  -3   1 -21  134.88    9.85
  -1  -3 -20  335.69   13.15
  -3   1 -20  341.54    8.34
   1   3 -20  317.21   14.79
  -1  -3 -20  337.99   12.76
  -3   1 -20  349.68   15.57
   3  -1 -20  327.66   14.21
  -3   1 -20  342.30   10.50
  -1  -3 -20  345.22   12.91
  -3   1 -20  364.04   16.00
  -1  -3 -19  226.68   10.63
  -3   1 -19  214.28    6.62
   1   3 -19  209.03   11.65
  -1  -3 -19  226.65    9.99
  -3   1 -19  224.06   12.22
   3  -1 -19  232.06   11.67
  -3   1 -19  213.73    8.12
  -3   1 -19  226.64   12.34
  -1  -3 -19  229.64   10.02
  -1  -3 -18   25.50    3.45
   1   3 -18   22.83    3.63
  -3   1 -18   21.22    3.72
  -1  -3 -18   26.78    3.29
  -3   1 -18   26.13    2.74
   3  -1 -18   33.85    4.30
  -3   1 -18   25.01    4.01
  -1  -3 -18   26.03    3.26
  -3   1 -18   26.64    2.27
  -1  -3 -17   47.60    4.70
   1   3 -17   60.35    5.93
  -1  -3 -17   52.44    4.41
  -3   1 -17   52.21    5.68
   3  -1 -17   57.77    5.65
  -3   1 -17   56.36    4.01
  -3   1 -17   54.72    3.40
  -1  -3 -17   55.99    4.58
  -3   1 -17   57.90    5.87
  -1  -3 -16  380.59   13.63
  -3   1 -16  374.22   15.17
   1   3 -16  376.15   14.82
  -1  -3 -16  394.92   12.33
   3  -1 -16  381.99   14.59
  -3   1 -16  368.42   10.90
  -1  -3 -16  389.67   12.26
  -3   1 -16  380.94   15.49
  -1  -3 -15   78.55    5.94
   1   3 -15   69.37    5.99
  -1  -3 -15   75.34    4.97
  -3   1 -15   72.77    4.58
   3  -1 -15   72.24    6.11
  -1  -3 -15   73.17    4.91
  -1  -3 -14   32.50    3.86
   1   3 -14   32.63    4.00
  -1  -3 -14   40.34    3.53
  -3   1 -14   35.78    3.20
   3  -1 -14   39.77    4.48
  -1  -3 -14   37.73    3.40
  -1  -3 -13  116.02    7.14
   1   3 -13  123.94    7.62
  -1  -3 -13  112.48    5.73
   3  -1 -13  123.90    7.83
  -3   1 -13  115.94    5.78
  -1  -3 -13  108.66    5.64
   1   3 -13  118.98    6.21
  -1  -3 -12  753.06   19.65
  -1  -3 -12  762.70   16.22
   1   3 -12  758.76   19.86
   3  -1 -12  777.76   20.58
  -3   1 -12  742.95   16.45
   1   3 -12  754.03   17.45
  -1  -3 -12  752.66   16.18
  -1  -3 -11  290.35   11.45
  -1  -3 -11  294.66    8.94
   1   3 -11  277.69   11.12
  -3   1 -11  294.48    9.56
   3  -1 -11  279.38   11.57
  -1  -3 -11  293.81    8.98
   1   3 -11  279.93    9.93
  -1  -3 -10   45.13    4.34
   1   3 -10   40.94    3.66
   3  -1 -10   32.78    3.90
  -3   1 -10   25.62    2.75
   1   3 -10   37.89    3.93
  -1  -3  -9  397.30   13.43
   1   3  -9  422.33   12.50
  -3   1  -9  398.95   11.47
   3  -1  -9  426.83   14.09
   1   3  -8 1106.15   22.58
  -1  -3  -8 1152.77   24.63
   3  -1  -8 1128.09   24.65
  -3   1  -8 1120.87   21.61
  -1  -3  -7  646.52   17.40
   1   3  -7  626.91   16.00
  -3   1  -7  665.59   15.49
   3  -1  -7  648.32   17.57
  -1  -3  -6   87.29    5.93
   1   3  -6   86.03    5.44
  -3   1  -6   57.75    4.20
   3  -1  -6   64.40    5.09
   1   3  -5  567.67   15.14
  -1  -3  -5  568.66   16.12
   3  -1  -5  577.39   15.92
  -3   1  -5  570.31   14.31
   1   3  -4  712.67   17.36
  -1  -3  -4  683.93   17.80
   3  -1  -4  681.10   17.39
  -3   1  -4  701.24   16.33
   1   3  -3  170.57    7.87
  -1  -3  -3  166.66    8.08
   3  -1  -3  160.58    7.80
  -3   1  -3  169.43    7.45
  -1  -3  -2    8.85    2.05
   1   3  -2    8.63    1.94
   3  -1  -2    5.17    1.53
  -3   1  -2    6.95    1.53
  -1  -3  -1  184.62    8.47
   1   3  -1  179.41    8.19
   3  -1  -1  189.27    8.17
  -3   1  -1  173.21    7.69
  -1  -3   0  462.11   13.90
   1   3   0  476.45   13.88
   3  -1   0  486.01   13.58
  -3   1   0  475.56   13.59
   1   3   1  184.92    8.33
  -1  -3   1  184.61    8.35
   3  -1   1  190.92    8.08
  -3   1   1  188.80    8.32
  -1  -3   2   10.71    2.14
   1   3   2   10.95    2.15
  -1  -3   2   10.53    1.60
  -3   1   2    4.14    1.38
   3  -1   2    7.47    1.70
   1   3   3  178.03    8.27
  -1  -3   3  164.09    7.89
  -3   1   3  165.38    8.02
   3  -1   3  177.94    7.59
  -1  -3   3  168.42    6.58
   1   3   4  736.47   18.16
  -1  -3   4  712.78   17.58
   3  -1   4  724.20   16.59
  -3   1   4  701.80   18.00
  -1  -3   4  696.67   15.44
   1   3   5  561.86   15.80
  -1  -3   5  574.58   15.40
  -1  -3   5  571.81   14.08
   3  -1   5  590.87   14.59
  -3   1   5  599.60   16.36
   1   3   6   89.19    5.90
  -1  -3   6   90.06    5.64
  -1  -3   6   92.12    5.31
  -3   1   6   70.56    5.29
   3  -1   6   66.61    4.49
  -1  -3   7  608.10   15.84
   1   3   7  608.34   16.76
  -1  -3   7  609.18   15.41
  -3   1   7  651.34   17.32
   3  -1   7  652.41   15.20
  -1  -3   7  594.58   13.82
   1   3   8 1166.46   24.32
  -1  -3   8 1102.63   22.82
  -1  -3   8 1117.12   22.91
  -3   1   8 1091.22   24.37
   3  -1   8 1110.60   21.45
  -1  -3   8 1111.36   20.34
  -1  -3   9  421.02   12.63
   1   3   9  395.69   13.14
  -1  -3   9  425.42   13.15
  -3   1   9  409.84   13.85
  -1  -3   9  420.22   10.85
   3  -1   9  402.74   11.48
   1   3  10   41.95    4.28
  -1  -3  10   43.25    3.81
  -1  -3  10   46.82    4.29
  -3   1  10   30.49    3.74
  -1  -3  10   40.89    3.12
   3  -1  10   24.70    2.65
  -1  -3  11  267.88    9.83
   1   3  11  289.04   11.18
  -1  -3  11  284.10   11.14
  -3   1  11  271.04   11.39
   3  -1  11  299.46    9.52
  -1  -3  11  276.04    8.39
  -1  -3  11  287.71   11.11
  -1  -3  12  725.63   17.33
   1   3  12  741.19   19.12
  -1  -3  12  729.10   19.31
  -1  -3  12  725.35   14.77
  -3   1  12  721.74   19.85
  -1  -3  12  727.83   19.27
  -1  -3  13  121.68    6.42
   1   3  13  113.86    7.07
  -1  -3  13  113.15    7.23
  -3   1  13  123.00    7.44
  -3   1  13  122.98    7.76
  -1  -3  13  119.19    5.19
  -1  -3  13  123.38    7.53
  -1  -3  14   33.09    3.34
   1   3  14   34.63    3.93
  -3   1  14   34.25    3.98
  -1  -3  14   30.06    3.88
  -1  -3  14   30.06    2.54
  -3   1  14   37.49    4.37
  -1  -3  14   33.02    4.09
   1   3  15   70.82    5.63
  -1  -3  15   59.98    4.47
  -3   1  15   65.51    5.59
  -1  -3  15   68.38    5.98
  -1  -3  15   58.79    3.55
  -3   1  15   58.49    5.56
  -1  -3  15   64.21    5.70
   1   3  16  382.91   13.60
  -1  -3  16  377.29   11.65
  -1  -3  16  391.08   15.03
  -3   1  16  381.32   14.26
  -1  -3  16  372.84    9.53
  -3   1  16  380.32   14.66
  -1  -3  16  383.85   14.80
   1   3  17   53.84    5.01
  -1  -3  17   67.62    4.69
  -3   1  17   53.22    5.30
  -1  -3  17   56.48    5.73
  -3   1  17   59.48    5.74
  -1  -3  17   61.83    3.54
  -1  -3  17   64.72    6.03
  -1  -3  18   22.71    2.80
   1   3  18   26.46    3.60
  -1  -3  18   24.74    3.83
  -3   1  18   30.29    4.07
  -3   1  18   29.02    4.04
  -1  -3  18   22.58    2.08
  -1  -3  18   21.04    3.57
   1   3  19  230.29   10.53
  -1  -3  19  210.90    8.38
  -1  -3  19  222.57   11.89
  -3   1  19  226.53   11.48
  -1  -3  19  210.36    6.74
  -3   1  19  216.43   11.29
  -1  -3  19  219.59   11.81
   1   3  20  350.17   13.22
  -1  -3  20  326.74   10.62
  -3   1  20  343.24   14.61
  -1  -3  20  338.40   15.20
  -3   1  20  341.46   14.50
  -1  -3  20  337.80    8.77
  -1  -3  20  323.93   14.88
  -1  -3  21  139.56    6.63
   1   3  21  124.37    7.89
  -1  -3  21  148.94   10.11
  -3   1  21  140.76    9.35
  -1  -3  21  146.02    5.46
  -3   1  21  141.15    9.28
  -1  -3  21  144.51    9.95
   1   3  22   26.69    3.75
  -1  -3  22   23.37    2.74
  -3   1  22   22.39    3.74
  -1  -3  22   27.47    2.32
  -3   1  22   21.09    3.73
  -1  -3  22   27.08    4.52
  -1  -3  23  149.64    6.84
   1   3  23  153.93    8.88
  -3   1  23  149.58   10.01
  -1  -3  23  149.79    5.52
  -3   1  23  152.24    9.83
  -1  -3  23  149.63   10.60
  -3   1  23  152.84   10.19
   1   3  24  342.21   13.40
  -1  -3  24  292.45    9.74
  -3   1  24  318.64   15.08
  -1  -3  24  311.34    8.28
  -3   1  24  323.65   14.75
  -1  -3  24  301.36   15.53
  -3   1  24  312.04   14.83
   1   3  25   98.19    7.17
  -1  -3  25   98.54    5.35
  -3   1  25   86.39    7.67
  -1  -3  25   92.29    4.23
  -3   1  25   85.92    7.82
  -1  -3  25   97.23    8.89
  -1  -3  26   27.01    2.79
   1   3  26   25.58    3.73
  -3   1  26   19.66    3.85
  -1  -3  26   27.14    4.80
  -3   1  26   19.10    3.90
   1   3  27   87.10    6.79
  -1  -3  27   89.85    4.94
  -3   1  27   71.48    7.17
  -1  -3  27   76.69    8.27
  -3   1  27   83.13    8.01
  -1  -3  28  336.56    9.84
   1   3  28  340.42   13.87
  -1  -3  28  344.26   17.78
  -3   1  28  349.33   16.92
  -1  -3  29   96.95    4.87
   1   3  29   89.80    6.98
  -1  -3  29   89.97    9.24
  -3   1  29   85.57    8.47
   1   3  30   15.52    2.95
  -1  -3  30   17.70    1.99
  -3   1  30   11.03    3.31
  -1  -3  30   23.93    4.91
  -1  -3  31    7.88    1.38
   1   3  31    8.92    2.27
  -1  -3  31    7.97    3.08
  -3   1  31    4.14    2.03
  -3   1  32  150.43    9.93
   1   3  32  153.79    9.29
  -3   1  32  157.02   12.13
  -1  -3  32  163.64   13.02
  -3   1  33   77.16    7.08
   1   3  33   74.42    6.45
  -3   1  33   83.37    9.00
  -1  -3  33   93.08   10.05
  -3   1  34    0.57    1.07
   1   3  34    2.36    1.32
  -3   1  34    1.20    1.82
  -1  -3  34   -1.33    1.34
   1   3  35   70.85    6.40
  -3   1  35   63.83    6.55
  -1  -3  35   69.53    9.10
  -3   1  35   58.26    7.74
   1   3  36   86.34    7.01
  -3   1  36   77.72    7.30
  -1  -3  36   84.90   10.05
  -3   1  36   75.86    9.00
  -3   1  37   87.62    7.71
  -3   1  37   82.48    9.65
  -1  -3  37   82.06   10.00
  -3   1  38    2.20    2.10
  -1  -3  38    1.61    2.79
  -3   1  38    1.84    1.62
  -3   1  39   39.94    7.04
  -1  -3  39   49.20    8.09
  -3   1  40  103.29   11.29
  -1  -3  40  111.97   12.51
  -3   1  41   70.14    9.45
  -1  -3  41   77.09   10.43
  -3   1  42   12.06    4.65
  -3   1  43   53.64    8.50
   0  -3 -46   45.55    7.83
   0  -3 -45   28.36    6.04
   0  -3 -44   12.35    4.07
   0  -3 -43   69.43    9.03
  -3   0 -42   77.36   10.57
   0  -3 -42   72.06    9.35
   0   3 -41   42.68    7.74
  -3   0 -41   49.50    8.38
   0  -3 -41   47.48    7.43
   0  -3 -40    4.40    2.52
  -3   0 -40    3.71    2.88
   0   3 -40    6.90    3.75
   0  -3 -39   82.88    9.27
  -3   0 -39   95.74   11.02
   0   3 -39   77.64   10.30
  -3   0 -38   52.05    8.03
   0   3 -38   64.32    9.40
   0  -3 -38   56.65    7.62
   0   3 -37   76.97    9.82
  -3   0 -37   80.28    9.90
   0  -3 -37   78.96    8.68
   0  -3 -36    2.38    2.06
   0   3 -36    2.64    2.66
  -3   0 -36    3.34    2.47
  -3   0 -36    0.34    1.15
  -3   0 -35   73.55    9.13
   0  -3 -35   63.47    7.46
   0   3 -35   66.77    8.63
  -3   0 -35   76.48    6.31
   0  -3 -34   63.96    7.47
  -3   0 -34   62.52    8.21
   0   3 -34   68.38    8.67
  -3   0 -34   58.26    5.44
   0   3 -33   61.89    8.26
  -3   0 -33   66.48    8.36
   0  -3 -33   72.70    7.73
  -3   0 -33   64.35    5.63
  -3   0 -32    2.39    1.50
   0  -3 -32    4.74    2.21
   0   3 -32    9.30    3.19
  -3   0 -32    2.68    1.44
  -3   0 -31   95.09    9.68
   0   3 -31   66.70    8.26
   0  -3 -31   71.88    7.41
  -3   0 -31   85.82    6.41
  -3   0 -30  208.65   14.09
   0   3 -30  217.02   14.56
   0  -3 -30  205.85   12.23
   3   0 -30  185.22   11.25
  -3   0 -30  199.33    9.76
   0  -3 -29   87.64    7.68
  -3   0 -29  105.15    9.87
   0   3 -29   93.07    9.46
   3   0 -29   90.50    7.74
  -3   0 -29   97.49    6.70
   0   3 -28   27.79    5.02
   0  -3 -28   27.32    4.25
  -3   0 -28   18.96    4.07
   3   0 -28   21.62    3.77
  -3   0 -28   19.50    3.04
  -3   0 -27  185.40    5.15
   0   3 -27  162.61   12.04
  -3   0 -27  206.41   13.31
   0  -3 -27  169.38   10.24
   3   0 -27  174.54   10.50
  -3   0 -27  187.33    9.22
  -3   0 -26  110.07    4.19
  -3   0 -26  116.51    9.81
   0   3 -26  128.64   10.32
   0  -3 -26  132.09    8.78
   3   0 -26  120.10    8.61
  -3   0 -26  111.60    6.98
  -3   0 -25  169.68    5.64
   0   3 -25  167.94   11.57
   0  -3 -25  163.00    9.54
  -3   0 -25  176.18   11.86
   3   0 -25  176.75   10.35
  -3   0 -25  173.03    8.64
  -3   0 -24   41.57    2.80
  -3   0 -24   40.31    5.56
   0  -3 -24   43.46    4.80
   0   3 -24   35.01    5.39
   0  -3 -24   36.24    5.02
   3   0 -24   43.32    5.05
  -3   0 -24   44.10    4.30
  -3   0 -23  421.78   10.21
  -3   0 -23  435.59   18.20
   0   3 -23  405.31   17.54
   0  -3 -23  418.75   14.82
   3   0 -23  393.08   15.50
   0  -3 -23  413.23   17.04
  -3   0 -23  420.72   13.67
  -3   0 -22  194.56    6.82
   0   3 -22  237.61   12.96
   0  -3 -22  240.48   10.68
  -3   0 -22  205.72   12.19
   0  -3 -22  241.44   12.65
   3   0 -22  206.68   10.80
  -3   0 -22  204.67    9.22
  -3   0 -21  469.15   11.39
   0   3 -21  463.74   18.10
  -3   0 -21  485.55   18.71
   0  -3 -21  468.73   14.99
   3   0 -21  472.42   16.58
   0  -3 -21  461.29   17.73
  -3   0 -21  483.43   18.80
  -3   0 -21  477.21   14.41
  -3   0 -20   16.29    1.96
  -3   0 -20   18.72    3.62
   0  -3 -20   15.17    2.58
   0   3 -20   18.17    3.77
   3   0 -20   15.66    3.06
  -3   0 -20   17.21    3.44
  -3   0 -20   15.33    2.44
   0  -3 -20   16.27    2.70
  -3   0 -19  362.16    9.97
   0   3 -19  342.65   14.72
   0  -3 -19  356.00   12.08
  -3   0 -19  366.70   15.62
   3   0 -19  341.94   13.66
  -3   0 -19  369.51   15.70
  -3   0 -19  367.01   12.18
   0  -3 -19  341.31   11.87
  -3   0 -18  230.16    7.99
   0   3 -18  289.02   13.05
  -3   0 -18  240.80   12.31
   0  -3 -18  270.56   10.07
   0  -3 -18  280.19   11.89
   3   0 -18  254.13   11.48
  -3   0 -18  234.73    9.58
  -3   0 -18  243.54   12.44
   0  -3 -18  269.60   10.03
  -3   0 -17  343.31    9.86
   0  -3 -17  292.83   10.38
   0   3 -17  350.99   14.09
   0  -3 -17  347.66   13.20
   3   0 -17  355.42   13.47
  -3   0 -17  347.82   11.60
   0  -3 -17  327.79   10.85
   0   3 -17  328.85    9.31
  -3   0 -16   21.47    2.37
   0   3 -16   26.38    3.80
   0  -3 -16   21.50    2.59
   0  -3 -16   21.49    3.14
   3   0 -16   19.95    3.09
  -3   0 -16   21.32    2.77
   0   3 -16   18.63    2.10
   0  -3 -16   24.87    2.81
   0   3 -15  191.37    7.14
  -3   0 -15  226.27    7.94
   0  -3 -15  195.08    9.54
   0  -3 -15  198.43    7.61
   0   3 -15  202.55   10.10
   3   0 -15  197.90    9.73
   0  -3 -15  195.08    7.58
  -3   0 -15  230.87    9.07
   0  -3 -14  626.83   17.75
   0   3 -14  614.57   13.93
  -3   0 -14  575.86   13.92
   0  -3 -14  629.68   13.99
   0   3 -14  625.06   18.09
   3   0 -14  579.68   17.26
   0  -3 -14  622.16   13.91
  -3   0 -14  572.35   15.26
   0   3 -13  431.23   11.51
   0  -3 -13  440.05   14.46
   0   3 -13  420.85   14.25
   0  -3 -13  440.48   10.88
   3   0 -13  457.45   14.80
  -3   0 -13  451.56   11.93
   0  -3 -13  437.46   10.87
  -3   0 -13  462.59   13.23
   0  -3 -12  155.18    8.24
   0   3 -12  153.14    6.48
   0  -3 -12  149.01    5.59
   0   3 -12  155.56    8.10
   3   0 -12  143.18    7.92
  -3   0 -12  138.82    6.93
   0  -3 -12  144.38    5.55
  -3   0 -12  145.55    6.44
   0  -3 -11  721.11   18.89
   0   3 -11  705.64   15.78
   0  -3 -11  717.25   13.49
   0   3 -11  719.23   18.17
   3   0 -11  732.16   18.99
   0  -3 -11  701.03   13.46
  -3   0 -11  758.84   17.48
   0  -3 -10  584.50   16.54
   0   3 -10  591.06   14.01
   0   3 -10  590.65   15.65
   0  -3 -10  592.73   11.13
   3   0 -10  529.15   15.86
  -3   0 -10  525.91   14.39
   0  -3 -10  569.70   11.01
   0   3  -9  675.14   15.37
   0  -3  -9  681.43   17.92
   0   3  -9  689.96   16.62
   0  -3  -9  662.48   11.57
   3   0  -9  730.59   18.39
   0  -3  -9  656.21   11.53
  -3   0  -9  696.50   16.50
   0   3  -8   23.62    2.63
   0  -3  -8   25.76    3.28
   0  -3  -8   24.46    1.59
   0   3  -8   24.74    2.80
   3   0  -8   23.37    3.04
  -3   0  -8   26.66    2.97
   0  -3  -8   23.55    1.58
   0   3  -7  605.60   14.85
   0  -3  -7  636.90   16.95
   0   3  -7  623.52   14.80
   0  -3  -7  630.90    9.63
  -3   0  -7  657.58   15.97
   3   0  -7  657.70   17.09
   0  -3  -7  633.48    9.66
   0  -3  -6  306.23   11.12
   0   3  -6  288.45    9.69
   3   0  -6  261.33   10.25
  -3   0  -6  279.07    9.91
   0   3  -6  292.80    9.06
   0  -3  -5  768.92   18.53
   0   3  -5  698.28   16.53
   3   0  -5  751.56   18.23
  -3   0  -5  756.57   17.41
   0   3  -5  734.93   15.09
   0  -3  -4   45.32    4.08
   0   3  -4   40.95    3.64
   3   0  -4   38.10    3.72
  -3   0  -4   42.68    3.75
   0   3  -4   38.59    2.85
   0  -3  -3  211.59    8.95
   0   3  -3  205.86    8.26
   3   0  -3  198.49    8.55
  -3   0  -3  212.47    8.57
   0   3  -3  195.48    6.23
   0   3  -2   93.41    5.51
   0  -3  -2   92.59    5.83
   0   3  -2   89.76    3.78
   3   0  -2   81.12    5.38
  -3   0  -2   78.78    5.17
   0  -3  -1   31.72    3.45
   0   3  -1   29.42    3.17
   0  -3  -1   30.61    1.63
  -3   0  -1   31.56    3.31
   3   0  -1   35.87    3.56
   0  -3  -1   29.16    1.57
   0  -3   0   90.21    5.58
   0   3   0   88.90    5.52
   0  -3   0   83.41    3.08
   3   0   0   85.46    5.36
  -3   0   0   87.43    5.43
   0  -3   0   86.49    3.14
   0   3   1   27.20    3.22
   0  -3   1   23.61    2.81
   0  -3   1   25.58    1.86
  -3   0   1   29.86    3.25
   3   0   1   28.79    3.10
   0  -3   1   25.11    1.85
   0   3   2   82.15    5.48
   0  -3   2   86.08    5.31
   0  -3   2   85.60    3.72
  -3   0   2   69.44    5.10
   3   0   2   74.19    5.01
   0  -3   2   90.66    3.81
   0  -3   3  229.73    8.96
   0   3   3  244.31    9.53
   0  -3   3  227.97    6.81
  -3   0   3  241.31    9.36
   3   0   3  245.34    9.17
   0  -3   3  234.19    6.88
   0  -3   4   42.21    3.75
   0   3   4   48.16    4.24
   0  -3   4   43.85    3.03
  -3   0   4   45.11    4.04
   3   0   4   44.51    3.85
   0  -3   4   45.48    3.13
   0   3   5  784.35   18.82
   0  -3   5  735.24   17.28
   0  -3   5  764.92   15.60
  -3   0   5  791.33   18.69
   0  -3   5  786.33   15.68
   3   0   5  778.54   17.66
   0   3   6  291.51   10.79
   0  -3   6  278.49    9.56
   0  -3   6  274.53    8.84
  -3   0   6  249.12    9.95
   0  -3   6  280.55    8.82
   3   0   6  262.25    9.53
   0  -3   7  617.36   15.06
   0   3   7  631.14   16.82
   0  -3   7  615.58   14.68
  -3   0   7  657.62   16.98
   3   0   7  658.51   15.87
   0  -3   7  614.12   14.59
   0   3   8   23.34    3.16
   0  -3   8   23.59    2.77
   0  -3   8   19.06    2.41
  -3   0   8   23.63    3.03
   3   0   8   22.51    2.74
   0  -3   8   19.35    2.38
   0  -3   9  692.45   15.96
   0   3   9  675.48   17.92
   0  -3   9  695.55   16.88
  -3   0   9  731.10   18.43
   0  -3   9  694.97   16.80
   0  -3  10  604.44   14.47
   0   3  10  600.95   16.78
   0  -3  10  596.81   15.88
  -3   0  10  558.54   16.24
   0  -3  10  617.61   15.95
   0  -3  11  712.32   15.83
   0   3  11  695.86   18.47
   0  -3  11  676.12   17.70
  -3   0  11  744.99   18.94
   0  -3  11  698.79   17.90
   0  -3  11  693.11   12.22
   0  -3  12  151.71    6.60
   0   3  12  146.39    8.12
   0  -3  12  158.89    8.16
  -3   0  12  142.06    7.91
   0  -3  12  152.93    7.94
   0  -3  12  150.69    4.50
   0  -3  13  440.12   11.80
   0   3  13  460.99   14.84
  -3   0  13  494.79   16.07
   0  -3  13  457.32   14.85
   0  -3  13  451.30    8.43
  -3   0  13  473.80   15.07
   0  -3  13  458.78   14.78
   0   3  14  627.57   17.49
   0  -3  14  570.78   13.59
  -3   0  14  558.62   17.70
   0  -3  14  601.62   17.70
  -3   0  14  570.99   17.15
   0  -3  14  581.54    9.52
   0  -3  14  585.15   17.42
   0   3  15  201.45    9.66
   0  -3  15  193.56    7.20
  -3   0  15  202.30   10.35
   0  -3  15  204.63   10.19
  -3   0  15  190.47    9.52
   0  -3  15  186.65    4.11
   0  -3  15  189.69    9.70
   0   3  16   22.38    3.28
   0  -3  16   19.60    2.23
   0  -3  16   23.50    3.61
  -3   0  16   19.57    3.34
  -3   0  16   16.56    2.81
   0  -3  16   22.81    3.56
   0   3  17  331.47   12.77
   0  -3  17  313.34    9.26
  -3   0  17  368.58   14.68
   0  -3  17  330.50   13.88
  -3   0  17  338.56   13.25
   0  -3  17  331.91   13.72
   0   3  18  294.66   12.05
   0  -3  18  292.94    8.69
  -3   0  18  255.01   12.50
   0  -3  18  303.89   13.38
  -3   0  18  252.61   11.58
   0  -3  18  281.88   12.95
   0   3  19  370.15   13.74
   0  -3  19  332.31    9.36
  -3   0  19  366.85   15.32
   0  -3  19  351.60   14.97
  -3   0  19  354.74   13.99
   0  -3  19  341.60   14.58
   0  -3  20   10.59    1.70
   0   3  20   14.78    2.88
   0  -3  20   13.10    3.19
  -3   0  20   16.00    3.13
  -3   0  20   14.41    2.90
   0  -3  20   10.09    2.95
   0  -3  21  465.50   10.83
   0   3  21  453.61   15.77
   0  -3  21  485.65   18.45
  -3   0  21  466.77   18.01
  -3   0  21  487.45   16.96
   0  -3  21  472.23   18.15
   0  -3  22  231.36    7.00
   0   3  22  240.57   11.26
  -3   0  22  224.68   12.60
   0  -3  22  229.86   12.77
  -3   0  22  206.71   10.89
   0  -3  22  236.37   12.97
   0   3  23  403.51   14.93
   0  -3  23  383.15    9.17
  -3   0  23  404.22   17.36
  -3   0  23  389.16   15.35
   0  -3  23  408.66   17.40
   0   3  24   39.93    4.70
   0  -3  24   31.61    2.24
  -3   0  24   41.19    4.97
  -3   0  24   44.04    5.68
   0  -3  24   38.19    5.44
   0   3  25  146.20    9.01
   0  -3  25  152.70    4.73
  -3   0  25  166.92   10.10
   0  -3  25  166.44   11.38
  -3   0  25  161.55   11.08
   0   3  26  137.18    8.73
   0  -3  26  125.93    3.80
  -3   0  26  120.52    8.69
   0  -3  26  143.13   10.86
  -3   0  26  122.29    9.78
   0   3  27  184.43   10.21
  -3   0  27  167.50   10.49
  -3   0  27  182.17   12.20
   0  -3  27  171.23   12.01
   0   3  28   23.89    3.73
  -3   0  28   19.32    3.67
   0  -3  28   24.06    4.81
  -3   0  28   23.80    4.50
   0   3  29   81.43    6.94
  -3   0  29   94.07    7.89
  -3   0  29   93.02    9.07
   0  -3  29   91.61    9.13
   0   3  30  197.45   10.88
  -3   0  30  187.12   11.41
  -3   0  30  181.27   12.93
   0  -3  30  201.53   13.88
   0   3  31   73.27    6.64
   0  -3  31   69.65    8.39
  -3   0  31   66.45    7.78
   0   3  32    3.68    1.75
   0  -3  32    4.66    2.60
  -3   0  32    2.88    1.76
   0   3  33   70.44    6.50
  -3   0  33   73.39    8.66
   0  -3  33   64.13    8.31
   0   3  34   73.37    6.68
   0  -3  34   68.36    8.73
  -3   0  34   70.38    8.48
   0   3  35   64.47    6.36
  -3   0  35   63.89    8.32
   0  -3  35   65.90    8.67
  -3   0  36    2.06    1.17
   0   3  36    1.76    1.47
   0  -3  36    3.91    2.97
  -3   0  36    5.90    3.14
  -3   0  37   79.04    6.96
   0   3  37   71.64    6.65
  -3   0  37   81.54    9.83
   0  -3  37   77.23    9.83
   0  -3  38   59.32    8.71
  -3   0  38   54.54    8.07
  -3   0  39   78.94    9.87
   0  -3  39   80.86   10.31
  -3   0  40    3.17    1.71
   0  -3  40    3.36    2.72
   0  -3  41   50.86    8.65
  -3   0  41   37.68    7.14
  -3   0  42   67.88    9.60
   1  -3 -46   30.93    6.87
   1  -3 -45    9.71    3.49
   1  -3 -44   13.39    4.16
   1  -3 -43   23.09    5.15
   1  -3 -42   55.47    8.10
  -3  -1 -42   50.01    8.14
   1  -3 -41   70.18    8.98
  -1   3 -41   55.59    8.83
  -3  -1 -41   58.91    9.17
   1  -3 -40   17.33    4.36
  -1   3 -40   19.90    5.54
  -3  -1 -40   26.78    5.78
   1  -3 -39   87.10    9.49
  -1   3 -39   93.96   11.11
  -3  -1 -39   87.75   10.47
   1  -3 -38   74.51    8.61
  -3  -1 -38   78.03    9.72
  -1   3 -38   77.10   10.10
   1  -3 -37  115.73   10.55
  -1   3 -37  108.58   11.71
  -3  -1 -37   96.34   10.64
  -1   3 -36   22.43    5.12
  -3  -1 -36   20.98    4.95
   1  -3 -36   28.45    5.22
  -3  -1 -35   97.31   10.29
   1  -3 -35   90.25    8.89
  -1   3 -35  113.21   11.44
   1  -3 -34   81.58    8.35
  -3  -1 -34   79.40    9.18
  -1   3 -34   76.02    9.24
   3   1 -33  135.24    9.43
   1  -3 -33  129.19   10.24
  -3  -1 -33  131.80   11.60
  -1   3 -33  142.12   12.45
   3   1 -32   63.87    6.41
   1  -3 -32   68.30    7.26
  -1   3 -32   72.32    8.70
  -3  -1 -32   75.65    8.61
   3   1 -31   99.23    7.95
   1  -3 -31   97.18    8.50
  -3  -1 -31  117.64   10.59
  -1   3 -31  113.60   10.61
  -3  -1 -30  114.10    5.57
   3   1 -30  116.85    8.51
  -3  -1 -30  120.45   10.52
   1  -3 -30  135.71    9.79
  -1   3 -30  126.22   10.94
  -3  -1 -29   18.83    2.30
   3   1 -29   17.91    3.38
  -3  -1 -29   20.91    4.54
   1  -3 -29   23.04    4.07
  -1   3 -29   18.44    4.40
  -3  -1 -28  102.36    5.48
   3   1 -28   92.04    7.36
   1  -3 -28  101.55    8.07
  -3  -1 -28  107.50    9.69
  -1   3 -28   96.48    9.27
  -3  -1 -27   55.99    4.12
   3   1 -27   57.38    5.73
   1  -3 -27   58.34    5.97
  -3  -1 -27   63.83    7.35
  -1   3 -27   56.94    7.11
  -3  -1 -26  184.51    7.64
   3   1 -26  174.53   10.01
  -3  -1 -26  172.93   11.78
   1  -3 -26  186.08   10.41
  -1   3 -26  171.95   11.95
  -3  -1 -25  135.96    6.57
   3   1 -25  132.93    8.67
  -3  -1 -25  133.19   10.17
   1  -3 -25  140.92    8.84
  -1   3 -25  132.21   10.27
  -3  -1 -24   71.67    4.78
   3   1 -24   58.05    5.63
  -3  -1 -24   75.66    7.45
   1  -3 -24   60.80    5.67
  -1   3 -24   65.79    7.08
  -3  -1 -23  308.08   10.37
  -3  -1 -23  326.28   15.51
   1  -3 -23  309.18   12.62
  -1   3 -23  333.63   15.77
   3   1 -23  307.21   13.05
   1  -3 -23  319.79   15.07
  -3  -1 -22  280.53    9.86
   1  -3 -22  262.45   11.22
  -3  -1 -22  278.53   14.05
  -1   3 -22  249.99   13.29
   1  -3 -22  284.07   14.01
   3   1 -22  272.91   12.04
  -1   3 -22  251.32   13.51
  -3  -1 -22  282.71   14.17
  -3  -1 -21  242.96    9.26
   1  -3 -21  282.14   11.24
  -1   3 -21  269.73   13.54
  -3  -1 -21  252.00   13.07
   3   1 -21  239.70   11.22
   1  -3 -21  285.21   13.84
  -3  -1 -21  249.86   13.13
  -1   3 -21  260.94   13.49
  -3  -1 -20   87.99    5.36
   1  -3 -20   75.33    5.57
  -1   3 -20   76.45    7.00
  -3  -1 -20   80.40    7.25
   3   1 -20   80.91    6.29
   1  -3 -20   80.26    7.21
  -1   3 -20   74.16    3.32
  -1   3 -20   77.91    7.07
  -3  -1 -20   92.13    7.72
  -3  -1 -19  422.32   12.65
  -1   3 -19  447.43    9.63
  -1   3 -19  456.65   17.21
   1  -3 -19  423.88   13.33
  -3  -1 -19  423.88   16.64
   3   1 -19  413.65   14.64
   1  -3 -19  432.83   16.87
  -3  -1 -19  436.27   17.01
  -1   3 -19  448.70   17.15
  -1   3 -18  312.33    8.13
  -3  -1 -18  326.22   10.87
  -1   3 -18  314.31   13.79
   1  -3 -18  328.92   11.14
   3   1 -18  325.99   12.68
   1  -3 -18  331.91   14.36
  -1   3 -18  305.71   13.70
  -1   3 -17  304.96    8.30
  -3  -1 -17  275.98   10.04
   1  -3 -17  328.31   10.67
  -1   3 -17  303.51   13.22
   1  -3 -17  313.10   13.76
   3   1 -17  285.88   11.78
  -1   3 -17  310.40   13.53
  -1   3 -16  343.74    9.19
  -3  -1 -16  360.09   11.48
   1  -3 -16  350.59   10.75
  -1   3 -16  358.20   13.99
   1  -3 -16  348.57   14.39
   3   1 -16  340.78   12.70
  -1   3 -16  348.35   13.95
  -1   3 -15  370.86    9.66
  -3  -1 -15  340.19   11.28
   1  -3 -15  352.39   10.38
  -1   3 -15  375.72   14.08
   1  -3 -15  346.14   14.15
   3   1 -15  336.67   12.62
  -3  -1 -15  348.67   12.60
  -1   3 -15  374.02   14.12
  -3  -1 -14  539.42   14.67
  -1   3 -14  544.28   12.56
   1  -3 -14  571.91   13.11
  -1   3 -14  568.03   17.12
   3   1 -14  541.87   16.24
   1  -3 -14  557.76   18.01
  -3  -1 -14  546.56   16.06
  -1   3 -14  555.44   17.14
  -3  -1 -13  351.64   11.43
  -1   3 -13  366.87   10.03
  -1   3 -13  377.05   13.36
   3   1 -13  352.60   12.66
   1  -3 -13  378.89   14.34
  -1   3 -13  380.73   13.56
  -3  -1 -13  341.80   12.25
  -1   3 -12  242.89    8.17
  -3  -1 -12  268.10    9.85
  -1   3 -12  251.82   10.45
   3   1 -12  261.59   10.60
   1  -3 -12  249.13   11.41
  -3  -1 -12  273.18   10.65
  -1   3 -12  261.23   10.76
  -3  -1 -11  150.99    7.29
  -1   3 -11  165.75    6.70
  -1   3 -11  169.89    8.21
   1  -3 -11  148.34    8.61
   3   1 -11  152.73    7.99
  -1   3 -11  168.80    8.27
  -3  -1 -11  155.48    7.93
  -3  -1 -10  778.90   18.21
  -1   3 -10  758.90   16.42
  -1   3 -10  780.73   18.54
   1  -3 -10  758.92   20.40
   3   1 -10  785.07   19.40
  -1   3 -10  755.25   18.44
  -3  -1 -10  779.95   19.14
  -1   3  -9  377.76   10.95
  -3  -1  -9  402.20   12.38
  -1   3  -9  380.55   11.91
   3   1  -9  389.58   12.92
   1  -3  -9  412.15   14.17
  -3  -1  -9  383.41   12.72
  -1   3  -9  390.36   12.20
  -1   3  -8   64.51    4.33
  -3  -1  -8   77.30    5.17
  -1   3  -8   66.25    4.58
   1  -3  -8   64.24    5.38
   3   1  -8   77.77    5.49
  -1   3  -8   57.81    4.27
  -3  -1  -8   68.33    5.12
  -1   3  -7  460.04   12.43
  -3  -1  -7  427.88   13.06
  -1   3  -7  472.44   12.38
   1  -3  -7  441.42   14.21
   3   1  -7  440.85   13.66
  -3  -1  -7  434.23   13.54
  -1   3  -7  454.81   12.32
  -1   3  -6  386.71   11.54
  -1   3  -6  393.42   10.89
   1  -3  -6  406.16   13.53
   1  -3  -6  422.66   13.55
   3   1  -6  424.33   13.22
  -3  -1  -6  422.81   12.81
  -1   3  -6  399.36   11.00
  -3  -1  -6  426.53   13.16
  -1   3  -5  371.20   11.42
  -1   3  -5  387.44   10.33
   1  -3  -5  424.13   13.58
   1  -3  -5  410.36   13.13
  -3  -1  -5  386.19   12.52
  -3  -1  -5  376.82   12.14
   3   1  -5  402.24   12.82
  -1   3  -5  377.35   10.25
  -1   3  -4  100.15    5.71
  -1   3  -4  103.09    4.74
   1  -3  -4   93.23    6.11
   1  -3  -4  100.94    6.12
  -3  -1  -4  105.70    6.14
  -3  -1  -4  108.07    6.39
   3   1  -4  110.30    6.42
  -1   3  -4  101.77    4.71
  -1   3  -3  266.21    9.62
   1  -3  -3  249.72   10.09
  -1   3  -3  267.45    7.48
   1  -3  -3  272.30   10.03
   3   1  -3  247.80    9.87
  -1   3  -3  264.78    7.47
  -3  -1  -3  249.27    9.85
  -1   3  -2   82.77    5.32
   1  -3  -2   84.79    5.73
  -1   3  -2   83.13    3.71
   1  -3  -2   93.21    5.57
   3   1  -2   90.43    5.79
  -1   3  -2   83.07    3.74
  -3  -1  -2   82.82    5.51
   1  -3  -1  168.91    8.04
  -1   3  -1  170.68    7.80
  -1   3  -1  169.77    5.07
  -3  -1  -1  178.52    8.12
   1  -3  -1  181.41    7.72
   3   1  -1  172.60    7.97
  -1   3  -1  164.17    5.02
  -1   3   0  411.92   12.62
   1  -3   0  411.73   12.78
  -1   3   0  400.02    7.88
   1  -3   0  399.08   11.69
  -3  -1   0  409.60   12.87
  -1   3   0  388.96    7.82
   3   1   0  408.47   12.73
  -1   3   1  167.82    7.86
   1  -3   1  170.05    7.75
  -1   3   1  158.57    4.02
   1  -3   1  167.01    7.08
  -3  -1   1  162.78    7.82
  -1   3   1  158.37    4.04
   3   1   1  159.31    7.78
  -1   3   2   82.05    5.60
   1  -3   2   94.81    5.72
  -3  -1   2   92.19    5.88
   1  -3   2   89.37    4.96
   3   1   2   91.28    5.87
  -1   3   3  261.46   10.19
   1  -3   3  278.25    9.90
  -3  -1   3  249.54    9.90
   1  -3   3  265.24    8.58
   3   1   3  248.36    9.85
   1  -3   4  110.92    6.08
  -1   3   4  102.93    6.46
   1  -3   4  112.46    5.28
  -3  -1   4  126.88    6.87
  -1   3   5  419.62   13.28
   1  -3   5  373.17   11.49
  -3  -1   5  385.84   12.51
   1  -3   5  377.18    9.95
  -1   3   6  420.73   13.60
   1  -3   6  388.55   11.71
   1  -3   6  400.33   10.01
  -3  -1   6  448.78   13.54
  -1   3   7  418.75   13.67
   1  -3   7  444.39   12.25
  -1   3   7  398.84    6.81
   1  -3   7  436.70    9.99
  -3  -1   7  432.11   13.35
  -1   3   8   81.14    5.94
   1  -3   8   74.30    4.67
   1  -3   8   73.29    4.80
  -1   3   8   71.00    2.65
  -3  -1   8   78.02    5.52
   1  -3   8   71.78    3.55
  -1   3   8   73.18    2.68
   1  -3   8   71.99    4.76
  -1   3   9  398.37   13.44
   1  -3   9  363.97   10.77
  -1   3   9  367.45    7.59
   1  -3   9  359.74   11.62
  -3  -1   9  375.95   12.54
   1  -3   9  363.22    8.34
  -1   3   9  376.15    7.63
   1  -3   9  365.76   11.62
   1  -3  10  748.24   16.34
  -1   3  10  772.27   19.80
   1  -3  10  769.49   18.47
  -1   3  10  738.37   12.94
  -3  -1  10  779.11   19.05
   1  -3  10  747.23   12.73
  -1   3  10  738.13   12.93
   1  -3  10  778.88   18.43
   1  -3  11  167.36    6.78
  -1   3  11  156.64    8.57
  -1   3  11  145.00    5.13
   1  -3  11  175.09    8.40
  -3  -1  11  162.81    8.13
   1  -3  11  164.09    4.49
   1  -3  11  168.91    8.17
  -1   3  11  150.57    5.24
  -1   3  12  248.54   10.80
   1  -3  12  228.49    9.96
  -1   3  12  218.45    6.84
  -3  -1  12  255.87   11.38
   1  -3  12  223.60    7.87
   1  -3  12  224.85    4.88
  -3  -1  12  260.99   10.43
  -1   3  12  234.81    7.05
   1  -3  12  228.89    9.96
  -1   3  13  400.22   14.04
   1  -3  13  382.68   13.47
  -3  -1  13  369.70   14.37
   1  -3  13  377.11   10.35
  -1   3  13  381.11    9.85
  -3  -1  13  371.84   12.92
  -1   3  13  380.39    9.83
   1  -3  13  376.56   13.43
  -1   3  14  560.74   17.15
   1  -3  14  540.53   16.76
  -1   3  14  512.65   12.45
  -3  -1  14  584.04   18.45
  -3  -1  14  571.12   16.47
  -1   3  14  534.69   12.67
   1  -3  14  570.74   17.21
  -1   3  15  350.08   13.42
  -1   3  15  338.58   10.14
  -3  -1  15  347.55   14.35
   1  -3  15  372.38   14.01
  -3  -1  15  345.41   12.72
   1  -3  15  380.77   14.12
  -1   3  15  357.77   10.36
  -1   3  16  351.32   13.57
   1  -3  16  363.14   14.21
  -1   3  16  332.02   10.47
  -3  -1  16  382.77   15.18
  -3  -1  16  367.24   13.21
  -1   3  16  350.34   10.74
   1  -3  16  365.55   14.19
  -1   3  17  337.92   13.31
   1  -3  17  335.67   13.94
  -3  -1  17  285.97   13.55
  -1   3  17  327.38   10.66
  -3  -1  17  297.42   12.02
  -1   3  17  323.51   10.61
   1  -3  17  325.66   13.63
  -1   3  18  325.79   13.20
   1  -3  18  311.64   13.76
  -1   3  18  305.00   10.68
  -3  -1  18  338.17   14.82
  -3  -1  18  335.24   12.86
   1  -3  18  310.50   13.73
  -1   3  18  309.69   10.78
  -1   3  19  404.49   15.04
   1  -3  19  448.29   17.03
  -1   3  19  404.45   12.98
  -3  -1  19  430.36   17.21
  -3  -1  19  413.48   14.60
  -1   3  19  409.94   13.04
   1  -3  19  446.80   16.92
  -1   3  20   71.18    6.25
   1  -3  20   79.05    7.16
  -1   3  20   71.23    5.39
  -3  -1  20   83.68    7.53
  -3  -1  20   84.03    6.40
   1  -3  20   74.54    7.16
  -1   3  20   70.76    5.36
  -1   3  21  287.44   12.67
   1  -3  21  281.78   13.93
  -1   3  21  263.32   10.94
  -3  -1  21  258.28   13.55
  -3  -1  21  260.33   11.66
  -1   3  21  264.18   10.88
   1  -3  21  265.22   13.50
  -1   3  22  252.75   12.00
   1  -3  22  250.86   13.51
  -1   3  22  249.78   10.97
  -3  -1  22  275.21   12.02
   1  -3  22  251.22   13.46
  -1   3  22  247.57   10.80
  -1   3  23  301.24   13.30
  -1   3  23  296.40   12.37
  -3  -1  23  307.55   13.05
   1  -3  23  312.36   15.41
  -1   3  23  310.52   12.51
  -1   3  24   58.33    5.87
  -1   3  24   47.46    4.98
  -3  -1  24   58.10    5.54
   1  -3  24   57.10    6.67
  -1   3  24   58.88    5.52
  -3  -1  24   60.43    6.91
  -1   3  25  123.01    8.65
  -1   3  25  130.82    8.45
  -3  -1  25  125.74    8.35
  -1   3  25  134.40    8.53
  -3  -1  25  124.39    9.96
   1  -3  25  135.40   10.39
  -1   3  26  169.27   10.10
  -1   3  26  170.95   10.06
  -3  -1  26  168.37    9.86
   1  -3  26  164.21   11.69
  -3  -1  26  169.98   11.94
  -1   3  26  165.73    9.84
  -1   3  27   58.58    6.07
  -1   3  27   61.79    6.22
  -3  -1  27   55.09    5.70
  -1   3  27   58.62    5.92
  -3  -1  27   57.95    7.11
   1  -3  27   74.80    8.03
  -1   3  28   94.15    7.67
  -1   3  28   94.60    7.79
  -3  -1  28   95.34    7.54
  -3  -1  28   97.98    9.40
   1  -3  28   93.84    9.16
  -1   3  28   97.18    7.92
  -1   3  29   23.44    3.91
  -1   3  29   20.09    3.78
  -3  -1  29   20.31    3.58
  -1   3  29   21.24    3.80
  -3  -1  29   17.37    4.36
   1  -3  29   16.90    4.39
  -1   3  30  124.36    8.97
  -1   3  30  125.83    9.45
  -3  -1  30  122.43    8.72
  -3  -1  30  113.43   10.52
   1  -3  30  127.76   11.10
  -1   3  30  127.31    9.44
  -1   3  31  108.75    8.43
  -3  -1  31  124.63    8.91
  -3  -1  31  120.20   10.93
   1  -3  31  117.10   10.89
  -1   3  31  108.93    8.95
  -1   3  32   62.81    6.45
  -3  -1  32   70.64    6.79
  -3  -1  32   75.38    8.75
   1  -3  32   73.13    8.87
  -1   3  32   67.54    7.28
  -1   3  33  147.90    9.97
  -3  -1  33  144.31   12.48
   1  -3  33  144.56   12.46
  -1   3  33  140.72   10.64
  -1   3  34   86.41    7.62
  -3  -1  34   77.78    9.35
  -1   3  34   79.51    8.24
  -1   3  35   92.23    8.00
  -1   3  35   83.13    8.58
  -3  -1  35   99.19   10.63
  -1   3  36   27.18    4.35
  -3  -1  36   33.08    6.34
  -1   3  37  114.16    8.86
  -3  -1  37   88.69   10.31
  -1   3  38   82.09    7.59
  -3  -1  38   84.13   10.23
  -3  -1  39   90.68   10.68
  -3  -1  40   19.76    5.19
  -3  -1  41   51.47    8.44
  -3  -2 -43   69.38    9.74
  -3  -2 -42    3.83    2.71
  -3  -2 -41   89.30   10.74
  -2   3 -40    6.42    3.92
  -3  -2 -40    0.92    2.00
  -3  -2 -39   90.25   10.60
  -2   3 -39   89.46   11.03
  -3  -2 -38    1.35    2.66
  -2   3 -38    1.23    2.05
  -3  -2 -37   89.92   10.07
  -2   3 -37   96.20   12.87
  -3  -2 -36    4.14    2.51
  -2   3 -36    3.94    2.39
  -3  -2 -35  131.22   11.90
  -2   3 -35  128.81   12.32
  -3  -2 -34   39.17    6.46
  -2   3 -34   43.81    7.19
  -3  -2 -33  140.38   11.80
  -2   3 -33  131.28   12.09
  -3  -2 -32   11.30    3.42
  -2   3 -32   14.07    4.04
   3   2 -32   14.07    2.98
   3   2 -31   69.06    6.34
  -2   3 -31   69.87    8.49
  -3  -2 -31   69.18    8.04
  -3  -2 -30   82.87    5.97
   3   2 -30   91.82    7.15
  -2   3 -30   97.17    9.97
  -3  -2 -30   88.79    8.89
  -3  -2 -29  127.30    7.51
  -3  -2 -29  115.14    9.98
  -2   3 -29  131.15   11.30
   3   2 -29  125.08    8.36
  -2   3 -28    5.81    2.81
  -3  -2 -28    5.09    1.58
  -3  -2 -28    5.67    2.42
   3   2 -28    2.49    1.44
  -3  -2 -27   88.97    6.24
   3   2 -27   90.10    6.89
  -2   3 -27   90.12    9.00
  -3  -2 -27   89.15    8.47
  -3  -2 -26   73.74    5.70
   3   2 -26   62.33    5.82
  -3  -2 -26   75.45    7.71
  -2   3 -26   93.98    9.08
  -3  -2 -25  332.37   12.55
  -3  -2 -25  339.58   16.15
  -2   3 -25  352.20   17.25
   3   2 -25  321.45   13.24
  -2   3 -24   11.01    3.22
  -3  -2 -24    9.08    2.74
  -3  -2 -24    9.30    2.06
   3   2 -24   10.98    2.57
  -3  -2 -23  538.32   16.42
  -3  -2 -23  573.24   20.79
  -2   3 -23  589.90   21.68
   3   2 -23  526.63   17.08
  -3  -2 -23  557.12   20.50
  -3  -2 -22   10.10    2.72
  -2   3 -22   13.18    3.27
  -2   3 -22   12.57    1.03
  -3  -2 -22    6.76    1.80
  -3  -2 -22   10.63    2.86
   3   2 -22    6.43    2.09
  -3  -2 -21  284.84   11.57
  -2   3 -21  306.03    6.88
  -2   3 -21  291.79   14.52
  -3  -2 -21  294.65   14.01
   3   2 -21  281.32   11.90
  -3  -2 -21  308.92   14.49
  -2   3 -21  298.33   14.77
  -3  -2 -20    2.38    1.28
  -2   3 -20    1.39    0.62
  -2   3 -20   -0.04    0.81
  -3  -2 -20    2.17    1.27
   2  -3 -20    1.52    1.45
   3   2 -20    1.83    1.18
  -2   3 -20    2.13    1.67
  -3  -2 -20    3.16    1.64
  -2   3 -19  456.58   10.18
  -3  -2 -19  431.25   14.38
  -2   3 -19  457.79   17.63
   2  -3 -19  426.24   17.34
   3   2 -19  440.77   14.81
  -2   3 -19  470.10   18.01
  -3  -2 -18   58.43    5.07
  -2   3 -18   74.74    3.93
  -2   3 -18   72.26    6.66
   2  -3 -18   77.72    7.08
  -2   3 -18   74.04    6.78
   3   2 -18   57.48    5.11
  -2   3 -17   77.76    4.17
  -3  -2 -17   76.83    5.75
  -2   3 -17   72.69    6.50
   2  -3 -17   85.30    7.31
  -2   3 -17   77.39    6.75
   3   2 -17   79.75    5.98
  -3  -2 -16   13.24    2.48
  -2   3 -16   17.60    2.06
  -2   3 -16   22.36    3.64
   2  -3 -16   17.93    3.41
  -2   3 -16   16.65    3.12
   3   2 -16   14.25    2.61
  -3  -2 -15   15.40    2.67
  -2   3 -15    9.86    1.62
  -2   3 -15   10.09    2.36
   2  -3 -15    7.56    2.36
  -2   3 -15   11.38    2.51
   3   2 -15    9.66    2.08
  -2   3 -14   47.42    3.59
  -3  -2 -14   48.20    4.59
  -2   3 -14   53.68    5.22
   2  -3 -14   51.13    5.39
  -2   3 -14   56.00    5.30
   3   2 -14   39.29    4.17
  -3  -2 -13  562.56   16.57
  -2   3 -13  556.45   13.75
  -2   3 -13  584.06   17.62
   2  -3 -13  580.36   18.80
   3   2 -13  562.35   16.44
  -2   3 -13  591.31   17.83
  -2   3 -12   79.36    4.76
  -3  -2 -12   55.60    4.91
  -2   3 -12   78.05    6.00
   2  -3 -12   85.04    6.79
   3   2 -12   67.31    5.33
  -2   3 -12   79.71    6.09
  -2   3 -11  741.13   16.82
  -3  -2 -11  760.00   19.67
  -2   3 -11  772.53   19.76
   2  -3 -11  729.77   21.13
   3   2 -11  779.23   19.53
  -2   3 -11  768.07   19.84
  -3  -2 -10   53.38    4.82
  -2   3 -10   53.73    4.05
  -2   3 -10   58.32    4.88
   2  -3 -10   51.30    5.28
  -2   3 -10   56.67    4.85
   3   2 -10   46.86    4.48
  -3  -2  -9  381.88   13.25
  -2   3  -9  349.56   11.09
  -2   3  -9  362.25   12.27
   2  -3  -9  385.66   14.21
  -2   3  -9  341.51   12.03
   3   2  -9  363.33   12.58
  -3  -2  -8   32.73    3.75
  -2   3  -8   37.74    3.54
  -2   3  -8   35.58    3.57
   2  -3  -8   50.61    5.03
   3   2  -8   32.17    3.66
  -3  -2  -8   26.03    3.52
  -2   3  -8   38.60    3.75
  -3  -2  -7 1292.02   26.96
  -2   3  -7 1259.58   24.67
  -2   3  -7 1280.34   24.78
   2  -3  -7 1273.85   27.69
  -2   3  -7 1291.34   22.25
  -3  -2  -7 1275.93   27.18
   3   2  -7 1280.07   26.35
  -2   3  -7 1273.86   24.78
  -2   3  -6   73.92    5.09
  -3  -2  -6   51.81    4.76
  -2   3  -6   71.63    4.73
   2  -3  -6   67.45    5.53
  -2   3  -6   77.82    4.58
   3   2  -6   42.78    4.27
  -3  -2  -6   49.24    4.68
  -2   3  -6   69.48    4.71
  -2   3  -5  420.37   12.93
  -3  -2  -5  420.02   14.03
  -2   3  -5  416.79   11.82
   2  -3  -5  446.90   14.40
  -2   3  -5  422.65   11.48
  -3  -2  -5  435.03   14.22
   3   2  -5  427.71   13.77
  -2   3  -5  400.83   11.67
  -3  -2  -4   17.65    2.86
  -2   3  -4   13.47    2.33
  -2   3  -4   11.65    1.86
   2  -3  -4   20.23    2.89
  -2   3  -4   18.43    2.46
  -3  -2  -4   15.82    2.52
   3   2  -4   21.61    2.99
  -2   3  -4   13.08    1.92
  -3  -2  -3  645.84   17.80
  -2   3  -3  637.31   16.74
   2  -3  -3  626.47   17.02
  -2   3  -3  648.07   15.43
  -3  -2  -3  654.80   17.68
   3   2  -3  637.16   17.24
  -3  -2  -2  194.00    9.33
  -2   3  -2  206.25    9.06
  -2   3  -2  214.48    8.43
   2  -3  -2  233.38    9.58
  -3  -2  -2  195.85    9.25
  -2   3  -1  143.98    7.58
  -3  -2  -1  167.88    8.54
   2  -3  -1  152.50    7.56
  -2   3  -1  144.11    7.04
  -3  -2  -1  167.79    8.48
  -3  -2   0   19.10    3.00
  -2   3   0   19.65    2.85
  -2   3   0   24.73    3.05
   2  -3   0   22.43    2.83
  -3  -2   0   14.12    2.50
  -3  -2   1  178.70    8.86
  -2   3   1  169.46    8.43
   2  -3   1  158.18    7.41
  -2   3   1  173.01    8.06
  -3  -2   1  192.35    8.91
  -2   3   2  210.22    9.54
  -3  -2   2  195.28    9.29
  -2   3   2  225.80    9.47
   2  -3   2  198.60    8.16
  -3  -2   2  192.04    9.00
  -3  -2   3  650.53   18.05
  -2   3   3  656.90   18.00
   2  -3   3  651.80   15.54
  -2   3   3  644.13   17.27
  -3  -2   3  662.77   17.64
  -3  -2   4   16.85    2.76
  -2   3   4   18.79    3.26
  -2   3   4   13.41    2.50
   2  -3   4   12.44    1.91
  -3  -2   4   13.33    2.26
  -2   3   5  457.71   14.91
  -3  -2   5  450.62   14.19
   2  -3   5  426.71   11.64
  -3  -2   5  449.47   14.56
  -2   3   6   87.32    6.54
  -3  -2   6   53.00    4.76
   2  -3   6   75.25    4.39
  -3  -2   6   53.30    4.89
  -2   3   7 1259.10   27.57
  -3  -2   7 1317.25   26.65
   2  -3   7 1247.89   22.02
  -3  -2   7 1326.56   27.52
  -2   3   8   52.53    5.33
  -2   3   8   46.82    2.94
  -3  -2   8   30.42    3.58
   2  -3   8   36.65    2.91
  -3  -2   8   33.40    3.89
  -2   3   9  402.37   14.30
  -2   3   9  385.64    9.53
  -3  -2   9  385.33   12.95
   2  -3   9  348.21    9.30
  -3  -2   9  385.17   13.54
  -2   3  10   61.25    5.64
  -2   3  10   54.73    3.44
  -3  -2  10   56.07    4.78
   2  -3  10   59.37    3.41
  -3  -2  10   60.01    5.19
   3   2  10   61.78    5.11
  -2   3  11  758.47   20.97
  -2   3  11  714.90   15.14
  -3  -2  11  779.57   21.68
   2  -3  11  752.03   13.95
  -3  -2  11  789.05   19.66
  -3  -2  11  790.24   20.35
   3   2  11  777.95   19.52
  -2   3  12   80.52    6.44
  -2   3  12   76.73    4.37
  -3  -2  12   77.51    6.50
  -3  -2  12   68.34    5.42
   2  -3  12   80.15    3.54
  -3  -2  12   71.77    5.80
   3   2  12   67.31    5.36
  -2   3  13  571.25   18.10
  -3  -2  13  561.36   18.48
  -2   3  13  553.08   13.41
   2  -3  13  547.88   10.28
  -3  -2  13  552.20   16.15
  -3  -2  13  555.59   16.85
   3   2  13  554.07   16.26
  -2   3  14   51.88    5.24
  -2   3  14   46.71    3.67
  -3  -2  14   49.68    5.43
  -3  -2  14   43.33    4.26
  -3  -2  14   52.53    4.94
   3   2  14   49.94    4.62
  -2   3  14   50.23    3.83
   2  -3  14   55.35    2.47
   3   2  15   14.01    2.49
  -3  -2  15   13.28    2.56
  -3  -2  15   12.99    2.88
  -2   3  15   10.61    2.51
  -2   3  15    7.59    1.55
  -3  -2  15    8.58    2.08
   2  -3  15    9.42    0.85
  -2   3  15    6.85    1.51
  -3  -2  16   16.19    2.83
   3   2  16   16.50    2.74
  -3  -2  16   13.38    2.85
  -2   3  16   15.52    2.31
  -2   3  16   20.25    3.35
  -3  -2  16   14.36    2.54
  -2   3  16   15.64    2.30
  -2   3  17   85.28    6.96
  -2   3  17   89.64    5.68
  -3  -2  17   90.01    7.64
  -3  -2  17   90.09    6.29
   3   2  17   86.61    6.09
  -2   3  17   86.67    5.58
  -3  -2  17   89.25    6.52
  -2   3  18   69.18    6.33
  -2   3  18   66.32    5.05
  -3  -2  18   58.94    6.38
  -3  -2  18   60.41    5.23
  -2   3  18   76.96    5.50
  -3  -2  18   58.61    5.35
   3   2  18   62.77    5.24
  -2   3  19  455.32   16.86
  -2   3  19  423.86   13.84
  -3  -2  19  447.02   18.25
  -3  -2  19  467.03   15.22
  -3  -2  19  434.04   15.10
  -2   3  19  440.42   14.08
   3   2  19  441.20   14.35
  -3  -2  20    4.45    1.85
   3   2  20    6.53    2.00
  -2   3  20    0.84    0.91
  -2   3  20    1.74    1.52
  -3  -2  20    4.11    1.51
  -2   3  20    1.05    1.05
  -2   3  21  299.64   13.71
  -2   3  21  290.37   11.92
  -3  -2  21  288.08   12.03
  -3  -2  21  297.80   12.39
   3   2  21  301.76   11.62
  -2   3  21  315.37   12.33
  -3  -2  22   11.96    2.84
   3   2  22   15.18    2.84
  -2   3  22   12.20    2.50
  -2   3  22   16.17    3.45
  -3  -2  22   10.63    2.51
  -2   3  22   13.10    2.60
  -2   3  23  506.21   18.51
  -2   3  23  496.60   16.85
  -3  -2  23  556.73   17.35
  -3  -2  23  533.09   17.15
   3   2  23  538.52   16.03
  -2   3  23  504.56   16.90
  -3  -2  24   11.67    2.71
  -2   3  24    8.83    2.76
  -2   3  24    8.37    2.38
  -3  -2  24   11.45    2.47
  -2   3  24   15.82    3.04
  -3  -2  24   10.31    3.14
  -2   3  25  330.70   14.92
  -2   3  25  319.94   13.87
  -3  -2  25  326.65   13.28
  -3  -2  25  316.70   13.15
  -2   3  25  336.45   14.05
  -3  -2  25  328.39   17.00
  -2   3  26   77.98    7.23
  -2   3  26   76.47    6.82
  -3  -2  26   70.20    6.08
  -3  -2  26   68.67    6.02
  -3  -2  26   57.99    7.01
  -2   3  26   74.11    6.63
  -2   3  27   78.61    7.30
  -2   3  27   75.50    6.97
  -3  -2  27   92.30    7.01
  -3  -2  27   88.63    9.00
  -3  -2  27   90.31    6.86
  -2   3  27   76.05    6.91
  -3  -2  28    4.82    2.02
  -2   3  28    4.38    2.10
  -2   3  28    4.20    1.84
  -3  -2  28    4.46    1.79
  -2   3  28    4.35    1.81
  -3  -2  28    4.40    2.21
  -2   3  29  124.07    9.38
  -2   3  29  108.67    8.69
  -3  -2  29  127.10    8.39
  -2   3  29  127.46    9.31
  -3  -2  29  118.01   10.69
  -3  -2  29  116.11    7.83
  -2   3  30   87.82    7.82
  -3  -2  30   85.20    6.93
  -3  -2  30   82.26    6.71
  -3  -2  30   82.98    9.03
  -2   3  30   91.37    8.15
  -2   3  31   68.48    7.15
  -3  -2  31   73.02    6.50
  -2   3  31   63.72    6.89
  -3  -2  31   65.74    8.41
  -3  -2  31   65.20    5.83
  -2   3  32   12.19    3.28
  -3  -2  32   11.16    2.76
  -2   3  32   10.13    2.99
  -3  -2  32   11.39    3.61
  -2   3  33  135.07   10.09
  -3  -2  33  134.96    8.99
  -3  -2  33  127.02   11.95
  -2   3  33  140.69   10.68
  -2   3  34   32.27    5.08
  -3  -2  34   34.59    4.47
  -2   3  34   34.06    5.38
  -3  -2  34   39.78    6.67
  -2   3  35  122.34    9.98
  -3  -2  35  131.62   12.52
  -2   3  35  117.90   10.25
  -2   3  36    0.29    1.19
  -2   3  36    2.65    2.23
  -3  -2  36    1.02    1.78
  -2   3  37   96.15    8.70
  -3  -2  37   91.03   10.87
  -2   3  37   82.38    9.04
  -2   3  38    2.03    1.76
  -3  -2  38    1.15    1.79
  -2   3  38    0.78    1.20
  -2   3  39   87.42    8.46
  -2   3  39   72.09    8.72
  -3  -2  39   79.48   10.37
  -3  -2  40    7.00    3.88
  -2   3  40    3.23    2.03
  -2   3  41   84.26    9.70
  -2   3  42    3.91    2.45
  -2   3  43   50.03    7.66
  -2   3  44    7.40    3.33
  -3  -3 -43   11.57    3.89
  -3  -3 -42   43.64    7.50
  -3  -3 -41   14.78    4.44
  -3  -3 -40   22.73    5.36
  -3  -3 -39   62.23    8.58
  -3   3 -39   58.17    9.03
  -3  -3 -38   35.00    6.38
  -3   3 -38   44.29    7.72
  -3   3 -37   37.42    7.12
  -3  -3 -37   24.96    5.07
  -3  -3 -36   42.57    6.93
  -3   3 -36   36.69    6.93
  -3   3 -35   51.62    8.18
  -3  -3 -35   38.50    6.33
  -3  -3 -34   88.66    9.42
  -3   3 -34   88.00   10.35
  -3  -3 -33   49.75    7.07
  -3   3 -33   55.97    8.14
  -3  -3 -32   29.95    5.35
  -3   3 -32   23.24    5.05
  -3  -3 -31   12.65    3.40
  -3   3 -31   19.77    4.81
  -3  -3 -30  161.83   12.01
  -3   3 -30  168.62   13.21
  -3  -3 -30  147.72    9.36
  -3   3 -29   60.47    7.91
  -3  -3 -29   63.94    7.31
  -3  -3 -29   67.77    6.30
   3   3 -29   55.40    5.32
  -3  -3 -28   54.78    6.62
  -3   3 -28   50.77    7.09
  -3  -3 -28   50.95    5.47
   3   3 -28   50.90    5.11
  -3   3 -27  191.48   13.49
  -3  -3 -27  174.66   11.79
  -3  -3 -27  165.18    9.84
   3   3 -27  166.61    9.23
  -3  -3 -26  225.43   13.15
  -3   3 -26  227.24   14.46
  -3  -3 -26  237.62   11.85
   3   3 -26  200.06   10.08
  -3  -3 -25  120.83    9.38
  -3   3 -25  125.00   10.50
  -3  -3 -25  112.65    8.07
   3   3 -25   97.29    6.92
  -3  -3 -24   92.63    8.17
  -3   3 -24   89.37    8.76
  -3  -3 -24   84.95    7.00
  -3   3 -24   69.94    2.50
   3   3 -24   88.65    6.53
  -3  -3 -23  145.21   10.11
  -3   3 -23  159.52   11.49
  -3   3 -23  157.04    4.91
  -3  -3 -23  141.93    9.07
   3   3 -23  145.74    8.49
  -3  -3 -23  150.35   10.24
  -3   3 -22  107.48    9.23
  -3  -3 -22  109.56    8.53
  -3   3 -22  115.55    4.67
  -3  -3 -22  120.21    8.29
   3   3 -22  100.68    6.99
  -3  -3 -22  120.10    8.91
  -3  -3 -21  227.28   12.19
  -3   3 -21  237.58   13.53
  -3  -3 -21  217.29   11.24
  -3   3 -21  245.05    7.50
   3   3 -21  209.01   10.20
  -3  -3 -21  229.15   12.31
  -3  -3 -20   69.85    6.24
  -3   3 -20   54.74    3.66
  -3  -3 -20   64.51    6.23
  -3   3 -20   65.98    6.95
  -3   3 -20   53.68    2.46
  -3  -3 -20   72.31    6.74
   3   3 -20   68.69    5.68
  -3   3 -19   34.14    2.97
  -3  -3 -19   28.91    4.01
  -3   3 -19   39.02    5.20
  -3   3 -19   32.63    2.12
   3   3 -19   29.66    3.75
  -3   3 -19   35.50    5.01
  -3  -3 -18  165.23    9.64
  -3   3 -18  160.48    6.84
  -3   3 -18  163.88   10.59
  -3   3 -18  158.26    5.29
   3   3 -18  160.89    8.68
  -3   3 -18  173.79   10.94
  -3   3 -17   36.35    3.24
  -3  -3 -17   30.41    4.12
  -3   3 -17   32.62    4.60
  -3   3 -17   35.40    2.55
   3  -3 -17   32.11    4.70
  -3   3 -17   32.39    4.57
   3   3 -17   31.69    3.83
  -3   3 -16  118.39    6.13
  -3  -3 -16  122.19    8.19
  -3   3 -16  112.58    8.37
  -3   3 -16  118.75    4.99
   3  -3 -16  120.19    9.00
   3   3 -16  110.22    7.13
  -3   3 -16  118.86    8.63
  -3  -3 -15   20.99    3.44
  -3   3 -15   19.38    3.44
  -3   3 -15   16.75    2.40
  -3   3 -15   20.13    2.13
   3  -3 -15   22.40    3.96
  -3   3 -15   23.00    3.77
   3   3 -15   17.68    2.86
  -3   3 -14  134.04    6.78
  -3  -3 -14  141.64    8.79
  -3   3 -14  139.11    8.97
  -3   3 -14  130.20    5.63
   3  -3 -14  143.77    9.57
   3   3 -14  131.36    7.74
  -3   3 -14  131.10    8.74
  -3  -3 -13   13.18    2.83
  -3   3 -13   18.80    2.67
  -3   3 -13   18.75    3.24
   3  -3 -13   16.33    3.35
  -3   3 -13   19.56    2.25
  -3   3 -13   18.67    3.37
   3   3 -13   12.89    2.48
  -3   3 -12   59.49    4.65
  -3  -3 -12   68.09    6.03
  -3   3 -12   56.40    5.47
  -3   3 -12   64.31    4.14
   3  -3 -12   65.35    6.26
  -3   3 -12   60.21    5.70
   3   3 -12   66.25    5.49
  -3   3 -11  110.91    6.46
  -3  -3 -11  112.99    7.83
  -3   3 -11  113.89    7.59
  -3   3 -11  107.85    5.53
   3  -3 -11  125.32    8.62
  -3   3 -11  108.28    7.44
  -3  -3 -10  279.45   12.37
  -3   3 -10  283.64   11.93
  -3   3 -10  268.19   10.42
   3  -3 -10  264.63   12.52
  -3   3 -10  282.15    9.42
  -3   3 -10  281.20   11.96
  -3  -3  -9  114.91    7.82
   3  -3  -9  132.35    8.63
  -3   3  -9  134.01    6.47
  -3   3  -9  138.62    7.38
  -3  -3  -8  127.24    8.21
  -3   3  -8  119.93    6.28
   3  -3  -8  130.06    8.48
  -3   3  -8  109.39    6.73
  -3  -3  -7  490.44   16.62
  -3   3  -7  472.29   13.39
   3  -3  -7  502.25   16.89
  -3  -3  -6  235.03   11.18
   3  -3  -6  247.11   11.40
  -3   3  -6  234.64    9.26
  -3  -3  -5  472.53   16.40
  -3   3  -5  529.10   14.64
   3  -3  -5  518.58   16.75
  -3  -3  -4  479.16   16.28
  -3   3  -4  429.40   13.44
   3  -3  -4  430.75   15.00
  -3  -3  -4  464.17   15.71
  -3  -3  -3  108.28    7.61
   3  -3  -3  112.56    7.20
  -3   3  -3   93.20    6.09
  -3  -3  -3  105.55    7.25
  -3  -3  -2  838.25   22.38
  -3   3  -2  782.25   19.53
   3  -3  -2  824.18   20.92
  -3  -3  -2  812.86   21.57
  -3  -3  -1  112.05    7.66
   3  -3  -1  106.70    6.91
  -3   3  -1  112.43    6.85
  -3  -3  -1  111.49    7.34
  -3  -3   0  142.45    8.64
  -3   3   0  134.44    7.63
   3  -3   0  129.86    7.48
  -3  -3   0  141.51    8.24
   3   3   0  141.23    8.38
  -3  -3   1  101.07    7.27
  -3   3   1  102.66    6.78
   3  -3   1  111.41    6.76
   3   3   1  107.08    7.40
  -3  -3   1   95.47    6.78
  -3  -3   2  806.97   21.87
  -3   3   2  794.49   20.70
   3  -3   2  773.38   19.27
  -3  -3   2  789.42   20.83
   3   3   2  817.32   21.70
  -3  -3   3  112.09    7.62
   3  -3   3   92.98    6.04
  -3   3   3  109.64    7.16
   3   3   3   92.29    6.90
  -3  -3   3  109.02    7.21
  -3  -3   4  505.08   16.80
   3  -3   4  463.16   13.98
  -3   3   4  462.46   15.58
   3   3   4  500.23   16.49
  -3  -3   4  487.61   15.64
  -3  -3   5  481.64   16.53
   3  -3   5  520.48   14.40
  -3   3   5  514.11   16.61
  -3  -3   5  474.35   15.48
   3   3   5  468.77   16.07
  -3  -3   6  239.66   11.25
   3  -3   6  236.36    9.18
  -3   3   6  255.00   11.53
  -3  -3   6  227.66   10.37
   3   3   6  230.27   10.94
  -3  -3   7  498.00   16.60
  -3   3   7  507.93   16.87
   3  -3   7  451.56   13.03
   3   3   7  472.63   16.18
  -3  -3   7  479.11   15.44
   3   3   8  131.54    8.20
  -3  -3   8  144.69    8.67
  -3   3   8  128.65    8.42
   3  -3   8  115.07    6.12
  -3  -3   8  140.51    8.00
   3   3   9  114.31    7.67
  -3  -3   9  114.54    7.70
   3  -3   9  128.72    6.26
  -3  -3   9  111.76    7.12
  -3   3   9  107.69    7.79
  -3  -3  10  279.53   12.26
   3   3  10  301.09   12.60
  -3  -3  10  270.87   11.25
   3  -3  10  268.30    9.15
  -3   3  10  286.88   13.04
  -3  -3  10  271.08   12.59
   3   3  11  109.34    7.60
  -3  -3  11  118.42    7.87
   3  -3  11  115.60    5.70
  -3  -3  11  116.14    7.23
  -3   3  11  125.55    8.67
  -3   3  11  127.19    6.51
  -3  -3  11  117.70    8.30
   3   3  12   73.05    6.12
  -3  -3  12   72.02    6.16
  -3  -3  12   62.37    6.07
  -3   3  12   57.73    4.47
  -3   3  12   63.25    6.11
   3  -3  12   56.31    3.85
  -3  -3  12   64.19    5.34
  -3  -3  13   10.33    2.38
   3   3  13   13.04    2.80
  -3  -3  13   11.64    2.56
  -3   3  13   10.11    1.97
  -3   3  13   13.65    3.06
  -3  -3  13   12.15    2.38
   3  -3  13   13.94    1.87
   3   3  14  143.08    8.67
  -3  -3  14  130.14    8.32
  -3   3  14  136.36    7.21
  -3  -3  14  140.63    9.42
  -3   3  14  139.27    9.41
  -3  -3  14  128.75    7.67
   3  -3  14  127.03    5.52
   3   3  15   21.18    3.47
  -3  -3  15   22.38    3.51
  -3  -3  15   22.05    4.29
  -3   3  15   25.44    3.17
  -3   3  15   18.72    3.63
  -3  -3  15   21.91    3.18
   3  -3  15   19.73    2.11
  -3  -3  16  124.36    8.15
   3   3  16  132.57    8.46
  -3   3  16  127.14    9.01
  -3   3  16  116.35    7.03
  -3  -3  16  130.23    9.37
  -3  -3  16  131.22    7.69
  -3   3  16  124.94    9.23
   3  -3  16  123.75    5.07
  -3  -3  17   31.51    4.15
   3   3  17   34.54    4.31
  -3  -3  17   31.61    3.81
  -3  -3  17   30.45    4.66
  -3   3  17   34.00    3.85
  -3   3  17   30.15    4.41
  -3  -3  18  168.96    9.57
   3   3  18  150.28    9.09
  -3  -3  18  162.53    8.71
  -3   3  18  160.29    8.60
  -3   3  18  159.33   10.27
   3   3  19   33.48    4.31
  -3  -3  19   35.45    4.41
  -3   3  19   43.74    5.49
  -3   3  19   35.91    4.11
  -3  -3  19   31.29    3.83
   3   3  20   65.51    5.99
  -3  -3  20   66.84    6.04
  -3   3  20   57.23    6.25
  -3   3  20   51.75    5.15
  -3  -3  20   72.23    5.80
  -3   3  20   56.58    5.38
  -3  -3  21  203.95   10.69
   3   3  21  214.86   11.05
  -3   3  21  227.66   12.73
  -3   3  21  208.71   10.63
  -3  -3  21  203.26    9.99
  -3   3  21  223.15   10.96
  -3  -3  22  105.95    7.63
  -3   3  22  106.10    8.68
   3   3  22  120.88    8.21
  -3   3  22  106.55    7.72
  -3  -3  22  107.15    7.19
  -3   3  22  113.57    7.86
  -3   3  23  167.56   11.07
  -3  -3  23  157.02    9.34
   3   3  23  160.01    9.54
  -3   3  23  158.05    9.63
  -3  -3  23  160.66    8.89
  -3   3  23  171.46    9.93
  -3  -3  23  156.79   11.46
  -3  -3  24   89.78    7.10
   3   3  24   89.65    7.19
  -3   3  24   90.84    8.16
  -3   3  24   77.38    6.90
  -3  -3  24   95.22    6.87
  -3   3  24   75.09    6.69
  -3  -3  24   95.17    9.20
  -3   3  25   97.87    8.60
  -3  -3  25   94.65    7.29
   3   3  25  104.54    7.76
  -3   3  25  100.31    7.99
  -3  -3  25  103.73    7.11
  -3   3  25  100.78    7.96
  -3  -3  25  100.04    9.44
   3   3  26  225.55   11.40
  -3  -3  26  200.50   10.74
  -3   3  26  202.12   12.43
  -3   3  26  207.42   11.78
  -3  -3  26  215.62   10.48
  -3  -3  26  215.52   14.39
  -3   3  26  213.05   11.92
  -3   3  27  202.51   12.51
  -3  -3  27  189.77   10.36
  -3   3  27  189.20   11.47
  -3  -3  27  195.76   10.00
   3   3  27  189.18   10.53
  -3   3  27  198.57   11.71
  -3  -3  27  202.21   14.08
  -3   3  28   49.97    6.30
  -3  -3  28   44.15    4.98
  -3  -3  28   42.93    4.73
  -3   3  28   48.04    5.79
  -3  -3  28   51.49    7.41
   3   3  28   42.37    5.06
  -3  -3  29   60.73    5.96
  -3   3  29   63.36    7.18
  -3  -3  29   64.98    5.73
   3   3  29   74.58    6.47
  -3  -3  29   59.94    7.98
  -3   3  29   62.90    6.84
  -3   3  30  152.60   11.02
  -3  -3  30  147.13    9.14
  -3  -3  30  161.90    9.20
   3   3  30  168.15    9.85
  -3   3  30  139.14   10.41
  -3  -3  30  163.68   13.27
   3   3  31   14.84    3.11
  -3   3  31   26.24    4.79
  -3  -3  31   20.37    3.17
  -3  -3  31   21.06    5.28
  -3   3  31   20.38    4.13
   3   3  32   28.90    4.19
  -3   3  32   24.76    4.65
  -3  -3  32   28.12    3.89
  -3   3  32   21.87    4.28
  -3  -3  32   18.39    4.64
  -3   3  33   50.64    6.67
  -3  -3  33   47.24    5.04
  -3   3  33   52.24    6.82
   3   3  33   49.66    5.34
  -3  -3  33   44.77    7.17
  -3   3  34   93.91    9.08
   3   3  34  103.70    7.64
  -3  -3  34   91.14   10.72
  -3   3  34   91.60    9.01
  -3   3  35   42.88    6.08
  -3   3  35   43.29    6.35
  -3  -3  35   48.48    8.02
  -3   3  36   39.14    6.03
  -3   3  36   35.51    5.92
  -3  -3  36   40.68    7.30
  -3   3  37   28.65    5.21
  -3   3  37   23.16    4.88
  -3  -3  37   24.86    5.80
  -3   3  38   36.27    5.74
  -3   3  38   40.41    6.52
  -3  -3  38   34.39    7.03
  -3   3  39   59.54    7.24
  -3  -3  39   55.63    8.89
  -3   3  39   47.76    7.27
  -3   3  40   29.15    5.55
  -3   3  41   11.54    3.91
  -3   3  42   35.84    6.53
  -3   3  43    9.20    3.47
  -3   3  44   14.54    4.71
  -3  -4 -42    8.88    4.62
  -3  -4 -41   23.92    5.38
  -3  -4 -40    5.23    3.34
  -3  -4 -39   42.58    7.23
  -3  -4 -38   15.90    4.64
  -4   3 -37  103.17   12.04
  -3  -4 -37   94.42   10.24
  -3  -4 -36    4.55    2.22
  -4   3 -36   19.26    5.39
  -3  -4 -35   37.73    6.41
  -4   3 -35   42.07    7.46
  -3  -4 -34   11.82    3.58
  -4   3 -34   12.99    4.65
  -3  -4 -33   89.33    9.24
  -4   3 -33   90.70   10.62
  -3  -4 -32   15.51    3.65
  -4   3 -32   27.82    5.92
  -3  -4 -31   66.88    7.81
  -4   3 -31   66.31    8.81
  -4   3 -30   21.36    4.90
  -3  -4 -30   28.41    5.10
  -4   3 -29  110.07   10.99
  -3  -4 -29  105.01    9.34
  -3  -4 -28  145.52   10.87
  -4   3 -28  178.46   13.78
  -3  -4 -27  180.40   11.82
  -4   3 -27  171.88   13.36
  -4   3 -26   27.40    1.96
  -4   3 -26   26.56    1.78
  -4   3 -26   26.42    5.19
  -3  -4 -26   36.25    5.41
  -4   3 -25  245.67    7.25
  -3  -4 -25  235.55   13.15
  -4   3 -25  231.64   14.94
  -4   3 -25  230.95    6.53
  -4   3 -24    7.78    1.40
  -4   3 -24   10.34    3.59
  -3  -4 -24    7.85    2.56
  -4   3 -24    8.70    1.39
  -3  -4 -24    7.44    2.33
  -4   3 -23  143.33    6.37
  -4   3 -23  146.01   11.46
  -3  -4 -23  134.98    9.59
  -4   3 -23  142.27    5.66
  -3  -4 -23  131.66    9.47
  -3  -4 -22   21.90    4.15
  -4   3 -22   16.19    2.23
  -3  -4 -22   19.84    3.62
  -4   3 -22   12.40    3.32
  -4   3 -22   15.22    1.87
  -3  -4 -22   18.74    3.55
  -4   3 -21  227.32    8.80
  -3  -4 -21  228.58   12.76
  -3  -4 -21  225.66   12.00
  -4   3 -21  240.31   14.30
  -4   3 -21  240.45    8.12
  -3  -4 -21  219.11   11.94
  -3  -4 -20   13.98    3.32
  -4   3 -20   11.67    2.05
  -3  -4 -20   14.43    3.15
  -4   3 -20   12.17    3.37
  -4   3 -20   12.60    1.98
  -3  -4 -20   12.61    2.90
  -4   3 -19  268.96   10.19
  -3  -4 -19  265.73   13.74
  -4   3 -19  277.99    9.32
  -4   3 -19  283.62   15.12
  -3  -4 -18   81.80    7.49
  -4   3 -18   60.36    4.81
  -4   3 -18   68.11    4.52
  -4   3 -18   69.52    7.30
  -3  -4 -17   83.27    7.45
  -4   3 -17   78.30    4.99
  -4   3 -17   83.65    7.82
  -4   3 -17   83.41    5.75
  -3  -4 -16  157.98   10.41
  -4   3 -16  179.97   11.31
  -4   3 -16  178.65    8.68
  -4   3 -16  188.29    8.02
  -3  -4 -15   57.49    6.25
  -4   3 -15   50.28    5.89
  -4   3 -15   54.26    4.35
  -4   3 -15   49.72    5.86
  -3  -4 -14   64.36    6.56
  -4   3 -14   52.45    5.94
  -4   3 -14   50.92    4.26
  -4   3 -14   51.21    5.81
  -3  -4 -13  148.56    9.88
  -4   3 -13  130.62    6.98
  -3  -4 -12   69.22    6.70
  -4   3 -12   93.67    6.04
  -3  -4 -11  319.74   14.57
  -4   3 -11  292.85   11.12
   4  -3 -11  307.86   14.73
  -3  -4 -10   88.50    7.51
  -4   3 -10   70.64    5.36
   4  -3 -10   71.36    6.93
  -3  -4  -9  150.78    9.85
  -4   3  -9  160.10    8.21
   4  -3  -9  136.98    9.56
  -3  -4  -8   21.43    3.99
   4  -3  -8   48.24    5.54
  -4   3  -8   45.42    4.44
  -3  -4  -7  804.48   23.91
  -4   3  -7  752.92   19.80
   4  -3  -7  814.31   23.64
  -3  -4  -6  105.75    8.16
  -4   3  -6   88.78    6.35
   4  -3  -6   89.07    7.29
  -3  -4  -5  374.16   15.58
  -4   3  -5  357.28   13.28
   4  -3  -5  340.64   14.47
   3   4  -5  341.39   14.49
  -3  -4  -4   52.63    5.90
  -4   3  -4   85.10    6.33
   4  -3  -4   84.82    7.00
   3   4  -4   68.75    6.47
  -3  -4  -3  386.58   15.98
   4  -3  -3  424.29   15.79
  -4   3  -3  388.75   14.31
   3   4  -3  380.65   15.45
  -3  -4  -2  100.23    7.88
  -4   3  -2   93.64    6.82
   4  -3  -2   99.60    7.31
   3   4  -2  100.20    7.74
  -3  -4  -1  372.67   15.46
  -4   3  -1  341.50   13.55
   4  -3  -1  319.90   13.41
   3   4  -1  332.65   14.44
  -3  -4  -1  350.04   14.36
   3   4   0    7.70    2.38
  -3  -4   0    7.27    2.54
   4  -3   0   13.54    2.78
  -4   3   0   18.91    3.13
  -3  -4   0   10.70    2.64
   3   4   1  376.98   15.38
  -3  -4   1  360.85   15.36
  -4   3   1  352.35   14.21
   4  -3   1  377.39   14.19
  -3  -4   1  367.78   14.53
  -3  -4   2   92.72    7.51
   3   4   2   83.98    7.15
   4  -3   2   84.29    6.42
  -4   3   2   80.94    6.71
  -3  -4   2   85.71    6.78
   3   4   3  389.34   15.64
  -3  -4   3  404.98   16.08
  -4   3   3  433.64   16.05
   4  -3   3  388.68   14.24
  -3  -4   3  394.02   14.96
  -3  -4   4   57.84    6.02
   3   4   4   57.94    6.05
  -4   3   4   84.93    7.00
   4  -3   4   80.92    6.18
  -3  -4   4   58.05    5.63
  -3  -4   5  362.82   15.15
   3   4   5  372.12   15.40
   4  -3   5  366.90   13.40
  -4   3   5  341.96   14.52
  -3  -4   5  343.67   13.87
  -3  -4   6  110.80    8.19
   3   4   6  103.01    7.97
  -4   3   6   89.13    7.29
   4  -3   6   84.26    6.16
  -3  -4   6   99.42    7.23
  -3  -4   7  806.91   23.46
   3   4   7  767.27   23.02
  -3  -4   7  778.84   22.02
   4  -3   7  762.85   19.92
  -4   3   7  823.70   23.86
  -3  -4   7  777.95   21.54
   3   4   8   25.29    4.29
  -3  -4   8   27.02    4.33
  -3  -4   8   22.31    3.65
  -4   3   8   39.17    5.15
   4  -3   8   44.24    4.38
  -3  -4   8   23.22    3.58
  -3  -4   9  146.35    9.51
   3   4   9  141.73    9.46
  -3  -4   9  138.45    8.96
  -4   3   9  134.92    9.41
   4  -3   9  157.13    8.12
  -3  -4   9  136.26    8.43
  -3  -4  10   77.19    6.82
   3   4  10   81.96    7.11
  -3  -4  10   72.47    6.57
  -4   3  10   72.06    6.95
   4  -3  10   73.17    5.43
  -3  -4  10   75.26    6.13
   3   4  11  312.73   14.23
  -3  -4  11  327.08   14.38
  -4   3  11  326.14   15.03
  -3  -4  11  315.13   12.91
   4  -3  11  273.70   10.74
  -3  -4  11  302.48   13.88
   3   4  12   80.21    7.19
  -3  -4  12   70.51    6.63
  -3  -4  12   68.92    6.65
  -4   3  12   87.49    7.79
  -3  -4  12   69.01    5.85
   4  -3  12   99.99    6.14
   3   4  13  128.84    9.13
  -3  -4  13  130.82    9.06
  -3  -4  13  124.10    9.12
  -3  -4  13  136.47    8.22
  -4   3  13  118.84    9.24
   4  -3  13  130.38    6.95
  -3  -4  14   63.34    6.27
   3   4  14   61.28    6.27
  -4   3  14   52.96    5.02
  -3  -4  14   53.42    6.01
  -3  -4  14   60.50    5.45
  -4   3  14   53.38    6.21
   4  -3  14   50.72    4.25
  -3  -4  15   63.99    6.30
   3   4  15   55.86    6.02
  -4   3  15   51.59    5.12
  -3  -4  15   58.89    6.50
  -3  -4  15   57.65    5.26
  -4   3  15   53.12    6.29
   4  -3  15   45.71    4.00
  -3  -4  16  171.24   10.39
   3   4  16  161.02   10.35
  -4   3  16  182.82    9.81
  -3  -4  16  160.49    8.91
  -4   3  16  188.18   11.95
   4  -3  16  176.45    7.73
  -3  -4  17   72.44    6.74
   3   4  17   94.20    7.95
  -4   3  17   69.86    6.10
  -3  -4  17   75.29    6.04
  -4   3  17   72.28    7.52
   4  -3  17   73.95    4.84
  -3  -4  18   71.30    6.76
   3   4  18   83.30    7.42
  -3  -4  18   69.70    5.86
  -4   3  18   56.21    6.79
  -4   3  18   68.90    6.16
  -3  -4  19  282.55   13.47
   3   4  19  276.83   13.79
  -3  -4  19  274.78   11.90
  -4   3  19  320.96   16.33
  -4   3  19  286.57   13.11
   3   4  20   17.40    3.68
  -3  -4  20   19.97    3.70
  -3  -4  20   13.93    2.69
  -4   3  20   12.94    3.65
  -4   3  20    8.02    2.42
  -3  -4  21  236.80   12.27
   3   4  21  236.58   12.85
  -4   3  21  232.63   12.17
  -3  -4  21  236.59   10.90
  -4   3  21  221.84   13.83
  -3  -4  22   16.25    3.26
   3   4  22   18.90    3.66
  -4   3  22   20.29    3.58
  -4   3  22   12.72    3.27
  -3  -4  22   15.48    2.81
  -3  -4  22   18.75    3.97
  -3  -4  23  137.20    9.34
   3   4  23  137.61    9.70
  -4   3  23  136.31    9.48
  -3  -4  23  153.24    8.65
  -3  -4  23  152.64   11.70
   3   4  24   14.43    3.44
  -3  -4  24    8.90    2.70
  -4   3  24    9.53    2.68
  -4   3  24    9.49    3.18
  -3  -4  24    8.52    2.12
  -3  -4  24    8.69    3.47
  -4   3  24    7.54    2.29
  -3  -4  25  210.95   11.57
   3   4  25  225.51   12.68
  -4   3  25  208.34   13.43
  -3  -4  25  236.30   10.87
  -3  -4  25  209.05   14.44
  -4   3  25  221.54   12.52
   3   4  26   36.47    5.12
  -3  -4  26   31.00    4.45
  -4   3  26   24.35    4.66
  -3  -4  26   32.54    3.97
  -3  -4  26   36.88    6.26
  -4   3  26   27.88    4.50
   3   4  27  187.33   11.61
  -3  -4  27  183.34   10.72
  -4   3  27  191.61   13.10
  -3  -4  27  195.61    9.82
  -3  -4  27  196.77   14.51
  -4   3  27  181.99   11.83
  -4   3  28  155.83   11.86
  -3  -4  28  128.96    9.03
   3   4  28  146.82   10.30
  -3  -4  28  146.99    8.44
  -3  -4  28  132.67   12.10
  -4   3  28  166.23   11.46
  -4   3  29   95.82    9.37
   3   4  29  100.54    8.60
  -3  -4  29  102.48    7.02
  -3  -4  29   97.02   10.25
  -4   3  29   88.25    8.49
   3   4  30   29.61    4.65
  -4   3  30   32.04    5.71
  -3  -4  30   31.90    3.91
  -3  -4  30   27.52    5.68
  -4   3  30   36.38    5.58
   3   4  31   78.19    7.60
  -4   3  31   65.33    7.86
  -3  -4  31   59.92    8.45
  -4   3  31   57.65    7.21
  -4   3  32   18.05    4.33
   3   4  32   13.17    3.41
  -4   3  32   16.82    3.89
  -3  -4  32   11.07    3.79
   3   4  33   94.88    8.39
  -4   3  33   85.11    9.08
  -4   3  33   89.07    9.18
  -3  -4  33   86.44   10.45
  -4   3  34    4.79    2.40
   3   4  34    6.05    2.67
  -4   3  34    6.97    2.57
  -3  -4  34    7.99    3.48
  -4   3  35   34.17    6.15
  -4   3  35   41.97    6.66
  -3  -4  35   38.51    7.22
  -4   3  36    7.93    3.61
  -4   3  36   12.12    3.78
  -3  -4  36    7.62    3.26
  -4   3  37   83.45    9.21
  -4   3  37   95.25   10.16
  -3  -4  37  106.28   12.35
  -4   3  38    6.99    2.85
  -4   3  38    5.78    2.69
  -4   3  39   45.61    6.99
  -4   3  39   40.89    7.02
  -4   3  40   10.00    3.83
  -4   3  41   19.34    4.70
  -4   3  42    1.68    1.53
  -2  -4 -43   14.84    4.33
  -2  -4 -42   26.74    5.74
  -2  -4 -41   44.97    7.17
  -2  -4 -40   10.31    3.90
  -2  -4 -39   36.29    6.41
  -4   2 -38   13.08    4.23
  -2  -4 -38    6.46    2.84
  -4   2 -37   81.79   10.47
  -2  -4 -37   83.19    9.08
  -4   2 -36    9.34    3.82
  -2  -4 -36    8.70    3.28
  -4   2 -35   58.95    8.73
  -2  -4 -35   69.03    8.07
  -4   2 -34   57.41    8.37
  -2  -4 -34   58.56    7.33
  -4   2 -33   86.82   10.31
  -2  -4 -33   95.06    9.03
  -4   2 -32   21.08    4.99
  -2  -4 -32   24.03    4.85
  -4   2 -31   40.43    6.74
  -2  -4 -31   46.21    6.07
  -4   2 -30  132.33   11.99
  -2  -4 -30  111.88    9.33
  -4   2 -29  105.90   10.63
  -2  -4 -29  108.05    8.95
  -4   2 -29  110.42    5.41
  -4   2 -28   67.23    8.33
  -2  -4 -28   69.35    6.99
  -4   2 -28   56.22    3.90
  -2  -4 -27  121.79    9.21
  -4   2 -27  116.80   10.79
  -2  -4 -27  117.71    9.00
  -4   2 -27  118.11    5.78
  -2  -4 -27  119.13    9.11
  -2  -4 -26   99.32    8.29
  -4   2 -26  100.26    3.45
  -4   2 -26  106.88    3.60
  -4   2 -26  107.04   10.08
  -2  -4 -26  102.99    8.26
  -4   2 -26  115.76    5.75
  -2  -4 -26   93.72    7.80
  -4   2 -25   61.73    3.24
  -2  -4 -25   61.33    6.43
  -4   2 -25   62.95    3.24
  -4   2 -25   59.20    7.39
  -2  -4 -25   72.63    6.75
  -4   2 -25   60.80    4.23
  -2  -4 -25   65.41    6.41
  -4   2 -24   15.48    1.80
  -4   2 -24   17.66    1.92
  -4   2 -24   15.21    3.78
  -2  -4 -24   24.90    4.08
  -2  -4 -24   20.22    3.55
  -4   2 -24   14.92    2.18
  -2  -4 -24   20.57    3.59
  -2  -4 -23  188.76   11.23
  -4   2 -23  197.73   13.14
  -2  -4 -23  203.87   10.91
  -4   2 -23  195.24    7.02
  -4   2 -23  193.49    7.93
  -2  -4 -23  205.85   10.98
  -4   2 -23  196.63    7.00
  -2  -4 -22  100.37    8.08
  -4   2 -22  111.32    9.66
  -2  -4 -22  107.15    7.67
  -4   2 -22  110.56    5.92
  -2  -4 -22  104.57    7.66
  -2  -4 -21  137.19    9.52
  -4   2 -21  156.07   11.37
  -2  -4 -21  146.38    8.83
  -4   2 -21  153.02    7.10
  -2  -4 -21  136.41    8.59
  -2  -4 -20   45.83    5.38
  -2  -4 -20   50.19    5.10
  -4   2 -20   30.22    4.95
  -4   2 -20   31.67    3.29
  -2  -4 -20   48.52    4.95
  -2  -4 -19   96.44    7.86
  -4   2 -19   80.94    7.86
  -2  -4 -19   90.55    6.59
  -4   2 -19   84.72    5.39
  -2  -4 -19   90.92    6.59
  -2  -4 -18  129.87    9.10
  -4   2 -18  154.53   10.66
  -2  -4 -18  131.78    7.85
  -4   2 -18  139.47    7.08
  -2  -4 -18  129.44    7.78
  -2  -4 -17  238.27   12.33
  -4   2 -17  263.23   13.77
  -2  -4 -17  240.85   10.49
  -4   2 -17  246.21    9.54
  -2  -4 -17  235.79   10.46
  -2  -4 -16    9.95    2.66
  -2  -4 -16    9.74    2.11
   4  -2 -16    5.59    2.42
  -4   2 -16    5.27    1.73
  -2  -4 -16    8.03    2.03
  -2  -4 -15  240.92   12.22
   4  -2 -15  260.65   13.30
  -4   2 -15  230.16    9.36
  -2  -4 -14  314.25   14.10
  -4   2 -14  310.90   11.08
   4  -2 -14  316.57   14.59
  -2  -4 -13  103.23    7.85
   4  -2 -13   88.65    7.56
  -4   2 -13   99.03    6.12
   2   4 -12   20.71    3.35
  -2  -4 -12   23.66    3.72
   4  -2 -12   12.91    3.14
  -4   2 -12   13.35    2.28
  -2  -4 -11  140.93    9.14
   4  -2 -11  158.15    9.85
  -4   2 -11  157.20    7.85
   2   4 -11  141.99    8.50
  -2  -4 -10  167.56    9.94
   4  -2 -10  185.26   10.58
  -4   2 -10  193.84    8.80
   2   4 -10  174.66    9.49
  -2  -4  -9  376.70   15.10
   4  -2  -9  350.83   14.63
  -4   2  -9  365.35   12.59
   2   4  -9  375.26   14.11
   2   4  -8   46.34    4.89
  -2  -4  -8   52.15    5.50
   4  -2  -8   32.64    4.41
  -4   2  -8   27.24    3.36
   2   4  -7  230.49   11.04
  -2  -4  -7  246.92   12.05
   4  -2  -7  259.33   12.16
  -4   2  -7  245.34   10.28
   2   4  -6   15.58    2.87
  -2  -4  -6   13.60    2.78
   4  -2  -6   17.86    3.32
  -4   2  -6   15.69    2.55
   2   4  -5  329.38   13.35
  -2  -4  -5  350.31   14.24
  -4   2  -5  346.66   12.59
   4  -2  -5  339.03   13.78
   2   4  -4  295.18   12.47
  -2  -4  -4  292.27   12.85
   4  -2  -4  230.64   11.17
  -2  -4  -3 1084.66   26.59
   2   4  -3 1047.85   25.48
   4  -2  -3 1018.26   25.12
  -4   2  -3  982.68   23.57
  -2  -4  -2  947.03   24.74
   2   4  -2  906.96   23.69
  -4   2  -2  985.55   23.32
   4  -2  -2  991.52   24.28
   2   4  -1  274.87   12.24
  -2  -4  -1  321.81   13.47
   4  -2  -1  311.01   12.65
  -4   2  -1  330.43   12.71
   2   4   0   55.47    5.48
  -2  -4   0   57.17    5.67
  -4   2   0   89.73    6.57
   4  -2   0   83.77    6.44
  -2  -4   1  303.62   13.12
   2   4   1  321.15   13.39
  -4   2   1  337.90   13.21
   4  -2   1  352.37   13.19
   2   4   2  875.22   23.47
  -2  -4   2  899.71   23.82
  -4   2   2  940.92   23.54
   4  -2   2  931.90   22.75
   2   4   3 1109.33   26.41
  -2  -4   3 1039.80   25.85
  -4   2   3 1017.38   25.24
   4  -2   3 1012.65   24.00
  -2  -4   4  309.87   13.08
   2   4   4  304.55   12.89
  -2  -4   4  293.80   10.97
   4  -2   4  226.67   10.34
  -4   2   4  241.92   11.47
   2   4   5  329.85   13.50
  -2  -4   5  309.10   13.02
  -2  -4   5  315.16   11.70
  -4   2   5  326.88   13.45
   4  -2   5  352.87   12.67
  -2  -4   5  312.54   11.97
  -2  -4   6   18.83    3.18
   2   4   6   18.81    3.39
  -2  -4   6   19.68    2.94
  -4   2   6   20.86    3.42
  -2  -4   6   17.13    2.79
   4  -2   6   19.71    2.92
   2   4   7  256.14   12.03
  -2  -4   7  236.60   11.37
  -2  -4   7  232.42   10.34
  -4   2   7  259.19   12.10
   4  -2   7  251.30   10.40
  -2  -4   7  242.17   10.28
  -2  -4   8   52.48    5.26
   2   4   8   56.77    5.67
  -2  -4   8   49.52    4.83
   4  -2   8   32.95    3.74
  -4   2   8   26.82    3.97
  -2  -4   8   44.58    4.26
   2   4   9  346.62   14.29
  -2  -4   9  354.17   13.90
  -2  -4   9  361.30   13.62
   4  -2   9  338.41   12.04
  -4   2   9  332.71   14.29
  -2  -4   9  354.09   12.38
   2   4  10  200.40   10.80
  -2  -4  10  198.72   10.24
  -2  -4  10  180.34    9.67
  -4   2  10  211.56   11.33
  -2  -4  10  193.06    8.91
   4  -2  10  203.83    9.10
   2   4  11  136.91    8.94
  -2  -4  11  141.20    8.60
  -2  -4  11  140.20    8.69
  -4   2  11  162.72   10.03
   4  -2  11  153.20    7.79
  -2  -4  11  139.16    7.51
   2   4  12   23.18    3.77
  -2  -4  12   23.51    3.56
  -2  -4  12   18.82    3.33
  -4   2  12   15.32    3.23
   4  -2  12   11.70    2.21
  -2  -4  12   18.58    2.66
  -2  -4  13  101.00    7.20
   2   4  13  104.50    7.88
  -2  -4  13  101.57    7.62
  -4   2  13   98.81    7.92
  -2  -4  13  103.36    6.33
   4  -2  13   94.87    5.96
   2   4  14  319.03   14.01
  -2  -4  14  321.24   13.23
  -2  -4  14  305.39   13.79
  -4   2  14  325.91   14.85
  -2  -4  14  326.21   11.51
   4  -2  14  315.34   11.14
   2   4  15  232.00   11.92
  -2  -4  15  223.04   10.80
  -4   2  15  250.48   11.81
  -2  -4  15  220.33   11.84
  -4   2  15  230.84   12.59
  -2  -4  15  230.57    9.47
   4  -2  15  229.77    9.25
   2   4  16    8.28    2.44
  -2  -4  16    8.80    2.44
  -2  -4  16    5.95    2.25
  -4   2  16    3.82    1.82
  -4   2  16    4.91    2.19
  -2  -4  16    3.84    1.16
  -2  -4  16    4.51    2.13
   2   4  17  254.84   12.64
  -2  -4  17  242.64   11.28
  -4   2  17  244.20   12.02
  -2  -4  17  238.04   12.78
  -4   2  17  236.77   13.13
  -2  -4  17  243.45    9.74
  -2  -4  17  249.72   13.04
   2   4  18  138.68    9.28
  -2  -4  18  137.92    8.46
  -4   2  18  128.77    8.78
  -2  -4  18  146.50   10.13
  -4   2  18  149.16   10.39
  -2  -4  18  131.40    6.97
  -2  -4  18  140.57    9.91
   2   4  19  104.47    8.09
  -2  -4  19   98.53    7.05
  -4   2  19  101.54    8.01
  -4   2  19  107.31    8.87
  -2  -4  19   90.74    5.70
  -2  -4  19   98.20    8.41
  -2  -4  20   48.07    4.95
   2   4  20   49.48    5.66
  -4   2  20   44.08    5.34
  -4   2  20   37.32    5.46
  -2  -4  20   46.17    4.02
  -2  -4  20   53.16    6.45
   2   4  21  151.05    9.85
  -2  -4  21  149.26    8.76
  -4   2  21  153.15   10.18
  -4   2  21  159.69   11.14
  -2  -4  21  148.63    7.26
  -2  -4  21  148.61   10.79
   2   4  22   98.73    8.00
  -2  -4  22   92.59    6.92
  -4   2  22   99.17    8.21
  -4   2  22  107.60    9.17
  -2  -4  22   99.91    5.87
  -2  -4  22  103.17    9.08
  -2  -4  23  198.19   10.08
   2   4  23  202.29   11.59
  -4   2  23  206.42   12.15
  -2  -4  23  199.95    8.41
  -4   2  23  209.57   13.05
  -2  -4  23  186.79   12.63
  -2  -4  24   28.48    3.82
   2   4  24   20.10    3.94
  -2  -4  24   24.02    2.80
  -4   2  24   26.72    4.87
  -2  -4  24   20.72    4.39
   2   4  25   62.42    6.56
  -2  -4  25   53.92    5.12
  -2  -4  25   65.25    4.69
  -4   2  25   57.13    6.99
  -2  -4  25   53.48    7.12
   2   4  26  106.19    8.49
  -2  -4  26   99.01    7.03
  -2  -4  26  102.40    5.78
  -4   2  26  109.41    9.75
  -2  -4  26  101.39    9.78
  -4   2  26  109.67    9.22
  -2  -4  27  111.11    7.40
   2   4  27  117.93    8.94
  -2  -4  27  114.88    6.12
  -4   2  27  115.36   10.16
  -2  -4  27  116.18   10.61
  -4   2  27  118.61    9.69
  -2  -4  28   69.47    5.76
   2   4  28   66.88    6.81
  -2  -4  28   70.40    4.70
  -2  -4  28   66.16    8.12
  -4   2  28   56.37    6.93
   2   4  29   95.11    8.19
  -2  -4  29  111.95    5.89
  -2  -4  29  104.15   10.35
  -4   2  29   97.81    9.15
   2   4  30  110.99    8.71
  -2  -4  30  127.41    6.15
  -2  -4  30  115.23   11.09
  -4   2  30  123.81   10.51
  -4   2  31   38.98    5.74
   2   4  31   43.96    5.61
  -4   2  31   38.96    6.12
  -2  -4  31   39.69    6.75
  -4   2  32   21.95    4.70
   2   4  32   17.36    3.62
  -2  -4  32   19.60    5.09
  -4   2  32   16.52    3.91
   2   4  33   95.60    8.29
  -4   2  33   89.65    8.89
  -4   2  33   79.15    8.89
  -2  -4  33   88.52   10.21
  -4   2  34   40.24    6.15
   2   4  34   48.39    5.94
  -4   2  34   44.97    6.74
  -2  -4  34   46.18    7.37
   2   4  35   75.18    7.39
  -4   2  35   61.89    7.45
  -4   2  35   64.97    8.26
  -2  -4  35   69.13    9.33
  -4   2  36    5.59    2.68
   2   4  36    9.94    3.12
  -2  -4  36    8.23    3.46
  -4   2  36    3.57    2.35
  -4   2  37   77.75    8.44
  -4   2  37   79.06    9.51
  -2  -4  37   78.52   10.24
  -4   2  38   12.75    3.61
  -4   2  38   10.50    3.51
  -2  -4  38    8.94    3.05
  -4   2  39   35.13    5.91
  -4   2  39   33.44    6.22
  -4   2  40    0.67    1.23
  -4   2  41   40.93    7.15
  -4   2  42   38.94    7.05
  -4   2  43   14.63    4.63
  -1  -4 -43   19.33    5.03
  -1  -4 -42   71.05    9.17
  -1  -4 -41   12.67    3.89
  -1  -4 -40    0.39    1.52
  -1  -4 -39   50.87    7.32
   1   4 -39   48.24    8.40
  -4   1 -39   52.13    8.67
   1   4 -38   55.10    8.83
  -4   1 -38   69.52    9.77
  -1  -4 -38   59.39    7.69
   1   4 -37   44.27    7.84
  -4   1 -37   41.89    7.42
  -1  -4 -37   36.20    6.07
   1   4 -36   -0.73    1.48
  -4   1 -36    4.56    2.73
  -1  -4 -36    1.55    1.56
  -4   1 -35   44.50    7.51
  -1  -4 -35   58.21    7.06
   1   4 -35   46.32    7.69
   1   4 -34   55.11    8.30
  -4   1 -34   71.00    9.46
  -1  -4 -34   56.41    6.93
   1   4 -33   98.56   10.68
  -4   1 -33   92.74   10.39
  -1  -4 -33   94.17    8.72
  -4   1 -32   13.24    4.12
  -1  -4 -32   18.35    3.91
   1   4 -32   17.98    4.78
  -4   1 -32   12.37    2.21
  -4   1 -31  120.65   11.45
   1   4 -31  124.86   11.48
  -1  -4 -31  137.17   10.06
  -4   1 -31  125.18    7.19
  -4   1 -30  161.32   13.03
  -1  -4 -30  148.70   10.34
   1   4 -30  135.30   11.87
  -4   1 -30  157.96    8.06
  -4   1 -29   35.19    6.26
  -1  -4 -29   37.93    5.12
   1   4 -29   42.34    6.50
  -4   1 -29   38.92    4.06
  -1  -4 -29   40.80    5.28
  -4   1 -28    5.05    2.53
  -1  -4 -28    2.74    1.57
   1   4 -28    4.10    2.05
  -1  -4 -28    1.29    1.12
  -4   1 -28    2.00    0.99
  -1  -4 -27   17.69    3.26
   1   4 -27   11.75    3.36
  -4   1 -27   17.50    4.43
  -1  -4 -27   20.50    3.88
  -4   1 -27   17.84    1.56
  -4   1 -27   14.54    2.49
  -1  -4 -27   17.97    3.29
  -4   1 -26  178.08    5.85
  -4   1 -26  177.62   12.89
   1   4 -26  157.03   11.94
  -1  -4 -26  167.68    9.95
  -1  -4 -26  156.63   10.35
  -4   1 -26  172.24    8.47
  -1  -4 -26  152.89    9.52
  -1  -4 -25  138.29    9.60
  -4   1 -25  134.75    5.41
  -4   1 -25  124.89   10.59
   1   4 -25  153.47   11.54
  -1  -4 -25  138.25    8.87
  -4   1 -25  132.76    7.39
  -1  -4 -25  138.44    8.88
  -4   1 -24   24.21    2.39
  -1  -4 -24   21.32    3.84
  -1  -4 -24   26.05    3.80
  -4   1 -24   24.11    4.61
   1   4 -24   20.41    4.37
  -4   1 -24   24.13    3.16
  -1  -4 -24   21.72    3.41
  -4   1 -23  169.23    6.72
  -1  -4 -23  168.74   10.60
   1   4 -23  169.55   11.70
  -1  -4 -23  175.83    9.48
  -4   1 -23  169.17   12.00
  -4   1 -23  169.64    8.38
  -1  -4 -23  178.49    9.59
  -4   1 -22   82.98    4.76
  -1  -4 -22   67.62    6.63
  -4   1 -22   81.42    8.19
   1   4 -22   55.97    6.64
  -1  -4 -22   56.00    5.19
  -4   1 -22   79.04    5.64
  -1  -4 -22   59.25    5.34
  -1  -4 -21  170.12   10.48
  -4   1 -21  157.60    6.93
  -4   1 -21  170.59   11.57
   1   4 -21  177.28   11.45
  -1  -4 -21  171.17    8.76
  -4   1 -21  159.61    8.12
  -1  -4 -21  171.38    8.89
  -1  -4 -20   40.98    5.04
  -4   1 -20   42.75    3.60
   1   4 -20   43.49    5.64
  -1  -4 -20   43.77    4.29
  -4   1 -20   44.92    5.84
  -4   1 -20   37.23    3.87
  -1  -4 -20   42.50    4.22
  -1  -4 -19  131.65    9.01
  -4   1 -19  111.65    9.13
  -1  -4 -19  126.49    7.11
   1   4 -19  122.32    9.07
   4  -1 -19  117.47    8.85
  -4   1 -19  116.24    6.88
  -1  -4 -19  115.33    6.82
  -4   1 -19  110.07    5.95
  -1  -4 -18  185.51   10.67
   1   4 -18  175.22   10.72
  -1  -4 -18  187.87    8.53
   4  -1 -18  192.93   11.30
  -4   1 -18  193.46    8.88
  -4   1 -18  200.44    8.14
  -1  -4 -18  181.40    8.39
  -1  -4 -17   39.20    4.82
  -1  -4 -17   32.92    3.43
   1   4 -17   37.97    4.86
  -4   1 -17   33.58    3.68
   4  -1 -17   39.81    5.16
  -1  -4 -17   36.65    3.59
   1   4 -16   17.72    2.75
  -1  -4 -16   15.25    3.10
   1   4 -16   18.14    3.31
  -1  -4 -16   16.31    2.33
   4  -1 -16   14.65    2.92
  -1  -4 -16   15.18    2.20
  -4   1 -16   14.24    2.35
  -1  -4 -15   48.14    5.25
  -1  -4 -15   43.71    3.66
   1   4 -15   43.54    5.02
  -4   1 -15   28.00    3.39
   4  -1 -15   35.07    4.70
  -1  -4 -15   45.16    3.69
   1   4 -15   39.28    4.00
  -1  -4 -14  484.39   17.25
   1   4 -14  464.61   14.75
  -1  -4 -14  484.68   12.61
   1   4 -14  474.53   16.62
   4  -1 -14  505.30   17.93
  -4   1 -14  508.01   14.91
  -1  -4 -14  473.14   12.56
  -1  -4 -13  223.92   11.33
   1   4 -13  230.04    9.99
  -1  -4 -13  219.36    7.79
   1   4 -13  219.92   10.79
  -4   1 -13  204.10    9.25
   4  -1 -13  200.65   10.92
  -1  -4 -13  208.05    7.60
   1   4 -12    5.17    1.72
  -1  -4 -12    5.72    1.97
  -1  -4 -12    5.33    1.14
  -4   1 -12    7.41    1.85
   4  -1 -12    9.32    4.76
  -1  -4 -12    5.98    1.21
   1   4 -11  430.84   14.26
  -1  -4 -11  444.85   16.08
  -1  -4 -11  444.36   10.87
   4  -1 -11  401.56   15.58
  -4   1 -11  404.14   13.40
  -1  -4 -11  427.49   10.70
  -1  -4 -10  416.05   15.50
   1   4 -10  398.05   13.75
   4  -1 -10  463.74   16.52
  -4   1 -10  463.60   14.30
   1   4  -9  179.74    8.93
  -1  -4  -9  165.14    9.53
   4  -1  -9  164.56    9.49
  -4   1  -9  151.11    7.98
   1   4  -8   10.36    2.25
  -1  -4  -8   10.88    2.42
  -4   1  -8   13.63    2.44
   4  -1  -8   13.63    2.79
   1   4  -7  800.85   20.36
  -1  -4  -7  813.42   22.19
  -4   1  -7  768.52   19.54
   4  -1  -7  748.52   21.29
  -1  -4  -6  399.34   15.00
   1   4  -6  407.30   14.10
  -4   1  -6  459.42   14.38
   4  -1  -6  473.16   16.01
   1   4  -5  134.73    7.82
  -1  -4  -5  119.37    7.90
   4  -1  -5  138.34    8.29
  -4   1  -5  124.31    7.29
  -1  -4  -4  194.45    9.97
   1   4  -4  177.46    9.19
  -4   1  -4  178.97    8.81
   4  -1  -4  174.56    9.37
  -1  -4  -3   71.02    6.10
   1   4  -3   67.25    5.50
   4  -1  -3   44.73    4.65
  -4   1  -3   39.27    4.12
  -1  -4  -2  719.24   20.41
   1   4  -2  732.07   19.79
   4  -1  -2  790.19   20.79
  -4   1  -2  729.42   19.41
   1   4  -1  467.75   15.49
  -1  -4  -1  482.44   16.04
  -1  -4  -1  452.30   10.80
   4  -1  -1  454.07   15.18
  -4   1  -1  461.95   15.00
   1   4   0    8.61    2.24
  -1  -4   0    6.52    2.01
  -1  -4   0    9.63    1.43
  -4   1   0    4.81    1.50
   4  -1   0    8.78    2.02
   1   4   1  457.17   15.48
  -1  -4   1  510.13   16.47
   4  -1   1  451.20   15.09
  -4   1   1  483.04   15.64
  -1  -4   1  485.66   11.82
  -1  -4   2  715.56   19.83
   1   4   2  678.20   19.43
   4  -1   2  707.84   19.10
  -4   1   2  725.56   19.72
  -1  -4   2  686.39   15.16
   1   4   3   57.66    5.40
  -1  -4   3   61.40    5.37
   4  -1   3   37.76    4.16
  -4   1   3   39.36    4.39
  -1  -4   3   52.93    3.85
   1   4   4  173.47    9.29
  -1  -4   4  172.31    9.10
  -1  -4   4  166.11    7.19
   4  -1   4  179.43    8.90
  -4   1   4  160.81    8.97
   1   4   5  139.76    8.55
  -1  -4   5  144.11    8.29
  -1  -4   5  146.61    6.91
  -4   1   5  154.36    8.84
   4  -1   5  142.13    7.80
   1   4   6  376.93   14.30
  -1  -4   6  393.14   14.11
  -1  -4   6  373.90   11.93
  -4   1   6  441.46   15.50
   4  -1   6  425.42   13.85
   1   4   7  814.88   21.84
  -1  -4   7  848.80   21.39
  -1  -4   7  813.77   19.01
  -4   1   7  755.82   21.43
   4  -1   7  765.09   19.61
   1   4   8   15.19    2.96
  -1  -4   8   10.12    2.38
  -1  -4   8   10.25    2.14
  -4   1   8    9.37    2.16
   4  -1   8   12.90    2.23
  -1  -4   8    9.00    2.07
   1   4   9  158.24    9.21
  -1  -4   9  180.67    9.12
  -1  -4   9  192.02    8.96
  -4   1   9  160.55    9.37
   4  -1   9  155.32    8.13
  -1  -4   9  178.70    7.66
  -1  -4   9  193.85    8.99
   1   4  10  395.30   14.89
  -1  -4  10  384.95   13.73
  -1  -4  10  378.93   13.40
  -4   1  10  460.14   16.20
  -1  -4  10  380.47   11.54
  -1  -4  10  394.42   13.62
   4  -1  10  443.54   13.90
   1   4  11  443.51   15.85
  -1  -4  11  439.36   14.63
  -1  -4  11  432.20   14.66
  -4   1  11  398.64   15.49
  -1  -4  11  432.73   12.10
   4  -1  11  407.18   13.40
  -1  -4  11  451.42   14.87
  -1  -4  12    4.23    1.66
   1   4  12    8.30    2.69
  -1  -4  12    4.15    1.52
  -4   1  12    3.27    1.72
  -1  -4  12    2.27    1.14
  -1  -4  12    2.10    0.93
   4  -1  12    4.53    1.43
   1   4  13  218.18   11.10
  -1  -4  13  220.27   10.01
  -1  -4  13  230.50   11.03
  -4   1  13  203.34   11.05
  -1  -4  13  229.49    8.29
  -1  -4  13  229.98   10.91
   1   4  14  489.20   17.11
  -1  -4  14  459.05   14.83
  -1  -4  14  465.76   16.54
  -4   1  14  496.08   17.89
  -1  -4  14  463.87   16.38
  -1  -4  14  471.37   12.21
   1   4  15   44.86    5.06
  -1  -4  15   44.32    4.47
  -4   1  15   37.70    4.65
  -1  -4  15   43.69    5.00
  -4   1  15   40.59    5.09
  -1  -4  15   44.21    3.43
  -1  -4  15   45.53    5.01
   1   4  16   18.94    3.39
  -1  -4  16   19.30    2.95
  -4   1  16   20.38    3.57
  -1  -4  16   19.83    3.41
  -1  -4  16   18.04    2.16
  -4   1  16   22.54    3.89
  -1  -4  16   17.29    3.12
   1   4  17   45.19    5.21
  -1  -4  17   45.16    4.46
  -4   1  17   40.79    5.03
  -1  -4  17   46.18    5.35
  -4   1  17   34.27    4.90
  -1  -4  17   40.57    3.11
  -1  -4  17   43.33    5.30
   1   4  18  182.75   10.42
  -1  -4  18  165.65    8.51
  -4   1  18  190.84   11.01
  -1  -4  18  170.51   10.59
  -1  -4  18  165.71    6.36
  -4   1  18  178.64   11.01
  -1  -4  18  164.40   10.41
  -1  -4  19  129.47    7.45
   1   4  19  124.82    8.67
  -4   1  19  126.23    9.11
  -1  -4  19  127.49    9.34
  -1  -4  19  125.69    5.36
  -4   1  19  136.81    9.60
  -1  -4  19  130.89    9.46
   1   4  20   44.04    5.15
  -1  -4  20   45.22    4.42
  -4   1  20   42.68    5.33
  -1  -4  20   44.30    5.49
  -4   1  20   49.78    5.90
  -1  -4  20   43.89    3.02
  -1  -4  20   45.38    5.62
   1   4  21  167.46   10.28
  -1  -4  21  161.52    8.33
  -4   1  21  172.76   11.11
  -4   1  21  149.90   10.43
  -1  -4  21  173.23    6.03
  -1  -4  21  174.05   11.27
   1   4  22   56.72    6.05
  -1  -4  22   57.20    4.83
  -4   1  22   80.79    7.62
  -1  -4  22   52.66    3.07
  -1  -4  22   58.42    6.65
   1   4  23  173.63   10.58
  -1  -4  23  165.21    8.18
  -4   1  23  158.60   10.91
  -1  -4  23  169.10    5.52
  -1  -4  23  172.44   11.69
  -1  -4  24   19.11    2.77
   1   4  24   23.62    4.00
  -1  -4  24   20.05    1.76
  -4   1  24   23.08    4.51
  -1  -4  24   19.88    4.15
  -1  -4  25  144.79    7.45
   1   4  25  135.55    9.55
  -4   1  25  137.44   10.38
  -1  -4  25  148.48    4.56
  -1  -4  25  155.45   11.55
  -1  -4  26  160.37    7.70
   1   4  26  174.58   10.82
  -4   1  26  182.69   12.09
  -1  -4  26  170.63   12.33
  -1  -4  27   10.80    2.08
   1   4  27   19.46    3.63
  -4   1  27   11.66    2.98
  -4   1  27   10.11    3.01
  -1  -4  27   11.87    3.48
  -1  -4  28    3.01    1.14
   1   4  28    3.36    1.89
  -4   1  28    2.32    1.57
  -1  -4  28    1.69    1.60
  -4   1  28    3.99    2.13
  -1  -4  29   39.34    3.62
   1   4  29   39.76    5.23
  -4   1  29   35.58    5.38
  -1  -4  29   38.30    6.32
  -4   1  29   32.62    5.46
   1   4  30  137.78    9.78
  -4   1  30  141.63   11.11
  -4   1  30  148.02   11.72
  -1  -4  30  146.19   12.35
   1   4  31  132.42    9.61
  -4   1  31  113.34   10.05
  -1  -4  31  121.69   11.35
  -4   1  31  110.29   10.39
   1   4  32   14.50    3.28
  -4   1  32   14.09    4.29
  -1  -4  32   15.11    4.41
   1   4  33   87.48    7.94
  -1  -4  33   90.60   10.18
  -4   1  33   82.48    9.27
   1   4  34   63.76    6.79
  -1  -4  34   64.30    8.88
  -4   1  34   66.86    8.48
   1   4  35   51.98    5.98
  -4   1  35   41.06    6.78
  -1  -4  35   60.37    8.67
  -4   1  36    2.13    2.17
   1   4  36    4.09    2.01
  -1  -4  36    4.30    3.04
  -4   1  36    1.72    1.80
  -4   1  37   40.73    5.86
   1   4  37   41.84    5.65
  -1  -4  37   39.51    7.32
  -4   1  37   43.07    7.25
  -4   1  38   65.00    7.47
  -1  -4  38   57.18    8.76
  -4   1  38   63.57    9.02
  -1  -4  39   54.61    8.76
  -4   1  39   48.66    7.82
  -4   1  40    3.74    2.46
  -4   1  41   17.74    4.88
  -4   1  42   77.72   10.23
   0  -4 -42    9.02    3.68
   0  -4 -41   32.52    5.94
   0  -4 -40   81.84    9.13
  -4   0 -40   82.16   10.60
   0  -4 -39   85.18    9.06
  -4   0 -39   98.91   11.65
   0   4 -39   79.97   10.58
   0  -4 -38    9.59    3.42
   0   4 -38   14.98    4.78
  -4   0 -38   10.65    4.33
   0  -4 -37  116.49   10.20
   0   4 -37  115.80   12.22
  -4   0 -37  113.23   12.02
   0   4 -36   27.27    6.06
  -4   0 -36   30.91    6.35
   0  -4 -36   27.12    4.98
   0  -4 -35   92.07    8.75
  -4   0 -35  101.23   11.13
   0   4 -35   93.39   10.78
  -4   0 -34   18.71    4.76
   0  -4 -34   13.29    3.18
   0   4 -34   20.40    5.21
  -4   0 -34   16.59    3.11
   0   4 -33   44.20    7.09
  -4   0 -33   53.34    7.69
   0  -4 -33   56.27    6.57
  -4   0 -33   48.39    5.21
   0  -4 -32   45.51    5.84
   0   4 -32   47.08    7.11
  -4   0 -32   43.60    6.89
  -4   0 -32   46.66    5.08
   0  -4 -31   46.16    5.78
  -4   0 -31   52.97    7.45
   0   4 -31   50.65    7.26
  -4   0 -31   54.96    5.48
   0  -4 -30   18.89    3.73
   0   4 -30   21.46    4.94
  -4   0 -30   19.28    4.53
  -4   0 -30   19.56    3.32
   0   4 -29   74.29    8.59
  -4   0 -29   72.51    8.51
   0  -4 -29   69.34    6.70
  -4   0 -29   72.83    6.32
   0  -4 -28  110.11    8.18
  -4   0 -28   95.23    9.57
   0   4 -28  111.73   10.25
  -4   0 -28   95.03    4.83
  -4   0 -28   95.42    7.14
   0   4 -27   92.52    9.22
  -4   0 -27  105.13    9.83
   0  -4 -27  101.93    7.72
  -4   0 -27   98.66    5.13
  -4   0 -27  102.14    7.32
   0  -4 -26    7.54    2.05
   0   4 -26    8.49    2.82
  -4   0 -26   20.31    4.44
  -4   0 -26   15.16    2.08
  -4   0 -26   15.66    2.88
   0   4 -25   74.79    7.90
  -4   0 -25   86.16    8.72
   0  -4 -25   80.50    6.43
  -4   0 -25   85.76    5.07
  -4   0 -25   86.67    6.65
   0  -4 -24   96.93    6.85
  -4   0 -24   98.12    9.10
   0   4 -24   96.97    8.91
  -4   0 -24   88.53    5.28
  -4   0 -24   92.08    6.86
  -4   0 -23  149.57    7.07
   0   4 -23  153.68   10.99
  -4   0 -23  154.66   11.37
   0  -4 -23  159.40    8.57
   4   0 -23  150.55   10.20
  -4   0 -23  158.75    8.96
  -4   0 -22   10.09    1.90
   0  -4 -22    8.64    2.13
  -4   0 -22    9.74    2.95
   0   4 -22    6.98    2.77
   4   0 -22    7.75    2.55
  -4   0 -22   13.89    2.89
  -4   0 -21  321.67   10.95
  -4   0 -21  310.36   15.70
   0   4 -21  312.81   15.18
   0  -4 -21  320.02   11.63
   4   0 -21  339.40   15.18
  -4   0 -21  312.06   12.69
  -4   0 -20   80.80    5.33
   0   4 -20   90.02    7.86
   0  -4 -20   82.55    7.29
   0  -4 -20   94.82    5.90
   4   0 -20   85.24    7.38
  -4   0 -20   81.84    6.32
   0   4 -20   90.72    5.39
  -4   0 -19   80.42    5.38
   0  -4 -19   77.42    6.93
   0   4 -19   76.68    7.07
   0  -4 -19   74.56    5.04
   4   0 -19   82.15    7.23
   0   4 -19   72.90    4.92
  -4   0 -19   79.99    6.18
  -4   0 -18    0.89    0.80
   0   4 -18    3.57    1.14
   0  -4 -18    2.76    1.72
   0  -4 -18    4.62    1.44
   0   4 -18    5.40    2.05
   4   0 -18    2.05    1.58
  -4   0 -18    0.91    0.75
   0  -4 -17  215.69   11.46
  -4   0 -17  201.71    8.84
   0   4 -17  196.22    8.45
   0   4 -17  206.18   11.20
   0  -4 -17  204.63    7.85
   4   0 -17  229.47   11.86
  -4   0 -17  217.88   10.18
  -4   0 -16  673.66   17.47
   0  -4 -16  706.12   21.62
   0   4 -16  711.83   17.42
   0   4 -16  760.31   21.86
   0  -4 -16  711.74   15.35
   4   0 -16  695.94   21.42
  -4   0 -16  687.10   19.06
   0  -4 -15  294.60   13.43
   0   4 -15  297.50   10.75
   0  -4 -15  304.23    8.83
   0   4 -15  281.99   12.52
   4   0 -15  325.35   13.95
  -4   0 -15  315.09   11.28
  -4   0 -15  311.69   12.18
   0  -4 -14   83.19    6.91
   0   4 -14   70.97    5.15
   0   4 -14   77.49    6.21
   0  -4 -14   80.45    4.07
   4   0 -14   73.34    6.52
  -4   0 -14   81.11    6.03
  -4   0 -14   71.91    5.28
   0   4 -13    1.78    1.14
  -4   0 -13    1.94    1.16
   0  -4 -13    2.44    0.89
   0  -4 -13    2.09    1.48
   0   4 -13    1.44    1.17
   4   0 -13    4.36    1.84
  -4   0 -13    1.26    1.00
   0   4 -12  301.95   11.14
   0  -4 -12  297.55   13.09
   4   0 -12  315.48   13.38
  -4   0 -12  296.17   11.77
   0   4 -12  302.88   11.95
   0  -4 -12  296.38    7.24
   0   4 -11  220.32    9.38
   0  -4 -11  223.17   11.14
   4   0 -11  215.99   10.90
  -4   0 -11  213.32    9.92
   0   4 -11  216.21    9.76
   0  -4 -11  216.42    5.51
   0   4 -10   34.06    3.62
   0  -4 -10   39.75    4.57
   4   0 -10   51.33    5.29
  -4   0 -10   53.84    4.91
   0   4 -10   38.84    3.92
   0  -4 -10   40.66    1.92
   0   4  -9  118.84    6.88
   0  -4  -9  132.97    8.43
  -4   0  -9  125.46    7.47
   4   0  -9  132.58    8.30
   0   4  -9  127.14    6.90
   0   4  -8  299.97   11.30
   0  -4  -8  301.21   12.80
  -4   0  -8  274.10   11.33
   4   0  -8  283.21   12.24
   0   4  -8  297.05   10.41
   0   4  -7  477.97   14.81
   0  -4  -7  479.13   16.44
   0   4  -7  486.95   13.33
   4   0  -7  511.88   16.64
  -4   0  -7  511.13   15.76
   0  -4  -6   12.42    2.59
   0   4  -6    5.84    1.33
   0   4  -6    6.81    1.93
  -4   0  -6   13.59    2.48
   4   0  -6   10.98    2.57
   0  -4  -5  305.22   12.68
   0   4  -5  314.99   11.90
   4   0  -5  309.15   12.65
  -4   0  -5  303.99   11.94
   0   4  -5  314.21    9.58
   0   4  -4   55.14    4.85
   0  -4  -4   51.97    5.15
  -4   0  -4   44.38    4.47
   4   0  -4   45.02    4.77
   0  -4  -3  323.00   12.81
   0   4  -3  294.55   11.72
  -4   0  -3  334.29   12.51
   4   0  -3  314.53   12.62
   0  -4  -2   89.68    6.61
   0   4  -2   70.19    5.65
   0  -4  -2   79.94    2.56
   4   0  -2   76.35    6.19
  -4   0  -2   84.27    6.16
   0  -4  -2   84.11    2.60
   0  -4  -1  327.92   12.84
   0   4  -1  338.14   12.71
   0  -4  -1  325.22    6.81
  -4   0  -1  363.71   13.08
   4   0  -1  367.90   13.41
   0  -4  -1  328.12    6.78
   0  -4   0  936.87   22.83
   0   4   0  907.86   22.39
   0  -4   0  922.47   14.76
  -4   0   0  890.20   22.22
   0  -4   0  908.13   14.65
   4   0   0  871.46   22.10
   0  -4   1  326.95   12.60
   0   4   1  329.27   12.78
   0  -4   1  317.82    7.94
  -4   0   1  377.71   13.42
   0  -4   1  322.46    7.88
   4   0   1  346.13   12.89
   0  -4   2   74.78    5.82
   0   4   2   86.65    6.36
   0  -4   2   73.70    3.81
  -4   0   2   80.74    6.10
   0  -4   2   79.48    3.91
   4   0   2   98.36    6.63
   0  -4   3  303.53   11.93
   0   4   3  307.71   12.42
   0  -4   3  293.15    8.48
  -4   0   3  305.72   12.19
   4   0   3  321.57   12.33
   0  -4   3  297.50    8.45
   0   4   4   44.22    4.64
   0  -4   4   46.66    4.53
   0  -4   4   44.36    3.32
  -4   0   4   39.02    4.34
   4   0   4   33.66    3.89
   0  -4   4   46.34    3.39
   0   4   5  300.70   12.49
   0  -4   5  299.02   11.77
   0  -4   5  302.88    9.51
  -4   0   5  309.05   12.48
   4   0   5  298.96   11.84
   0  -4   5  319.38    9.62
   0  -4   6    5.60    1.69
   0   4   6   11.01    2.43
   0  -4   6   10.00    1.97
  -4   0   6    9.96    2.37
   4   0   6   14.07    2.52
   0  -4   6    7.60    1.78
   0  -4   7  488.91   15.14
   0   4   7  499.63   16.56
   0  -4   7  488.93   13.49
  -4   0   7  492.78   16.25
   4   0   7  508.64   15.69
   0  -4   7  495.97   13.42
   0  -4   8  311.65   11.68
   0   4   8  296.87   12.68
   0  -4   8  299.07   10.55
  -4   0   8  273.97   12.05
   0  -4   8  309.13   10.62
   4   0   8  285.11   11.43
   0   4   9  116.93    7.90
   0  -4   9  118.46    7.07
   0  -4   9  117.52    6.66
  -4   0   9  121.33    7.92
   0  -4   9  111.86    6.48
   4   0   9  116.34    7.14
   0  -4  10   43.40    4.31
   0   4  10   41.27    4.77
   0  -4  10   41.00    4.13
  -4   0  10   50.70    5.16
   0  -4  10   42.51    4.12
   0  -4  11  219.66    9.55
   0   4  11  229.59   11.33
   0  -4  11  223.75    9.95
  -4   0  11  213.87   10.77
   0  -4  11  238.26   10.16
   0   4  12  318.45   13.54
   0  -4  12  317.75   11.52
   0  -4  12  315.66   12.31
  -4   0  12  325.49   13.52
   0  -4  12  324.32   12.38
   0  -4  13    1.75    1.27
   0   4  13    2.96    1.76
   0  -4  13   -0.33    0.65
  -4   0  13    1.11    1.35
   0  -4  13    1.06    0.94
   0  -4  13    1.28    0.62
   0   4  14   94.43    7.33
   0  -4  14   82.73    5.67
   0  -4  14   81.07    6.45
  -4   0  14   80.62    6.78
   0  -4  14   80.13    6.38
   0  -4  14   73.90    3.65
   0   4  15  301.14   13.46
   0  -4  15  279.65   10.55
   0  -4  15  275.94   12.47
  -4   0  15  317.76   14.20
  -4   0  15  302.32   13.49
   0  -4  15  298.34   12.80
   0  -4  15  286.59    7.29
   0   4  16  716.46   21.64
   0  -4  16  707.82   17.66
   0  -4  16  717.24   21.38
  -4   0  16  716.42   22.48
  -4   0  16  704.94   21.59
   0  -4  16  705.72   12.33
   0  -4  16  747.95   21.57
   0   4  17  224.95   11.62
   0  -4  17  191.30    8.46
  -4   0  17  217.25   11.96
   0  -4  17  212.80   11.28
  -4   0  17  217.39   11.50
   0  -4  17  200.94    5.05
   0  -4  17  200.84   10.97
   0  -4  18    2.75    1.22
   0   4  18    3.68    2.07
  -4   0  18    0.79    0.81
   0  -4  18    2.48    1.56
  -4   0  18    1.35    1.54
   0  -4  18    4.57    2.29
   0   4  19   78.75    6.91
   0  -4  19   64.40    4.71
  -4   0  19   75.77    7.28
   0  -4  19   75.05    6.99
  -4   0  19   69.63    6.71
   0  -4  19   70.85    6.79
   0  -4  20   81.95    5.26
   0   4  20   78.76    7.09
   0  -4  20   83.10    7.49
  -4   0  20   79.00    7.16
   0  -4  20   82.93    7.50
   0  -4  21  294.10   10.16
   0   4  21  310.00   14.36
  -4   0  21  327.01   14.82
   0  -4  21  312.06   15.13
   0  -4  22    4.61    1.37
   0   4  22    6.22    2.39
  -4   0  22   10.33    2.88
   0  -4  22    4.55    2.11
   0   4  23  154.54   10.03
   0  -4  23  146.25    6.70
  -4   0  23  142.37    9.91
   0  -4  23  142.38   10.47
   0   4  24  109.14    8.56
   0  -4  24  106.33    5.53
  -4   0  24  106.04    8.61
   0  -4  24  101.31    9.00
   0   4  25   68.68    6.82
   0  -4  25   77.10    4.54
  -4   0  25   75.42    7.37
   0  -4  25   75.01    7.86
   0   4  26   16.08    3.65
   0  -4  26    8.87    1.58
  -4   0  26   12.51    3.12
   0  -4  26    7.84    2.50
   0  -4  27   94.56    4.61
   0   4  27   97.21    8.31
  -4   0  27   98.81    8.66
   0  -4  27   94.72    9.27
   0  -4  28   96.19    4.32
   0   4  28   99.47    8.45
  -4   0  28   91.77    8.39
  -4   0  28   89.92    9.08
   0  -4  28   93.16    9.37
   0   4  29   83.79    7.78
  -4   0  29   76.03    7.72
  -4   0  29   73.68    8.44
   0  -4  29   82.24    8.84
   0   4  30   14.26    3.31
  -4   0  30   20.08    4.08
   0  -4  30   20.54    4.54
  -4   0  30   22.24    4.94
   0   4  31   60.91    6.59
  -4   0  31   67.95    7.45
  -4   0  31   61.09    7.90
   0  -4  31   52.13    7.38
   0   4  32   53.17    6.34
  -4   0  32   46.57    6.16
  -4   0  32   55.75    7.64
   0  -4  32   49.84    7.48
   0   4  33   50.21    6.09
  -4   0  33   58.04    7.03
   0  -4  33   46.45    7.30
  -4   0  33   49.05    7.42
   0   4  34   10.03    2.68
  -4   0  34   14.43    3.77
  -4   0  34   14.55    4.32
   0  -4  34   18.72    4.88
   0   4  35   87.30    8.14
  -4   0  35   88.28   10.19
   0  -4  35   96.41   10.88
   0   4  36   25.35    4.53
  -4   0  36   25.36    5.71
   0  -4  36   21.33    5.30
   0   4  37  115.04    9.45
  -4   0  37  117.86   12.14
   0  -4  37  116.95   12.21
   0   4  38    7.58    2.74
  -4   0  38    8.47    3.31
   0  -4  38   11.31    4.36
  -4   0  39   81.15   10.37
   0  -4  39   80.53   10.63
  -4   0  40   68.44    9.54
  -4   0  41   32.72    6.84
  -4  -1 -40  126.12   13.13
   1  -4 -40  124.91   11.32
  -4  -1 -39    7.49    2.80
   1  -4 -39   17.87    4.24
  -1   4 -39   18.18    5.47
  -4  -1 -38   20.32    5.01
  -1   4 -38   13.55    4.07
   1  -4 -38   12.59    3.64
  -4  -1 -37   12.68    3.58
   1  -4 -37   18.08    4.08
  -1   4 -37   22.76    5.63
  -4  -1 -36  124.55   12.43
   1  -4 -36  112.83    9.95
  -1   4 -36  113.67   12.17
  -4  -1 -36  121.48    9.36
  -4  -1 -35   15.41    4.41
  -1   4 -35   31.84    6.33
   1  -4 -35   17.40    3.94
  -4  -1 -35   16.47    3.53
  -4  -1 -34   12.10    3.80
  -1   4 -34   14.03    4.10
   1  -4 -34   13.76    3.36
  -4  -1 -34   14.36    3.32
  -1   4 -33    4.50    2.00
   1  -4 -33    4.86    2.19
  -4  -1 -33    1.44    2.28
  -4  -1 -33    3.01    1.78
  -4  -1 -32  107.98   10.78
   1  -4 -32  103.71    8.71
  -1   4 -32  119.00   11.41
  -4  -1 -32  115.00    8.84
  -1   4 -31   24.82    5.30
   1  -4 -31   30.66    4.79
  -4  -1 -31   37.08    6.28
  -4  -1 -31   32.84    4.83
  -1   4 -30   14.36    3.77
   1  -4 -30   12.40    2.85
  -4  -1 -30   10.20    3.32
  -4  -1 -30   10.97    2.86
  -1   4 -29   10.62    3.50
   1  -4 -29   10.17    2.72
  -4  -1 -29   20.13    4.42
  -4  -1 -29   15.04    3.31
  -4  -1 -28  450.36   20.94
   1  -4 -28  431.95   16.57
  -1   4 -28  434.55   20.58
  -4  -1 -28  440.65   13.50
  -4  -1 -28  413.68   16.72
  -1   4 -27   25.02    4.84
   1  -4 -27   23.76    3.71
  -4  -1 -27   21.14    4.51
  -4  -1 -27   21.27    2.81
  -4  -1 -27   23.20    4.19
  -1   4 -26   14.11    3.79
   1  -4 -26   12.19    2.50
  -4  -1 -26    8.36    3.02
  -4  -1 -26   14.07    2.42
  -4  -1 -26   14.00    3.10
  -4  -1 -25   47.03    4.34
   1  -4 -25   55.03    5.26
  -1   4 -25   45.96    6.30
  -4  -1 -25   45.03    6.18
   4   1 -25   46.31    5.69
  -4  -1 -25   48.02    5.45
  -4  -1 -24  314.08   11.67
  -4  -1 -24  310.85   16.31
   1  -4 -24  305.28   12.31
  -1   4 -24  317.62   16.19
   4   1 -24  298.40   14.26
  -4  -1 -24  324.34   14.21
   1  -4 -23    9.66    2.20
  -4  -1 -23    6.32    2.46
  -1   4 -23    9.03    2.75
  -4  -1 -23    6.43    1.76
   4   1 -23   10.52    2.63
  -4  -1 -23    6.68    2.08
   1  -4 -22    2.13    1.32
  -1   4 -22    0.58    1.00
  -4  -1 -22    2.54    1.78
  -1   4 -22    1.54    0.74
  -4  -1 -22    0.60    0.71
  -4  -1 -22    0.55    0.88
   4   1 -22    0.80    0.97
  -4  -1 -21   26.35    3.40
  -1   4 -21   42.49    3.36
   1  -4 -21   43.57    4.05
  -1   4 -21   35.51    5.09
   4   1 -21   37.02    4.81
  -4  -1 -21   27.50    3.98
  -4  -1 -20  352.54   12.76
  -1   4 -20  372.77   10.84
   1  -4 -20  382.14   12.10
  -1   4 -20  361.70   16.01
   4   1 -20  353.70   15.20
  -4  -1 -20  373.64   14.81
  -1   4 -20  370.29   16.34
  -4  -1 -19   79.99    5.84
  -1   4 -19   83.15    4.93
  -1   4 -19   95.86    7.88
   4   1 -19   88.17    7.30
  -4  -1 -19   85.99    6.84
  -1   4 -19   97.25    8.01
  -1   4 -18    7.99    2.33
  -1   4 -18    8.72    1.71
  -4  -1 -18    9.80    2.06
   4   1 -18    6.25    1.99
  -4  -1 -18    8.20    2.22
  -1   4 -18    9.06    2.41
  -1   4 -17   26.66    2.87
  -4  -1 -17   23.30    3.17
  -1   4 -17   30.30    4.26
   1  -4 -17   25.87    4.27
  -4  -1 -17   27.36    3.82
   4   1 -17   27.11    4.09
  -1   4 -17   24.81    3.92
  -4  -1 -16  306.81   11.99
  -1   4 -16  305.55   10.45
  -1   4 -16  320.03   13.68
   4   1 -16  304.35   13.50
   1  -4 -16  325.88   14.98
  -4  -1 -16  298.38   12.75
  -1   4 -16  310.44   13.57
  -1   4 -15  164.78    7.61
  -4  -1 -15  160.63    8.52
  -1   4 -15  177.64    9.76
   4   1 -15  160.18    9.61
   1  -4 -15  179.54   10.90
  -4  -1 -15  165.03    9.31
  -1   4 -15  169.03    9.61
  -4  -1 -14   14.50    2.63
  -1   4 -14   14.20    2.34
  -1   4 -14   14.13    2.77
   1  -4 -14   12.59    3.00
  -4  -1 -14   12.21    2.62
  -1   4 -14   14.70    2.92
   4   1 -14   13.79    2.79
  -4  -1 -13  123.59    7.46
  -1   4 -13  119.55    6.61
  -1   4 -13  126.93    7.92
   4   1 -13  125.82    8.29
   1  -4 -13  136.70    9.22
  -4  -1 -13  129.96    8.21
  -1   4 -13  121.14    7.76
  -1   4 -12  910.71   20.73
  -4  -1 -12  952.61   22.71
  -1   4 -12  936.18   22.64
   4   1 -12  949.25   24.49
   1  -4 -12  948.28   25.75
  -4  -1 -12  957.78   24.01
  -1   4 -12  921.34   22.69
  -1   4 -11  127.12    6.93
  -4  -1 -11   91.32    6.43
  -1   4 -11  124.74    7.27
   1  -4 -11  109.14    8.07
   4   1 -11   99.91    7.34
  -4  -1 -11   93.68    6.93
  -1   4 -11  126.74    7.43
  -4  -1 -10   49.43    4.71
  -1   4 -10   38.17    3.83
  -1   4 -10   41.48    4.08
   1  -4 -10   50.02    5.27
   4   1 -10   42.44    4.75
  -4  -1 -10   48.78    4.97
  -1   4 -10   38.24    3.95
  -1   4  -9  147.40    7.70
  -1   4  -9  159.66    7.76
   1  -4  -9  175.00    9.90
   4   1  -9  151.59    8.88
   1  -4  -9  165.44    9.63
  -4  -1  -9  139.00    8.36
  -1   4  -9  163.46    7.86
  -4  -1  -9  133.40    7.85
  -1   4  -8  721.91   18.63
  -1   4  -8  710.57   17.26
   1  -4  -8  731.57   21.26
   1  -4  -8  731.57   21.07
  -4  -1  -8  774.94   20.73
   4   1  -8  757.34   20.85
  -1   4  -8  701.32   17.25
  -4  -1  -8  749.76   19.93
  -1   4  -7   86.34    6.02
  -1   4  -7   92.33    5.36
   1  -4  -7   81.75    6.70
   1  -4  -7   83.08    6.64
  -4  -1  -7   61.91    5.32
  -1   4  -7   91.64    5.42
   4   1  -7   65.91    5.80
  -4  -1  -7   60.05    5.41
  -1   4  -6  132.78    7.48
  -1   4  -6  133.16    6.23
   1  -4  -6  132.63    8.44
   1  -4  -6  130.20    8.11
   4   1  -6  141.16    8.45
  -4  -1  -6  137.54    7.99
  -1   4  -6  138.81    6.39
  -4  -1  -6  136.85    8.09
  -1   4  -5  152.66    8.11
   1  -4  -5  150.45    8.91
  -1   4  -5  147.82    6.29
  -4  -1  -5  129.26    7.96
   1  -4  -5  163.21    9.01
   4   1  -5  123.32    7.96
  -1   4  -5  144.46    6.25
  -1   4  -4  682.99   18.56
   1  -4  -4  696.94   20.13
  -1   4  -4  675.17   14.40
  -4  -1  -4  707.28   19.54
   1  -4  -4  683.43   19.19
   4   1  -4  716.34   20.01
  -1   4  -4  693.74   14.60
  -1   4  -3   54.23    4.94
   1  -4  -3   55.93    5.30
  -1   4  -3   52.53    3.27
  -4  -1  -3   47.98    4.87
   1  -4  -3   55.61    5.14
   4   1  -3   50.77    5.09
  -1   4  -2   24.82    3.51
   1  -4  -2   18.09    2.98
  -1   4  -2   25.68    2.10
   1  -4  -2   17.27    2.69
  -4  -1  -2   20.31    3.15
   4   1  -2   26.17    3.55
  -1   4  -1   16.61    2.72
   1  -4  -1   18.66    3.00
  -1   4  -1   14.83    1.45
   1  -4  -1   23.47    3.29
  -4  -1  -1   14.94    2.68
   4   1  -1   16.18    2.85
  -1   4   0  539.10   16.61
   1  -4   0  548.32   16.87
  -1   4   0  531.13    9.73
  -4  -1   0  534.18   16.79
   1  -4   0  546.93   15.72
   4   1   0  545.67   17.00
  -1   4   1   17.38    2.92
  -1   4   1   18.99    1.24
   1  -4   1   16.58    2.99
   1  -4   1   16.20    2.72
   4   1   1   14.64    2.92
  -4  -1   1   15.29    2.69
  -1   4   2   18.73    3.04
   1  -4   2   25.28    3.41
   1  -4   2   29.02    3.29
   4   1   2   19.63    3.24
  -4  -1   2   26.16    3.65
   1  -4   3   60.87    5.36
  -1   4   3   52.82    5.12
  -4  -1   3   60.48    5.43
   1  -4   3   61.52    4.71
   4   1   3   54.47    5.13
   1  -4   4  678.88   18.69
  -1   4   4  687.59   19.82
  -4  -1   4  724.25   20.09
   1  -4   4  681.36   16.76
   4   1   4  692.50   19.47
  -1   4   5  164.77    9.14
   1  -4   5  160.22    8.50
  -4  -1   5  139.26    8.39
   1  -4   5  158.54    7.24
   4   1   5  140.70    8.36
   1  -4   6  134.90    7.66
  -1   4   6  140.23    8.57
  -4  -1   6  140.17    8.45
   1  -4   6  134.24    6.50
   1  -4   7   86.91    6.10
  -1   4   7   82.22    6.67
   1  -4   7   83.25    4.95
  -4  -1   7   61.74    5.68
   1  -4   8  697.67   18.34
  -1   4   8  726.58   20.82
  -4  -1   8  749.95   20.75
   1  -4   8  698.26   15.58
   1  -4   9  152.92    7.94
  -1   4   9  176.30    9.95
   1  -4   9  152.48    7.61
  -4  -1   9  142.66    8.55
   1  -4   9  143.12    6.16
   1  -4   9  146.72    7.46
   1  -4  10   36.17    3.73
  -1   4  10   45.19    5.15
   1  -4  10   39.57    4.01
   1  -4  10   38.30    3.01
  -4  -1  10   38.10    4.42
   1  -4  10   37.30    3.93
   1  -4  11  118.97    6.84
  -1   4  11  108.88    7.97
   1  -4  11  127.28    7.37
   1  -4  11  115.70    5.02
  -4  -1  11   94.10    7.07
   1  -4  11  119.72    7.21
   1  -4  12  885.53   20.53
  -1   4  12  933.75   24.79
   1  -4  12  896.83   22.17
  -4  -1  12  932.46   23.98
   1  -4  12  897.18   16.12
   1  -4  12  923.98   22.52
  -1   4  13  123.58    8.57
   1  -4  13  100.76    6.14
   1  -4  13  107.79    7.28
  -4  -1  13  121.14    8.06
   1  -4  13  108.86    4.28
   1  -4  13  119.65    7.60
  -1   4  14   13.81    3.09
   1  -4  14   12.79    2.16
   1  -4  14   14.98    2.83
   1  -4  14   14.59    1.37
  -4  -1  14   14.53    2.88
   1  -4  14   17.68    3.18
   1  -4  15  165.04    7.71
  -1   4  15  170.81   10.24
  -4  -1  15  171.32   10.73
   1  -4  15  164.28    9.51
   1  -4  15  170.70    4.26
  -4  -1  15  163.95    9.62
   1  -4  15  181.02    9.91
   1  -4  15  169.09    4.23
  -1   4  16  288.13   13.53
  -4  -1  16  309.81   14.71
   1  -4  16  295.78   10.40
   1  -4  16  317.32   13.68
  -4  -1  16  287.91   13.09
   1  -4  16  302.80   13.35
  -1   4  17   24.21    3.96
   1  -4  17   24.11    3.89
  -4  -1  17   25.56    4.35
   1  -4  17   22.43    2.72
  -4  -1  17   25.24    3.89
   1  -4  17   22.36    3.67
  -1   4  18   11.67    2.85
   1  -4  18    6.91    2.25
  -4  -1  18    9.01    2.39
   1  -4  18    9.08    2.60
  -1   4  19   94.26    7.85
   1  -4  19   92.86    7.88
  -4  -1  19   89.55    7.34
   1  -4  19  102.37    8.25
  -1   4  20  363.51   15.76
   1  -4  20  376.24   16.42
  -4  -1  20  362.20   15.22
   1  -4  20  368.50   16.11
  -1   4  21   38.70    5.25
  -4  -1  21   32.73    4.54
   1  -4  21   32.15    4.88
  -1   4  22   -0.91    1.33
  -4  -1  22   -0.01    0.85
   1  -4  22    2.53    1.83
  -1   4  23   12.13    3.16
  -4  -1  23    7.25    2.17
   1  -4  23   13.84    3.56
  -1   4  24  320.30   15.21
  -4  -1  24  309.54   14.56
   1  -4  24  326.08   16.46
  -1   4  25   41.75    5.48
  -4  -1  25   46.15    5.56
   1  -4  25   42.56    6.05
  -1   4  26   13.41    3.31
  -4  -1  26   12.48    3.05
   1  -4  26    8.96    2.95
  -1   4  27   25.13    4.46
  -4  -1  27   27.60    4.41
   1  -4  27   21.84    4.84
  -1   4  28  428.31   18.37
  -4  -1  28  437.45   18.06
   1  -4  28  439.27   20.76
  -4  -1  28  420.44   20.58
  -1   4  29    8.41    2.78
  -4  -1  29   10.60    2.97
  -4  -1  29   10.65    3.34
   1  -4  29    8.16    3.15
  -1   4  30    8.46    2.58
  -4  -1  30   12.41    3.26
  -4  -1  30   10.08    3.34
   1  -4  30   12.91    3.81
  -1   4  31   34.46    5.21
  -4  -1  31   38.52    5.56
  -4  -1  31   28.93    5.84
   1  -4  31   35.48    6.28
  -1   4  32   97.41    8.91
  -4  -1  32  108.26    9.20
  -4  -1  32  112.49   11.16
   1  -4  32  112.80   11.09
  -1   4  33   -0.23    1.56
  -4  -1  33    4.34    1.66
  -4  -1  33    3.28    2.30
  -1   4  34   14.61    3.49
  -4  -1  34   20.58    4.23
  -4  -1  34   17.09    4.64
  -1   4  35   18.50    3.76
  -4  -1  35   21.03    4.18
  -4  -1  35   18.50    4.72
  -1   4  36  112.94    9.75
  -4  -1  36  114.40    9.76
  -4  -1  36  130.75   13.02
  -1   4  37   24.49    4.82
  -4  -1  37   21.79    5.65
  -1   4  38   14.77    3.74
  -4  -1  38   14.69    4.41
  -4  -1  39   18.38    5.33
  -4  -1  40  125.71   13.48
  -4  -2 -40   28.80    6.12
  -4  -2 -39   40.87    7.65
  -2   4 -38   34.19    7.13
  -4  -2 -38   27.63    5.99
  -4  -2 -38   20.36    4.25
  -2   4 -37   68.65    9.56
  -4  -2 -37   61.19    8.83
  -4  -2 -37   56.34    6.98
  -2   4 -36   30.06    6.21
  -4  -2 -36   28.46    5.79
  -4  -2 -36   28.93    5.03
  -2   4 -35   36.96    6.95
  -4  -2 -35   25.94    5.67
  -4  -2 -35   33.05    5.33
  -4  -2 -34   35.06    6.41
  -2   4 -34   48.10    7.58
  -4  -2 -34   42.39    5.96
  -4  -2 -33   53.91    7.79
  -2   4 -33   68.73    8.84
  -4  -2 -33   55.94    6.78
  -4  -2 -32   99.36   10.27
  -2   4 -32   68.21    8.65
  -4  -2 -32   95.28    8.83
  -4  -2 -31   56.52    7.70
  -2   4 -31   47.02    7.19
  -4  -2 -31   48.38    6.19
  -4  -2 -30   72.76    8.52
  -2   4 -30   88.95    9.66
  -4  -2 -30   74.09    7.69
  -2   4 -29   22.66    4.91
  -4  -2 -29   21.23    4.40
  -4  -2 -29   26.93    4.56
  -4  -2 -28   47.61    4.95
  -2   4 -28   28.64    5.21
  -4  -2 -28   39.96    6.20
   4   2 -28   38.71    5.22
  -4  -2 -28   46.53    5.91
  -2   4 -27   19.96    4.31
  -4  -2 -27   15.39    3.97
  -4  -2 -27   20.66    3.42
   4   2 -27   17.01    3.42
  -4  -2 -27   19.21    3.81
  -4  -2 -26  170.94   12.34
  -2   4 -26  170.83   12.39
  -4  -2 -26  161.23    9.18
   4   2 -26  151.80   10.07
  -4  -2 -26  150.11   10.48
  -2   4 -25  113.11    9.95
  -4  -2 -25  116.40    9.98
  -4  -2 -25  108.24    7.56
  -4  -2 -25  104.20    8.60
   4   2 -25  112.19    8.57
  -4  -2 -24  134.72   10.61
  -2   4 -24  110.33    9.68
  -2   4 -24  111.17    4.56
  -4  -2 -24  125.83    8.15
  -4  -2 -24  126.39    9.38
   4   2 -24  129.09    9.19
  -4  -2 -23   57.25    6.90
  -2   4 -23   65.24    7.38
  -2   4 -23   63.85    3.66
  -4  -2 -23   55.83    5.43
  -4  -2 -23   62.66    6.54
   4   2 -23   61.57    6.30
  -2   4 -22   66.53    7.16
  -4  -2 -22   51.90    5.24
  -2   4 -22   69.82    4.13
   4   2 -22   54.20    5.80
  -4  -2 -22   58.16    6.39
  -2   4 -21  150.54   10.59
  -4  -2 -21  148.94    8.90
  -2   4 -21  154.87    6.51
  -4  -2 -21  149.20    9.91
   4   2 -21  149.17    9.60
  -2   4 -20  100.60    8.48
  -2   4 -20   96.38    5.29
  -4  -2 -20  107.60    7.54
  -4  -2 -20  113.49    8.57
   4   2 -20  100.41    7.81
  -2   4 -19   64.75    6.66
  -4  -2 -19   55.77    5.48
  -2   4 -19   63.13    4.38
  -4  -2 -19   60.28    6.23
  -2   4 -19   62.45    6.57
   4   2 -19   53.85    5.70
  -2   4 -18   97.73    7.94
  -4  -2 -18   81.66    6.58
  -2   4 -18  102.51    5.73
  -4  -2 -18   81.26    7.30
  -2   4 -18  104.84    8.32
   4   2 -18   86.33    7.19
  -2   4 -17  116.31    8.53
  -4  -2 -17   94.90    7.06
  -2   4 -17  109.20    6.04
  -2   4 -17  100.31    7.96
  -4  -2 -17   98.11    7.77
   4   2 -17  109.45    7.99
  -2   4 -16  241.58   12.09
  -2   4 -16  245.87    9.51
  -4  -2 -16  276.31   12.17
  -2   4 -16  248.79   12.41
  -4  -2 -16  274.25   13.15
   4   2 -16  269.88   12.65
  -4  -2 -15  173.31    9.56
  -2   4 -15  163.20    7.81
  -2   4 -15  179.28   10.12
   2  -4 -15  169.17   10.91
  -2   4 -15  170.29    9.90
  -4  -2 -15  162.27    9.91
   4   2 -15  155.72    9.46
  -2   4 -14  164.14    7.90
  -4  -2 -14  145.51    8.83
  -2   4 -14  163.45    9.46
   2  -4 -14  155.03   10.28
   4   2 -14  152.90    9.29
  -2   4 -14  178.38    9.90
  -4  -2 -14  141.11    9.18
  -4  -2 -13   29.22    3.91
  -2   4 -13   27.24    3.31
  -2   4 -13   25.15    3.66
   2  -4 -13   31.33    4.54
  -4  -2 -13   34.42    4.57
  -2   4 -13   21.00    3.33
   4   2 -13   31.05    4.15
  -4  -2 -12   61.99    5.74
  -2   4 -12   47.10    4.41
  -2   4 -12   46.84    4.80
   2  -4 -12   57.85    6.16
  -2   4 -12   50.31    4.98
  -4  -2 -12   59.98    5.83
   4   2 -12   61.36    5.79
  -4  -2 -11  213.86   10.64
  -2   4 -11  199.49    9.18
  -2   4 -11  204.39    9.81
   2  -4 -11  216.24   11.67
   4   2 -11  223.07   11.08
  -4  -2 -11  223.09   11.31
  -2   4 -11  201.84    9.78
  -4  -2 -10  243.87   11.54
  -2   4 -10  262.93   10.70
  -2   4 -10  267.20   10.96
   2  -4 -10  279.85   13.18
  -2   4 -10  271.52   11.11
  -4  -2 -10  244.19   11.82
   4   2 -10  242.52   11.63
  -2   4  -9  129.20    7.49
  -4  -2  -9  137.76    8.57
  -2   4  -9  140.76    7.61
   2  -4  -9  142.16    9.20
  -2   4  -9  121.76    7.14
  -4  -2  -9  133.07    8.63
   4   2  -9  136.39    8.54
  -4  -2  -8  244.42   11.48
  -2   4  -8  196.72    9.41
  -2   4  -8  195.53    8.81
   2  -4  -8  195.40   10.65
  -2   4  -8  197.37    8.91
  -4  -2  -8  231.22   11.35
   4   2  -8  240.90   11.43
  -2   4  -7  264.87   11.11
  -4  -2  -7  278.18   12.39
  -2   4  -7  273.60   10.16
   2  -4  -7  305.43   13.24
  -2   4  -7  270.73   10.16
  -4  -2  -7  286.38   12.77
   4   2  -7  270.65   12.21
  -4  -2  -6  296.20   12.82
  -2   4  -6  315.89   12.19
  -2   4  -6  325.82   10.76
   2  -4  -6  328.09   13.51
  -2   4  -6  309.95   10.54
  -4  -2  -6  296.38   13.04
   4   2  -6  298.34   12.82
  -2   4  -5  268.15   11.30
  -4  -2  -5  274.27   12.29
  -2   4  -5  263.63    9.31
   2  -4  -5  273.17   12.16
  -4  -2  -5  267.35   12.17
   4   2  -5  277.04   12.28
  -2   4  -5  249.10    9.07
  -2   4  -4  109.39    7.18
  -4  -2  -4  114.53    7.79
  -2   4  -4  117.30    5.81
   2  -4  -4  101.30    7.19
  -4  -2  -4  111.66    7.87
   4   2  -4  115.27    7.80
  -2   4  -4  109.01    5.59
  -2   4  -3  227.83   10.57
  -4  -2  -3  227.93   11.19
  -2   4  -3  231.91    8.01
   2  -4  -3  225.45   10.67
  -2   4  -3  226.51    7.97
   4   2  -3  217.73   10.86
  -4  -2  -3  226.36   11.15
  -2   4  -2  478.49   15.86
  -4  -2  -2  444.03   15.98
  -2   4  -2  464.92   11.48
   2  -4  -2  462.00   15.37
   4   2  -2  452.61   16.00
  -4  -2  -2  425.21   15.65
  -2   4  -2  462.55   11.45
  -2   4  -1  406.99   14.62
  -4  -2  -1  380.41   14.78
  -2   4  -1  391.18    9.96
   2  -4  -1  406.10   14.07
   4   2  -1  395.57   14.82
  -2   4  -1  386.15    9.93
  -4  -2  -1  380.70   14.56
  -2   4   0  515.48   16.78
  -2   4   0  490.39   11.13
   2  -4   0  525.90   16.00
  -4  -2   0  602.64   18.56
  -2   4   0  487.58   11.14
  -4  -2   0  581.40   18.10
  -2   4   1  426.45   15.34
  -2   4   1  422.14    9.64
   2  -4   1  439.27   14.12
  -4  -2   1  414.48   15.18
  -2   4   1  423.48    9.69
  -4  -2   1  439.17   15.92
  -2   4   2  442.33   15.75
  -2   4   2  433.97    9.38
   2  -4   2  448.02   14.04
  -4  -2   2  439.39   15.64
  -4  -2   2  445.82   16.03
  -2   4   2  421.31    9.29
  -2   4   3  248.85   11.67
   2  -4   3  254.05   10.13
  -4  -2   3  262.72   11.83
  -4  -2   3  258.42   12.04
  -2   4   4   96.82    7.25
   2  -4   4   94.74    5.94
  -4  -2   4  108.03    7.54
  -4  -2   4  108.33    7.73
  -2   4   5  297.72   13.05
   2  -4   5  291.10   10.45
  -4  -2   5  298.41   12.74
  -4  -2   5  299.78   13.15
  -2   4   6  313.15   13.48
   2  -4   6  295.48   10.28
  -4  -2   6  290.54   12.57
  -4  -2   6  293.59   12.93
  -2   4   7  292.88   13.14
  -2   4   7  286.32    6.44
  -4  -2   7  278.42   12.28
   2  -4   7  278.46    9.75
  -4  -2   7  294.95   13.04
  -2   4   8  188.82   10.61
  -2   4   8  192.21    5.26
  -4  -2   8  231.47   11.07
   2  -4   8  197.69    7.90
  -4  -2   8  237.24   11.62
  -2   4   9  145.74    9.30
  -2   4   9  125.99    4.27
   2  -4   9  126.23    6.01
  -4  -2   9  136.37    8.53
  -2   4  10  271.55   12.92
  -2   4  10  254.14    6.63
   2  -4  10  266.93    8.68
  -4  -2  10  249.05   11.76
  -2   4  10  257.44    6.65
  -2   4  11  195.77   10.90
  -2   4  11  183.68    5.81
  -4  -2  11  216.12   10.87
   2  -4  11  190.65    7.00
  -2   4  11  193.26    5.92
  -2   4  12   58.87    6.06
  -2   4  12   58.84    3.32
   2  -4  12   54.20    3.45
  -4  -2  12   69.55    6.15
  -2   4  12   59.02    3.33
  -2   4  13   24.73    2.27
  -2   4  13   24.98    3.99
  -4  -2  13   28.01    3.96
   2  -4  13   19.56    1.96
  -2   4  13   24.17    2.24
  -2   4  14  142.80    9.53
  -4  -2  14  143.44    9.95
  -2   4  14  139.06    5.78
  -4  -2  14  130.87    8.50
   2  -4  14  149.96    5.16
  -2   4  14  144.90    5.87
  -2   4  15  183.98   10.99
  -4  -2  15  173.83   11.06
  -2   4  15  169.80    6.74
  -4  -2  15  165.23    9.65
   2  -4  15  177.72    5.11
  -2   4  15  170.41    6.72
  -2   4  16  244.14   12.79
  -2   4  16  238.81    8.45
   2  -4  16  236.42    5.21
  -4  -2  16  269.78   12.38
  -2   4  16  245.39    8.51
  -2   4  17  100.66    8.22
  -2   4  17  106.38    5.71
  -4  -2  17  101.61    7.60
  -2   4  17  114.13    5.88
  -2   4  18   87.58    7.75
  -2   4  18   85.71    5.28
  -4  -2  18   84.71    6.98
  -2   4  18   91.24    5.44
  -2   4  19   67.76    6.85
  -2   4  19   64.37    4.74
  -4  -2  19   65.43    6.22
  -2   4  19   66.26    4.80
  -2   4  20   92.34    8.14
  -2   4  20   85.34    5.69
  -4  -2  20  107.39    8.01
  -2   4  20   84.06    5.65
  -2   4  21  161.16   10.76
  -2   4  21  155.52    8.05
  -4  -2  21  160.13    9.90
  -2   4  21  158.11    8.05
  -2   4  22   73.97    7.40
  -2   4  22   66.73    5.40
  -4  -2  22   61.83    6.19
  -2   4  22   72.28    5.58
  -2   4  23   60.68    6.69
  -2   4  23   55.36    5.04
  -4  -2  23   53.34    5.83
  -2   4  23   59.61    5.23
  -2   4  24  115.45    9.34
  -2   4  24  112.79    7.43
  -4  -2  24  127.89    9.03
  -2   4  24  117.36    7.59
  -2   4  25  103.42    8.97
  -2   4  25  100.52    7.22
  -4  -2  25  119.07    8.82
  -2   4  25  106.74    7.44
  -2   4  26  167.95   11.63
  -2   4  26  161.02    9.48
  -4  -2  26  171.03   10.62
  -2   4  26  180.95    9.95
  -4  -2  27   11.83    2.91
  -2   4  27   15.30    3.80
  -2   4  27   12.61    2.82
  -4  -2  27   14.03    2.99
  -2   4  27   13.53    2.83
  -2   4  28   36.45    5.53
  -2   4  28   34.65    4.65
  -4  -2  28   45.35    5.56
  -4  -2  28   40.76    5.20
  -2   4  28   37.94    4.82
  -4  -2  28   46.24    6.75
  -4  -2  29   21.13    3.90
  -2   4  29   18.50    3.98
  -2   4  29   23.13    4.00
  -4  -2  29   22.92    4.05
  -2   4  29   20.19    3.73
  -4  -2  29   25.87    5.54
  -2   4  30   71.14    7.80
  -2   4  30   76.24    7.30
  -4  -2  30   74.50    7.39
  -4  -2  30   78.71    9.31
  -2   4  30   77.47    7.16
  -2   4  31   41.52    6.07
  -4  -2  31   47.77    5.80
  -4  -2  31   47.55    7.40
  -2   4  31   41.83    5.47
  -2   4  32   73.93    8.14
  -4  -2  32   91.88    8.19
  -4  -2  32   90.79   10.32
  -2   4  32   76.10    7.50
  -2   4  33   66.97    7.69
  -4  -2  33   63.96    6.76
  -4  -2  33   68.43    9.18
  -2   4  33   61.37    6.86
  -2   4  34   44.59    6.32
  -4  -2  34   36.64    5.22
  -4  -2  34   36.00    6.75
  -2   4  34   48.49    6.33
  -2   4  35   39.47    5.93
  -4  -2  35   40.33    5.66
  -4  -2  35   42.06    7.46
  -2   4  35   38.69    5.67
  -2   4  36   21.12    4.61
  -4  -2  36   29.49    4.77
  -2   4  36   17.90    3.94
  -4  -2  36   29.07    6.37
  -2   4  37   59.15    7.52
  -4  -2  37   61.43    9.09
  -2   4  37   62.38    7.50
  -2   4  38   26.68    5.04
  -4  -2  38   18.61    5.54
  -2   4  39   45.60    6.61
  -4  -3 -41    1.74    2.23
  -4  -3 -40    1.00    1.94
  -4  -3 -39   12.77    4.46
  -4  -3 -38   71.04    9.69
  -4  -3 -37    3.39    2.40
  -3   4 -37    4.19    2.98
  -4  -3 -36    3.42    1.80
  -3   4 -36    3.62    2.10
  -4  -3 -35   18.19    4.82
  -3   4 -35   15.57    4.32
  -4  -3 -34  124.89   11.88
  -3   4 -34  119.32   12.29
  -4  -3 -33    3.16    2.16
  -3   4 -33    1.97    1.30
  -3   4 -32    2.64    2.38
  -4  -3 -32    0.98    1.71
  -3   4 -31   18.70    5.27
  -4  -3 -31   27.54    5.31
  -4  -3 -30  368.24   19.19
  -3   4 -30  353.81   19.93
  -3   4 -29    1.63    1.67
  -4  -3 -29    4.39    2.59
  -3   4 -28    1.49    2.07
  -4  -3 -28    2.07    1.35
  -4  -3 -28    3.93    2.02
  -3   4 -27    8.68    3.19
  -4  -3 -27   12.95    3.42
  -4  -3 -27   10.82    2.63
   4   3 -27    8.16    2.40
  -4  -3 -26  316.53   16.76
  -3   4 -26  324.04   17.64
  -4  -3 -26  308.04   14.42
  -3   4 -26  304.39    6.69
   4   3 -26  276.94   13.69
  -3   4 -25    3.22    2.18
  -4  -3 -25   -0.04    1.64
  -4  -3 -25    2.99    1.42
  -3   4 -25    1.48    0.69
   4   3 -25    0.88    1.15
  -3   4 -24   13.29    3.73
  -4  -3 -24   14.44    3.65
  -3   4 -24   13.22    1.79
  -4  -3 -24   16.08    3.28
   4   3 -24   10.70    2.78
  -3   4 -23   29.79    5.19
  -4  -3 -23   17.19    3.76
  -3   4 -23   28.56    2.73
  -4  -3 -23   22.38    3.96
   4   3 -23   19.74    3.56
  -3   4 -22  245.36   14.33
  -4  -3 -22  257.23   13.06
  -3   4 -22  250.18    8.76
   4   3 -22  237.22   12.22
  -3   4 -21    1.72    1.72
  -4  -3 -21    0.61    1.12
  -3   4 -21    2.67    1.20
   4   3 -21    4.29    1.44
  -3   4 -20    7.36    2.60
  -4  -3 -20    3.86    1.75
  -3   4 -20    4.42    1.23
   4   3 -20    4.38    1.71
  -3   4 -19    1.20    1.29
  -4  -3 -19    5.22    1.87
  -3   4 -19    2.92    1.25
   4   3 -19    5.17    1.95
  -3   4 -18  399.18   17.15
  -3   4 -18  378.30   12.39
  -4  -3 -18  369.10   15.75
   4   3 -18  373.55   15.33
  -3   4 -17   76.86    7.27
  -3   4 -17   77.94    5.56
  -4  -3 -17  110.30    8.34
   4   3 -17   93.33    7.47
  -3   4 -17   81.44    7.39
  -3   4 -16   53.86    5.92
  -4  -3 -16   38.29    4.93
  -3   4 -16   60.74    4.93
  -3   4 -16   58.68    6.27
   4   3 -16   36.42    4.73
  -3   4 -15  116.62    8.60
  -4  -3 -15  136.24    9.25
  -3   4 -15  100.93    6.53
  -3   4 -15  115.09    8.48
   4   3 -15  134.20    8.91
  -3   4 -14  527.64   18.38
  -3   4 -14  516.46   15.71
  -4  -3 -14  505.49   18.35
   4   3 -14  473.95   17.38
  -4  -3 -14  487.41   18.83
  -3   4 -14  536.34   18.57
  -3   4 -13   28.97    4.22
  -4  -3 -13   45.02    5.32
  -3   4 -13   22.33    3.19
   4   3 -13   42.16    5.02
  -4  -3 -13   40.06    5.25
  -3   4 -13   29.18    4.24
  -4  -3 -12   31.24    4.40
  -3   4 -12   26.18    3.45
  -3   4 -12   27.40    3.91
   3  -4 -12   41.24    5.36
   4   3 -12   36.72    4.57
  -3   4 -12   26.79    3.93
  -4  -3 -12   30.19    4.49
  -4  -3 -11   23.93    3.87
  -3   4 -11   13.40    2.53
  -3   4 -11   12.50    2.54
   3  -4 -11   13.25    3.26
  -3   4 -11   14.91    2.87
  -4  -3 -11   18.14    3.57
   4   3 -11   19.57    3.47
  -4  -3 -10  521.88   18.64
  -3   4 -10  525.60   16.55
  -3   4 -10  526.26   16.92
   3  -4 -10  541.81   19.47
  -4  -3 -10  525.84   18.96
   4   3 -10  512.18   17.80
  -3   4 -10  530.36   17.02
  -4  -3  -9   22.37    3.66
  -3   4  -9   19.63    3.11
  -3   4  -9   19.54    3.24
   3  -4  -9   20.64    3.69
  -3   4  -9   19.38    3.07
  -4  -3  -9   26.70    4.15
   4   3  -9   26.33    3.95
  -3   4  -8   29.32    3.85
  -4  -3  -8   19.65    3.55
  -3   4  -8   24.10    3.34
   3  -4  -8   22.25    3.78
  -4  -3  -8   22.45    3.73
  -3   4  -8   31.23    3.77
  -4  -3  -7    9.62    2.57
  -3   4  -7   15.79    2.69
  -3   4  -7   17.48    3.00
   3  -4  -7   12.81    2.92
  -3   4  -7   17.77    2.69
  -4  -3  -7    9.52    2.68
  -3   4  -7   14.45    2.43
  -4  -3  -6  348.94   14.95
  -3   4  -6  330.31   13.34
  -3   4  -6  342.22   12.24
   3  -4  -6  370.27   15.07
  -3   4  -6  331.99   12.05
  -4  -3  -6  358.06   15.15
  -3   4  -6  338.13   12.23
  -4  -3  -5   28.27    4.16
  -3   4  -5   24.02    3.07
  -3   4  -5   24.97    3.62
   3  -4  -5   31.15    4.26
  -3   4  -5   29.67    3.57
  -4  -3  -5   23.85    3.96
  -3   4  -5   26.41    3.23
  -4  -3  -4   28.24    4.13
  -3   4  -4   39.88    4.58
   3  -4  -4   26.75    3.98
  -3   4  -4   40.17    4.23
  -4  -3  -4   28.59    4.23
  -4  -3  -3  127.18    8.85
  -3   4  -3  105.12    7.57
   3  -4  -3  102.81    7.58
  -3   4  -3  109.93    7.12
  -4  -3  -3  120.78    8.51
  -4  -3  -2  597.21   20.06
  -3   4  -2  589.60   18.91
   3  -4  -2  587.29   18.56
  -3   4  -2  601.65   17.70
  -4  -3  -2  602.21   19.79
  -4  -3  -1    2.56    1.64
  -3   4  -1    4.90    2.13
  -3   4  -1    5.79    2.11
   3  -4  -1    2.99    1.49
  -4  -3  -1    3.48    1.64
  -3   4   0   45.11    5.06
  -4  -3   0   54.13    5.72
   3  -4   0   50.46    5.09
  -3   4   0   42.59    4.58
  -4  -3   0   46.91    5.26
  -4  -3   1    2.90    1.68
  -3   4   1    6.19    2.36
  -3   4   1    7.10    2.53
   3  -4   1    4.79    1.79
  -4  -3   1    3.46    1.63
  -3   4   2  571.06   19.03
  -4  -3   2  568.95   19.44
   3  -4   2  572.54   17.21
  -3   4   2  557.87   18.01
  -4  -3   2  552.21   18.64
  -3   4   3  103.78    8.07
  -4  -3   3  105.22    8.01
   3  -4   3  103.91    6.89
  -3   4   3  101.23    7.44
  -4  -3   3  107.82    7.91
  -4  -3   4   31.41    4.40
  -3   4   4   28.88    4.17
   3  -4   4   36.52    4.01
  -4  -3   4   32.02    4.24
  -4  -3   5   23.60    3.98
  -3   4   5   28.46    4.28
   3  -4   5   23.58    3.20
  -4  -3   5   29.66    4.22
  -3   4   6  350.89   15.09
  -4  -3   6  369.04   15.47
  -4  -3   6  350.58   14.53
   3  -4   6  338.73   12.07
  -4  -3   7    8.10    2.31
  -3   4   7   12.78    3.30
   3  -4   7   15.26    2.56
  -4  -3   7    9.67    2.45
  -4  -3   8   26.46    4.03
  -3   4   8   21.43    3.79
   3  -4   8   19.49    2.64
  -4  -3   8   23.05    3.58
  -4  -3   9   31.53    4.58
  -3   4   9   21.92    4.16
   3  -4   9   16.99    2.47
  -4  -3   9   28.85    4.11
  -4  -3  10  564.24   19.62
  -3   4  10  530.69   19.35
  -3   4  10  529.76   13.15
   3  -4  10  543.26   14.44
  -4  -3  10  520.43   17.90
  -4  -3  11   22.91    3.83
  -3   4  11   13.86    1.96
  -3   4  11   15.81    3.58
   3  -4  11   13.91    2.08
  -4  -3  11   21.42    3.55
  -4  -3  12   35.68    4.82
  -4  -3  12   25.28    3.86
   3  -4  12   24.67    2.69
  -4  -3  12   30.56    4.64
  -3   4  12   34.67    3.19
  -3   4  12   32.10    4.85
  -4  -3  13   41.53    5.28
   3  -4  13   24.76    2.69
  -4  -3  13   44.17    5.02
  -4  -3  13   41.37    5.38
  -3   4  13   22.01    2.60
  -3   4  13   26.35    4.59
  -4  -3  14  512.14   18.83
  -3   4  14  522.95   19.92
   3  -4  14  535.32   12.84
  -4  -3  14  509.48   17.81
  -3   4  14  517.53   13.92
  -4  -3  15  144.35    9.68
  -3   4  15  129.97    9.74
  -3   4  15  117.21    6.36
  -4  -3  15  145.89    9.19
   3  -4  15  119.55    5.39
  -4  -3  16   42.96    5.29
  -3   4  16   48.72    6.04
  -3   4  16   44.67    3.98
  -4  -3  16   39.76    4.88
   3  -4  16   55.15    3.38
  -4  -3  17  107.72    8.46
  -3   4  17   92.14    8.32
  -3   4  17   73.84    5.29
  -4  -3  17  100.86    7.62
   3  -4  17   80.54    3.84
  -3   4  17   80.28    5.56
  -3   4  18  404.43   17.84
  -4  -3  18  388.61   16.36
  -3   4  18  374.99   12.75
  -4  -3  18  371.66   15.21
   3  -4  18  386.86    8.37
  -3   4  18  397.87   13.07
  -4  -3  19    8.87    2.51
  -3   4  19    1.58    1.00
  -3   4  19    1.42    1.10
  -4  -3  19    3.56    1.70
  -3   4  19    3.35    1.24
  -4  -3  20    5.14    2.08
  -3   4  20    4.70    1.53
  -3   4  20    5.56    2.32
  -4  -3  20    2.62    1.90
  -3   4  20    3.67    1.41
  -4  -3  21    4.82    2.28
  -3   4  21    0.58    0.94
  -3   4  21   -0.28    1.31
  -4  -3  21    3.45    1.61
  -3   4  21    0.95    0.86
  -3   4  22  243.52   14.22
  -4  -3  22  246.42   13.11
  -3   4  22  233.16   10.84
  -4  -3  22  244.30   12.35
  -3   4  22  242.94   11.10
  -4  -3  23   21.63    3.95
  -3   4  23   20.01    3.23
  -3   4  23   18.47    3.96
  -4  -3  23   20.90    3.68
  -3   4  23   21.63    3.38
  -3   4  24   13.19    2.73
  -3   4  24   13.44    3.54
  -4  -3  24   14.79    3.08
  -3   4  24   13.46    2.80
  -3   4  25    0.51    1.46
  -3   4  25    1.44    1.29
  -4  -3  25    1.27    1.33
  -3   4  25   -0.58    0.98
  -3   4  26  314.27   16.65
  -3   4  26  307.03   13.89
  -4  -3  26  332.70   14.81
  -3   4  26  315.36   13.92
  -3   4  27    8.35    2.46
  -3   4  27   11.04    3.28
  -4  -3  27   12.30    2.80
  -3   4  27    7.49    2.28
  -4  -3  27   12.50    3.65
  -3   4  28    2.14    1.19
  -3   4  28    2.13    1.61
  -4  -3  28    0.12    1.28
  -3   4  28    4.50    1.86
  -4  -3  28    4.99    2.76
  -3   4  29    6.20    3.05
  -4  -3  29    5.52    2.24
  -3   4  29    2.80    1.67
  -4  -3  29    5.58    2.82
  -3   4  30  341.26   17.99
  -4  -3  30  353.46   15.62
  -4  -3  30  340.30   20.08
  -3   4  30  334.79   15.66
  -3   4  31   24.41    4.99
  -4  -3  31   23.76    4.04
  -3   4  31   16.37    3.57
  -4  -3  31   16.76    4.54
  -3   4  32    0.59    1.52
  -4  -3  32   -1.95    1.68
  -3   4  32    0.09    0.98
  -4  -3  32    1.90    2.67
  -3   4  33    7.09    2.90
  -4  -3  33    4.63    1.92
  -4  -3  33    9.91    3.77
  -3   4  33    2.95    1.30
  -3   4  34  113.95   10.58
  -4  -3  34  121.41    9.23
  -4  -3  34  116.53   12.23
  -3   4  34  119.71    9.88
  -3   4  35    7.50    2.77
  -4  -3  35    8.84    3.72
  -3   4  35   11.87    3.29
  -3   4  36    1.55    1.86
  -3   4  36    4.27    2.36
  -4  -3  36    6.17    2.84
  -3   4  37    8.88    3.39
  -3   4  37    3.26    2.31
  -4  -3  37    3.06    2.09
  -3   4  38   72.16    8.63
  -3   4  39   10.24    3.38
  -4  -4 -41   24.84    5.94
  -4  -4 -40    8.97    3.57
  -4  -4 -39   18.76    5.18
  -4  -4 -38   36.04    6.82
  -4  -4 -37   24.74    5.60
  -4  -4 -36   -0.34    1.59
  -4   4 -36    1.70    2.36
  -4  -4 -35   37.42    6.46
  -4   4 -35   38.99    7.48
  -4  -4 -34   51.48    7.61
  -4   4 -34   51.69    8.68
  -4  -4 -33   24.47    5.18
  -4   4 -33   35.29    6.90
  -4   4 -32   21.01    5.12
  -4  -4 -32    8.93    3.00
  -4   4 -31   37.12    6.80
  -4  -4 -31   41.23    6.65
  -4  -4 -30   80.38    8.85
  -4   4 -30   73.54    9.44
  -4   4 -29   40.61    6.93
  -4  -4 -29   41.65    6.31
  -4   4 -28   54.36    7.85
  -4  -4 -28   38.55    5.84
  -4   4 -27   51.63    7.45
  -4  -4 -27   35.39    5.60
  -4  -4 -26   93.05    8.91
  -4   4 -26   76.51    8.92
  -4   4 -25  107.35    5.53
  -4  -4 -25   98.92    9.11
  -4   4 -25  118.09   10.80
  -4   4 -24   16.93    2.33
  -4   4 -24   13.89    3.61
  -4  -4 -24   15.67    3.61
  -4   4 -23  207.71    8.61
  -4  -4 -23  176.53   11.94
  -4   4 -23  199.79   13.75
  -4   4 -22  155.68    7.68
  -4   4 -22  164.34   12.17
  -4   4 -21  156.98    7.94
  -4   4 -21  148.08   11.38
  -4   4 -20    5.97    1.83
  -4   4 -20    4.44    2.62
  -4   4 -19  204.56    9.68
  -4   4 -19  213.44    7.78
  -4   4 -19  217.92   13.40
  -4   4 -18  115.34    7.27
  -4   4 -18  117.15    5.90
  -4   4 -18  114.88    9.48
  -4   4 -17   25.80    2.87
  -4   4 -17   22.31    4.18
  -4   4 -17   19.84    3.13
  -4   4 -16  158.12    8.90
  -4   4 -16  170.49    7.68
  -4   4 -16  169.78   11.20
  -4   4 -15   52.32    5.14
  -4   4 -15   53.72    6.15
  -4   4 -15   56.90    4.49
  -4   4 -14  301.09   12.74
  -4   4 -14  298.30   14.52
  -4   4 -14  297.95   10.92
  -4   4 -14  311.50   14.80
  -4   4 -13  178.88    9.83
  -4   4 -13  175.37   10.82
  -4   4 -13  187.35    8.66
  -4   4 -13  182.86   11.09
  -4   4 -12   14.06    2.86
  -4   4 -12   15.57    3.24
  -4   4 -12   14.17    2.39
  -4   4 -12   15.30    3.18
  -4   4 -11  138.74    8.74
  -4   4 -11  133.03    9.09
  -4   4 -11  139.96    7.77
  -4   4 -11  137.33    9.30
  -4   4 -10  179.60   10.17
  -4   4 -10  199.87   10.94
  -4   4 -10  194.28    9.34
  -4  -4 -10  229.06   13.00
  -4   4 -10  194.47   10.85
  -4   4  -9  100.69    7.54
  -4   4  -9  107.03    6.98
  -4  -4  -9   94.14    8.29
  -4   4  -8    2.29    1.44
  -4   4  -8    3.61    1.71
  -4  -4  -8    2.77    1.75
  -4   4  -7  140.54    9.16
  -4   4  -7  137.26    8.14
  -4  -4  -7  124.22    9.32
  -4   4  -6  129.57    8.82
   4  -4  -6  131.65    9.57
  -4   4  -6  131.49    8.15
  -4  -4  -6  159.38   10.50
  -4   4  -5  150.22    9.63
   4  -4  -5  157.37   10.27
  -4   4  -5  147.25    8.68
  -4  -4  -5  147.39   10.11
  -4   4  -4   20.12    3.63
  -4   4  -4   23.77    3.66
   4  -4  -4   17.07    3.40
  -4  -4  -4   15.33    3.29
  -4   4  -3   65.51    6.50
   4  -4  -3   65.74    6.45
  -4   4  -3   61.53    5.80
  -4  -4  -3   58.76    6.30
  -4   4  -2  182.29   10.84
   4  -4  -2  171.80   10.38
  -4   4  -2  178.38   10.02
  -4  -4  -2  193.96   11.36
  -4   4  -1   90.69    7.72
   4  -4  -1   80.90    6.95
  -4   4  -1   79.87    6.74
  -4  -4  -1   92.41    7.76
  -4   4   0  182.00   10.96
  -4   4   0  188.15   10.47
   4  -4   0  185.30   10.48
  -4  -4   0  146.53    9.93
  -4   4   1   90.91    7.83
   4  -4   1   90.75    7.20
  -4   4   1   91.70    7.40
  -4  -4   1   90.98    7.70
  -4   4   2  160.17   10.47
  -4   4   2  172.41   10.35
   4  -4   2  173.80    9.87
  -4  -4   2  182.03   10.91
  -4   4   3   62.00    6.22
   4  -4   3   69.09    6.06
  -4  -4   3   56.83    6.14
   4  -4   4   16.59    2.97
  -4   4   4   16.14    3.17
  -4  -4   4   13.56    3.13
  -4   4   5  161.24   10.28
   4  -4   5  151.58    8.81
   4   4   5  160.21   10.50
  -4  -4   5  134.94    9.40
  -4   4   6  120.55    9.33
   4  -4   6  116.43    7.65
  -4   4   6  125.83    9.24
   4   4   6  140.68    9.84
  -4  -4   6  135.49    9.36
  -4   4   7  141.82   10.18
   4  -4   7  145.54    8.39
  -4   4   7  138.41    9.82
   4   4   7  132.93    9.62
  -4  -4   7  131.03    9.12
   4   4   8    0.92    1.65
  -4   4   8    3.66    2.27
  -4   4   8    2.69    1.77
   4  -4   8    0.28    0.87
  -4  -4   8    0.06    1.03
  -4   4   9  111.96    9.20
  -4  -4   9   89.96    7.57
   4  -4   9   99.02    6.69
  -4   4   9  112.49    9.05
   4   4   9  102.38    8.41
  -4  -4  10  216.66   12.48
  -4   4  10  200.59   12.51
   4  -4  10  189.09    9.27
  -4  -4  10  229.60   12.05
  -4   4  10  199.96   12.25
   4   4  10  235.63   12.90
  -4   4  11  122.56    9.75
  -4  -4  11  127.95    8.98
   4  -4  11  139.17    7.68
  -4   4  11  133.98   10.08
   4   4  11  124.51    9.37
   4   4  12   26.63    4.27
  -4   4  12   25.74    4.63
  -4   4  12   27.60    4.77
  -4  -4  12   23.42    3.78
   4  -4  12   19.12    2.86
  -4   4  13  171.79    8.63
  -4   4  13  187.04   12.20
   4  -4  13  155.33    7.88
  -4  -4  13  166.81   10.28
  -4   4  13  184.84   12.16
   4   4  13  150.12   10.41
  -4   4  14  319.07   12.21
  -4   4  14  337.07   16.67
   4  -4  14  308.06   11.12
  -4  -4  14  341.53   14.78
  -4   4  14  342.76   16.81
   4   4  14  334.29   15.60
  -4   4  15   49.81    4.70
  -4   4  15   55.74    6.93
  -4   4  15   56.35    6.93
  -4  -4  15   52.95    5.78
   4   4  15   58.96    6.57
   4  -4  15   47.27    4.09
  -4   4  16  151.96    8.50
  -4   4  16  159.51   11.51
  -4  -4  16  143.21    9.50
   4   4  16  136.53    9.98
   4  -4  16  156.44    7.25
   4   4  17   33.07    4.95
  -4   4  17   21.81    3.23
  -4   4  17   26.30    4.77
  -4  -4  17   22.95    3.71
   4  -4  17   28.59    3.02
  -4   4  18   97.28    9.17
  -4   4  18   95.25    6.91
  -4  -4  18  115.91    8.54
   4   4  18  111.35    8.98
   4  -4  18  100.28    5.42
  -4   4  19  207.04   13.47
  -4   4  19  200.66   10.29
  -4  -4  19  188.83   10.91
   4   4  19  196.98   12.06
   4  -4  19  214.52    7.61
   4   4  20    8.86    2.74
  -4   4  20    0.67    1.04
  -4   4  20    3.61    2.69
  -4  -4  20    5.48    2.26
  -4   4  21  166.75   12.24
  -4   4  21  162.56    9.51
  -4  -4  21  136.49    9.31
   4   4  21  139.29   10.12
  -4   4  22  149.65   11.76
  -4   4  22  135.76    8.95
  -4  -4  22  172.84   10.46
  -4   4  22  135.03    8.88
   4   4  22  170.95   11.32
  -4   4  23  175.27   12.93
  -4   4  23  183.88   10.57
  -4  -4  23  176.84   10.63
  -4   4  23  179.05   10.44
   4   4  23  172.60   11.47
   4   4  24   15.20    3.58
  -4   4  24   17.34    3.36
  -4   4  24   21.37    4.50
  -4  -4  24   14.23    3.10
  -4   4  24   22.08    3.84
  -4   4  25  112.88   10.26
  -4   4  25   99.72    8.02
  -4  -4  25  100.54    8.05
  -4   4  25  113.25    8.58
   4   4  25   93.57    8.44
  -4   4  26   81.75    9.05
  -4  -4  26   98.26    7.91
   4   4  26   84.52    8.04
  -4   4  26   81.61    7.41
  -4  -4  26   83.38    9.55
   4   4  27   34.60    5.30
  -4   4  27   38.92    6.29
  -4  -4  27   37.21    4.86
  -4   4  27   35.32    4.99
  -4  -4  27   45.63    7.13
  -4   4  28   40.23    6.41
  -4  -4  28   45.83    5.41
   4   4  28   41.44    5.70
  -4   4  28   43.33    5.52
  -4  -4  28   40.72    6.98
   4   4  29   37.02    5.43
  -4   4  29   34.38    6.11
  -4  -4  29   36.56    4.81
  -4   4  29   45.67    5.97
  -4  -4  29   38.22    6.70
  -4   4  30   66.90    8.29
  -4  -4  30   78.98    7.13
  -4   4  30   73.30    7.60
  -4  -4  30   89.44   10.49
  -4   4  31   42.75    6.99
  -4  -4  31   44.32    5.49
  -4   4  31   39.99    5.77
  -4  -4  31   36.26    6.91
  -4   4  32   23.14    5.11
  -4  -4  32   16.58    4.46
  -4   4  32   22.04    4.38
  -4   4  33   30.27    5.82
  -4   4  33   35.29    5.48
  -4  -4  33   23.14    5.67
  -4   4  34   39.93    6.81
  -4   4  34   47.47    6.79
  -4  -4  34   40.36    7.48
  -4   4  35   40.32    6.67
  -4  -4  35   30.06    6.61
  -4   4  35   39.05    6.04
  -4   4  36    1.01    1.59
  -4   4  37   25.39    5.46
  -4   4  38   32.39    6.53
  -4   4  39   19.67    5.04
  -4  -5 -36   66.92    8.71
  -4  -5 -35    8.25    3.37
  -4  -5 -34    4.02    2.80
  -4  -5 -33   21.06    4.92
  -5   4 -33   19.12    4.90
  -4  -5 -32   74.66    8.70
  -5   4 -32   86.81   10.91
  -5   4 -31    0.82    1.86
  -4  -5 -31    4.56    2.36
  -5   4 -30    0.72    1.31
  -4  -5 -30    3.79    2.26
  -4  -5 -29   62.70    7.66
  -5   4 -29   48.91    7.76
  -4  -5 -28   94.34    9.24
  -5   4 -28   91.06   10.48
  -4  -5 -27   50.56    6.69
  -5   4 -27   57.04    8.12
  -4  -5 -26    4.24    2.14
  -5   4 -26    6.23    3.08
  -4  -5 -25    6.59    2.49
  -5   4 -25   15.62    4.39
  -4  -5 -24   99.13    8.95
  -5   4 -24  110.62   10.87
  -5   4 -23   64.65    5.48
  -4  -5 -23   74.75    7.73
  -5   4 -23   63.80    8.15
  -5   4 -22   25.30    3.55
  -5   4 -22   23.09    2.76
  -4  -5 -22   22.99    4.30
  -5   4 -22   24.61    4.99
  -5   4 -21   80.90    6.41
  -5   4 -21   79.32    5.40
  -5   4 -21   87.71    9.36
  -5   4 -20  115.27    7.76
  -5   4 -20  110.29    6.61
  -5   4 -20  114.83   10.35
  -5   4 -19   32.86    4.19
  -5   4 -19   26.05    3.26
  -5   4 -19   29.20    5.13
  -5   4 -18   38.93    4.74
  -5   4 -18   44.01    4.37
  -5   4 -18   44.11    6.27
  -5   4 -17   71.54    6.49
  -5   4 -17   72.54    5.73
  -5   4 -17   77.69    8.24
  -5   4 -16  202.77   11.03
  -5   4 -16  205.88   13.25
  -5   4 -16  210.55   10.01
  -5   4 -15   30.34    4.32
  -5   4 -15   27.25    4.79
  -5   4 -15   28.03    3.75
  -5   4 -14    8.52    2.71
  -5   4 -14    6.50    2.39
  -5   4 -14   10.26    2.45
  -5   4 -13   44.83    5.93
  -5   4 -13   39.69    5.00
  -5   4 -13   38.35    4.47
  -5   4 -12  324.45   14.70
  -5   4 -12  328.45   13.46
  -5   4 -11   56.11    6.18
  -5   4 -11   52.27    5.39
  -5   4 -10   86.96    6.94
  -5   4  -9   43.94    4.99
  -5   4  -8   71.35    6.43
  -5   4  -7   47.53    5.40
  -4  -5  -7   44.26    5.90
  -5   4  -6    8.29    2.45
  -4  -5  -6    3.22    1.81
  -5   4  -5  138.02    9.26
  -4  -5  -5  126.71   10.11
  -5   4  -4  183.50   10.81
  -4  -5  -4  169.89   11.63
  -5   4  -3   29.30    4.46
  -4  -5  -3   33.24    5.18
  -5   4  -2    3.92    1.73
  -4  -5  -2    0.59    0.88
   4   5  -1   28.46    4.93
  -5   4  -1   19.66    3.89
  -4  -5  -1   31.32    4.91
  -5   4   0  381.94   16.54
   4   5   0  348.06   16.79
  -4  -5   0  358.86   16.70
   4   5   1   39.73    5.66
  -5   4   1   25.78    4.37
   5  -4   1   26.54    4.22
  -4  -5   1   28.97    4.72
   4   5   2    3.32    2.06
  -5   4   2    1.47    0.97
   5  -4   2    4.28    1.77
  -4  -5   2    5.77    2.44
   4   5   3   30.95    5.15
   5  -4   3   25.24    4.08
  -5   4   3   25.49    4.42
  -4  -5   3   31.69    4.74
  -5   4   4  157.81   10.95
   5  -4   4  174.92   10.59
  -4  -5   4  177.03   11.38
   4   5   4  173.41   11.75
  -5   4   5  127.80    9.86
   5  -4   5  126.63    8.86
  -4  -5   5  117.21    9.17
   4   5   5  122.03    9.95
   4   5   6    7.87    3.03
   5  -4   6   13.84    3.02
  -5   4   6    9.63    3.15
  -4  -5   6    3.42    1.66
  -4  -5   7   41.01    5.45
   5  -4   7   45.11    5.20
  -5   4   7   38.19    5.55
   4   5   7   41.72    5.80
  -4  -5   7   42.21    5.44
   5  -4   8   71.18    6.41
  -5   4   8   61.92    7.00
   4   5   8   65.21    7.27
  -4  -5   8   64.95    6.79
   5  -4   9   49.61    5.24
  -5   4   9   47.95    6.30
   4   5   9   57.65    6.81
  -4  -5   9   55.04    6.19
   5  -4  10   84.64    6.82
  -5   4  10  106.27    9.45
   4   5  10   82.54    8.29
  -4  -5  10   93.07    8.08
   5  -4  11   53.14    5.45
  -4  -5  11   53.66    6.09
  -5   4  11   54.70    6.84
   4   5  11   54.54    6.93
  -4  -5  12  321.57   15.06
   5  -4  12  322.61   13.32
  -5   4  12  332.92   17.32
   4   5  12  309.86   16.24
   4   5  13   34.44    5.59
   5  -4  13   37.83    4.46
  -5   4  13   46.89    6.62
  -4  -5  13   30.78    4.71
   4   5  14    8.30    2.95
  -5   4  14    3.25    1.94
   5  -4  14    8.25    2.04
  -4  -5  14    8.73    2.66
   4   5  15   30.04    5.09
  -5   4  15   17.96    3.27
  -5   4  15   24.84    4.97
  -4  -5  15   35.24    5.03
   5  -4  15   23.60    3.42
   4   5  16  193.75   12.85
  -5   4  16  198.65   10.93
  -4  -5  16  191.30   11.49
  -5   4  16  220.51   14.49
   5  -4  16  214.68   10.00
   4   5  17   90.36    8.79
  -5   4  17   70.02    6.47
  -5   4  17   79.76    8.78
  -4  -5  17   80.73    7.29
   5  -4  17   72.69    5.71
   4   5  18   23.79    4.68
  -5   4  18   28.23    4.20
  -5   4  18   43.22    6.67
  -4  -5  18   29.10    4.52
   5  -4  18   38.11    3.96
   4   5  19   32.15    5.46
  -5   4  19   29.95    5.39
  -5   4  19   27.87    4.26
  -5   4  19   30.95    5.74
  -4  -5  19   36.48    4.99
   5  -4  19   29.31    3.42
  -5   4  20  118.35   10.91
  -5   4  20  115.70    8.67
  -4  -5  20  120.34    8.97
  -5   4  20  128.32   11.54
   4   5  20  115.42   10.03
  -5   4  21   71.01    6.92
  -5   4  21   68.51    8.35
  -4  -5  21   69.66    6.81
   4   5  21   76.45    8.18
   4   5  22   27.09    5.01
  -5   4  22   25.07    5.32
  -4  -5  22   15.85    3.24
  -5   4  23   64.72    8.21
  -4  -5  23   77.81    7.15
   4   5  23   68.94    7.77
  -5   4  24  102.25   10.42
  -4  -5  24  110.31    8.57
   4   5  24  110.17    9.89
  -4  -5  24  110.95   11.06
   4   5  25    9.66    3.07
  -5   4  25   14.08    4.30
  -4  -5  25   10.38    2.81
  -4  -5  25    5.76    2.76
  -5   4  25    8.31    2.46
   4   5  26   14.41    3.94
  -5   4  26    4.72    2.31
  -4  -5  26    8.52    2.72
  -4  -5  26    8.74    3.55
  -5   4  26    7.90    2.46
  -5   4  27   48.66    7.41
  -4  -5  27   47.21    5.49
  -4  -5  27   51.37    7.91
  -5   4  27   48.76    6.20
   4   5  27   55.10    7.12
  -5   4  28   94.27   10.15
  -4  -5  28   93.35    7.76
   4   5  28   78.48    8.53
  -5   4  28   94.85    8.73
  -4  -5  28   88.20   10.37
  -5   4  29   59.00    8.42
   4   5  29   80.37    8.63
  -5   4  29   56.92    6.99
  -4  -5  29   58.29    8.64
  -5   4  30    3.22    2.96
   4   5  30    2.29    1.97
  -5   4  30    7.77    3.21
  -4  -5  30    3.37    2.15
  -5   4  31    1.43    1.59
   4   5  31    2.45    1.66
  -4  -5  31    0.28    1.80
  -5   4  31    4.68    2.75
  -5   4  32   79.28    9.85
  -5   4  32   82.23    8.73
  -4  -5  32   76.08   10.24
   4   5  32   69.00    8.18
  -5   4  33   17.41    5.02
   4   5  33   23.86    4.73
  -5   4  33   14.04    3.90
  -4  -5  33   17.69    5.40
  -5   4  34    7.78    3.58
  -5   4  35    6.01    3.09
  -5   4  36   63.92    8.98
  -5   4  37   12.13    3.67
  -5   4  38    5.36    3.63
  -3  -5 -36  111.60   10.47
  -3  -5 -35   25.69    5.09
  -5   3 -34    6.03    3.31
  -3  -5 -34    4.21    2.26
  -5   3 -33    3.58    2.99
  -3  -5 -33    7.88    3.20
  -5   3 -32  137.60   13.47
  -3  -5 -32  137.70   11.06
  -5   3 -31   17.10    4.90
  -3  -5 -31   18.02    4.14
  -3  -5 -30   14.74    3.62
  -5   3 -30   13.48    4.54
  -3  -5 -29   21.20    4.43
  -5   3 -29   14.34    4.27
  -5   3 -28   67.39    8.94
  -3  -5 -28   73.69    7.70
  -5   3 -27    4.67    2.35
  -3  -5 -27    6.60    2.19
  -3  -5 -26   31.78    4.86
  -5   3 -26   30.36    5.79
  -3  -5 -25   27.34    4.50
  -5   3 -25   19.29    4.58
  -5   3 -25   20.81    2.69
  -5   3 -25   18.82    2.48
  -5   3 -24  116.56    6.65
  -5   3 -24  101.98   10.34
  -3  -5 -24  112.67    8.79
  -5   3 -24  112.19    6.31
  -3  -5 -24  115.19    8.85
  -5   3 -23    0.15    0.52
  -5   3 -23   -0.20    1.29
  -3  -5 -23    1.23    1.09
  -5   3 -23    1.26    0.88
  -3  -5 -23    1.23    1.40
  -5   3 -22   10.27    2.21
  -3  -5 -22   12.83    2.89
  -5   3 -22   10.34    3.26
  -5   3 -22    9.67    1.91
  -3  -5 -22    9.70    2.63
  -3  -5 -21    5.05    2.00
  -5   3 -21    9.04    2.93
  -5   3 -21    7.55    2.06
  -5   3 -21    7.85    1.87
  -3  -5 -21    4.02    1.55
  -3  -5 -20  170.19   10.14
  -5   3 -20  179.85   12.91
  -5   3 -20  180.19    8.75
  -3  -5 -20  167.21   10.07
  -3  -5 -19   97.70    7.53
  -5   3 -19   86.83    8.80
  -5   3 -19   92.82    6.33
  -3  -5 -19   88.09    7.13
  -5   3 -18   18.71    4.35
  -5   3 -18   14.12    2.53
  -5   3 -17   41.71    6.03
  -5   3 -17   42.92    4.50
  -5   3 -16  607.74   17.81
  -5   3 -15   27.75    3.72
  -5   3 -14   14.34    2.81
  -5   3 -13   66.70    5.79
  -5   3 -12  273.55   11.98
  -5   3 -11   30.61    4.10
  -5   3 -10    9.13    2.23
  -5   3  -9   39.18    4.65
   3   5  -9   40.72    5.28
  -5   3  -8  148.79    9.09
   3   5  -8  126.00    9.40
  -5   3  -7  110.31    7.93
   3   5  -7  112.67    8.83
   3   5  -6    0.95    0.86
  -5   3  -6    0.57    1.07
   3   5  -5    1.47    1.53
  -5   3  -5    2.62    1.32
  -5   3  -4  292.12   13.30
   5  -3  -4  290.63   14.29
   3   5  -4  274.55   13.99
   3   5  -3  158.37   10.50
  -5   3  -3  145.00    9.36
   5  -3  -3  144.62    9.95
   3   5  -2    4.25    2.01
  -5   3  -2    3.21    1.66
   5  -3  -2    1.14    1.26
   3   5  -1   25.01    4.34
   5  -3  -1   14.76    3.09
  -5   3  -1   16.99    3.48
   3   5   0  570.34   20.92
  -5   3   0  592.05   20.17
   5  -3   0  623.59   20.65
   3   5   1   28.71    4.63
   5  -3   1   15.15    3.23
  -5   3   1   13.75    3.16
  -3  -5   1   26.84    4.29
   3   5   2    1.45    1.30
   5  -3   2    0.70    1.22
  -5   3   2    0.82    1.27
  -3  -5   2    1.80    1.50
   3   5   3  162.59   10.80
   5  -3   3  138.20    9.20
  -5   3   3  136.39    9.63
  -3  -5   3  141.71    9.43
   3   5   4  269.46   13.98
  -3  -5   4  239.52   11.67
   5  -3   4  292.17   13.23
  -5   3   4  282.36   14.18
  -3  -5   4  258.63   12.79
   3   5   5    4.04    2.24
  -3  -5   5    3.49    1.45
  -5   3   5    7.97    2.48
   5  -3   5    6.60    2.14
  -3  -5   5    3.74    1.82
   3   5   6    0.46    0.91
  -3  -5   6   -0.10    0.79
  -5   3   6    2.12    1.24
  -3  -5   6    2.28    1.50
   5  -3   6    1.32    1.14
   3   5   7  111.20    9.01
  -3  -5   7   98.64    7.62
  -5   3   7  101.10    8.54
   5  -3   7   97.09    7.46
  -3  -5   7  104.98    7.94
   3   5   8  138.60   10.11
  -3  -5   8  123.91    8.72
  -5   3   8  132.93    9.92
   5  -3   8  146.95    9.00
  -3  -5   8  132.15    8.87
   3   5   9   36.84    5.19
  -3  -5   9   29.69    4.29
  -5   3   9   36.69    5.29
   5  -3   9   30.89    4.12
  -3  -5   9   38.26    4.78
   3   5  10    8.95    2.57
  -3  -5  10   10.56    2.51
  -5   3  10    9.64    2.78
   5  -3  10    6.81    2.24
  -3  -5  10   11.45    2.64
   3   5  11   45.86    5.98
  -3  -5  11   49.88    5.71
  -5   3  11   45.00    6.05
   5  -3  11   38.60    4.50
  -3  -5  11   53.38    5.54
   3   5  12  257.99   14.23
  -3  -5  12  260.74   13.56
  -5   3  12  286.40   15.22
  -3  -5  12  262.70   12.40
   5  -3  12  264.95   11.79
   3   5  13   71.74    7.50
  -3  -5  13   73.54    7.22
  -5   3  13   62.50    7.12
  -3  -5  13   71.75    6.36
   5  -3  13   64.23    5.71
   3   5  14   14.94    3.70
  -5   3  14   15.09    3.77
   5  -3  14   14.81    2.87
  -3  -5  14   12.55    2.54
   3   5  15   50.25    6.33
  -3  -5  15   56.14    5.54
  -5   3  15   39.73    5.88
   5  -3  15   26.06    3.64
   3   5  16  576.68   21.96
  -5   3  16  601.16   20.41
  -5   3  16  632.14   24.03
  -3  -5  16  580.17   18.77
   5  -3  16  584.56   17.41
   3   5  17   65.86    7.31
  -5   3  17   52.73    5.92
  -5   3  17   50.40    6.69
  -3  -5  17   62.54    5.85
   5  -3  17   44.99    4.53
   3   5  18   15.97    3.84
  -5   3  18   11.54    3.04
  -5   3  18   11.68    3.47
  -3  -5  18   14.08    2.77
   5  -3  18   14.85    2.59
   3   5  19   89.43    8.49
  -5   3  19   79.92    7.42
  -3  -5  19   92.19    6.93
  -5   3  19   82.01    8.59
  -3  -5  19   95.44    8.94
   3   5  20  163.68   11.59
  -5   3  20  145.58   10.23
  -5   3  20  165.47   12.42
  -3  -5  20  153.91    9.06
  -3  -5  20  148.34   11.39
   3   5  21    8.14    2.75
  -5   3  21    7.91    3.04
  -3  -5  21    8.17    2.10
  -3  -5  21    7.98    2.96
   3   5  22   13.87    3.51
  -3  -5  22    8.30    1.94
  -5   3  22    7.69    3.19
  -3  -5  22   10.28    3.31
   3   5  23    3.67    2.08
  -3  -5  23    0.46    0.91
  -5   3  23    4.02    2.89
  -3  -5  23    1.28    1.40
   3   5  24  116.36   10.00
  -3  -5  24  110.30    7.46
  -5   3  24  114.85   10.88
  -3  -5  24  112.38   10.72
   3   5  25   22.31    4.52
  -5   3  25   23.71    5.26
  -3  -5  25   24.64    3.53
  -3  -5  25   21.60    4.77
   3   5  26   32.32    5.36
  -5   3  26   26.27    5.35
  -3  -5  26   29.26    3.69
  -3  -5  26   28.27    5.56
   3   5  27    7.49    2.41
  -3  -5  27    6.53    1.90
  -5   3  27    3.45    2.13
  -3  -5  27    7.85    3.29
  -5   3  28   68.17    8.37
   3   5  28   66.98    7.75
  -3  -5  28   71.73    9.13
  -5   3  28   62.43    7.43
  -5   3  29   16.75    4.39
   3   5  29   20.37    4.35
  -5   3  29   15.41    3.83
  -3  -5  29   21.83    5.12
  -5   3  30    7.94    3.33
   3   5  30    9.74    3.22
  -5   3  30    7.29    2.40
  -3  -5  30   14.52    4.03
  -5   3  31   18.56    4.77
   3   5  31   20.91    4.42
  -5   3  31   10.35    3.20
  -3  -5  31   20.90    5.19
  -5   3  32  131.20   12.03
   3   5  32  139.76   11.23
  -3  -5  32  147.36   13.65
  -5   3  32  142.45   11.98
  -5   3  33    6.19    2.66
   3   5  33    3.57    1.78
  -3  -5  33    6.08    2.93
  -5   3  33    5.60    2.36
  -5   3  34    4.20    2.41
   3   5  34    4.79    2.41
  -3  -5  34    3.11    2.17
  -5   3  34    2.51    2.61
  -5   3  35   20.00    5.42
   3   5  35   37.42    5.93
  -3  -5  35   29.28    6.66
  -5   3  35   20.48    4.74
  -5   3  36  110.63   11.52
  -5   3  36  109.71   11.14
  -5   3  37    5.09    2.47
  -5   3  37    8.38    3.01
  -5   3  38    1.27    2.15
  -5   3  38    0.70    1.85
  -5   3  39    3.89    2.27
  -5   3  39    4.55    2.63
  -5   3  40   70.20    9.52
  -5   2 -36   12.02    4.53
  -2  -5 -36    8.70    3.30
  -5   2 -35   43.07    7.69
  -2  -5 -35   39.69    5.95
  -5   2 -34   46.84    7.91
  -2  -5 -34   46.05    6.15
  -2  -5 -33   16.18    3.70
  -5   2 -33   14.92    4.85
  -2  -5 -32   18.19    3.89
  -5   2 -32   19.04    4.99
  -2  -5 -31   13.52    3.44
  -5   2 -31   20.70    5.17
  -5   2 -30  104.51   11.22
  -2  -5 -30  113.56    9.17
  -2  -5 -29   11.23    2.97
  -5   2 -29   13.46    4.08
  -2  -5 -28   14.01    3.13
  -5   2 -28   19.33    4.82
  -5   2 -28   16.47    2.65
  -5   2 -27   58.19    7.89
  -2  -5 -27   44.39    5.39
  -5   2 -27   56.17    4.85
  -2  -5 -27   43.55    5.44
  -5   2 -26  200.47   14.65
  -2  -5 -26  204.66   11.39
  -5   2 -26  195.15    9.18
  -2  -5 -26  202.18   11.31
  -5   2 -25  165.81   13.08
  -2  -5 -25  170.56   10.19
  -5   2 -25  159.30    8.38
  -2  -5 -25  167.78   10.09
  -2  -5 -24   20.71    3.62
  -5   2 -24   34.44    5.92
  -5   2 -24   26.54    3.48
  -2  -5 -24   16.04    3.05
  -5   2 -24   27.49    3.14
  -5   2 -23   50.08    6.94
  -2  -5 -23   50.76    5.33
  -5   2 -23   49.66    4.74
  -2  -5 -23   46.01    5.05
  -5   2 -23   53.26    4.51
  -5   2 -22  115.93   10.49
  -2  -5 -22  135.25    8.46
  -5   2 -22  121.81    7.47
  -2  -5 -22  125.90    8.16
  -5   2 -21   84.59    8.84
  -2  -5 -21   82.04    6.42
  -5   2 -21   93.61    6.50
  -2  -5 -21   79.68    6.28
  -5   2 -20   64.95    7.59
  -2  -5 -20   49.60    4.92
  -5   2 -20   62.10    5.36
  -2  -5 -20   48.60    4.82
  -2  -5 -19  106.19    6.96
  -5   2 -19   86.60    6.47
  -2  -5 -19   90.09    6.47
  -2  -5 -18  209.96    9.65
  -5   2 -18  189.73    9.60
  -2  -5 -18  189.18    9.21
  -2  -5 -17   27.07    3.42
  -5   2 -17   37.86    4.33
  -2  -5 -17   29.12    3.49
  -2  -5 -16   13.66    2.39
  -5   2 -16   12.83    2.63
  -2  -5 -16   11.70    2.11
   2   5 -15   10.68    2.65
  -2  -5 -15    6.95    1.84
  -5   2 -15   14.71    2.73
  -2  -5 -15    8.89    1.84
  -5   2 -14  192.04    9.94
   2   5 -14  199.01   11.00
  -5   2 -13  208.26   10.35
   2   5 -13  224.74   11.73
  -5   2 -12  194.60   10.03
   2   5 -12  167.89   10.18
  -5   2 -11  134.98    8.40
   2   5 -11  137.01    9.21
   2   5 -10  198.09   11.05
  -5   2 -10  179.63    9.77
  -2  -5  -9  103.15    8.60
   2   5  -9  109.08    8.14
  -5   2  -9  101.78    7.32
  -2  -5  -8  169.40   10.95
   2   5  -8  153.94    9.75
  -5   2  -8  182.01    9.88
  -2  -5  -7  288.34   14.30
   2   5  -7  271.74   13.11
   5  -2  -7  286.15   14.12
  -5   2  -7  279.32   12.48
  -2  -5  -6  207.69   12.08
   2   5  -6  200.51   11.22
   5  -2  -6  179.94   11.05
  -5   2  -6  177.40    9.98
  -2  -5  -5   52.85    6.03
   2   5  -5   47.57    5.43
   5  -2  -5   55.26    5.89
  -5   2  -5   53.78    5.57
   2   5  -4   95.52    7.78
  -2  -5  -4  104.65    8.48
  -5   2  -4  126.13    8.40
   5  -2  -4  117.75    8.70
   2   5  -3  193.82   11.15
  -2  -5  -3  240.50   12.79
   5  -2  -3  199.03   11.34
  -5   2  -3  199.45   10.81
   2   5  -2  362.89   15.52
  -2  -5  -2  384.68   16.42
   5  -2  -2  371.41   15.48
  -5   2  -2  353.40   14.71
   2   5  -1    7.69    2.42
  -2  -5  -1    9.36    2.78
  -5   2  -1   15.30    3.27
   5  -2  -1   10.92    2.66
   2   5   0    1.07    1.26
  -2  -5   0    1.42    1.05
  -5   2   0    0.27    1.22
   5  -2   0   -0.16    0.73
  -2  -5   1    7.74    2.46
   2   5   1    8.21    2.44
  -2  -5   1    6.00    1.57
  -5   2   1   14.37    3.07
   5  -2   1   13.32    3.05
   2   5   2  352.93   15.37
  -2  -5   2  354.03   15.50
  -5   2   2  339.88   14.76
   5  -2   2  358.94   14.74
  -2  -5   2  330.19   11.87
   2   5   3  229.69   12.31
  -2  -5   3  207.94   11.78
   5  -2   3  225.52   11.51
  -5   2   3  206.38   11.47
  -2  -5   3  201.56    9.23
   2   5   4  103.66    8.23
  -2  -5   4  109.16    8.40
   5  -2   4  121.50    8.31
  -5   2   4  123.92    8.90
  -2  -5   4   98.63    6.51
   2   5   5   56.36    6.09
  -2  -5   5   54.94    6.01
  -2  -5   5   53.63    4.92
  -5   2   5   62.89    6.41
   5  -2   5   61.44    5.90
   2   5   6  208.61   11.86
  -2  -5   6  200.09   11.37
  -2  -5   6  187.26    9.53
   5  -2   6  172.11    9.89
  -5   2   6  166.16   10.57
  -2  -5   6  193.36   10.00
  -2  -5   7  255.47   12.96
   2   5   7  297.35   14.31
  -2  -5   7  256.16   11.47
  -5   2   7  260.71   13.43
   5  -2   7  277.32   12.47
  -2  -5   7  254.72   11.56
   2   5   8  179.31   11.13
  -2  -5   8  168.89   10.45
  -2  -5   8  164.13    9.28
  -5   2   8  191.36   11.51
  -2  -5   8  158.37    8.94
   5  -2   8  185.88   10.02
   2   5   9  103.51    8.53
  -2  -5   9   98.39    7.95
  -2  -5   9   94.50    7.14
  -5   2   9   93.59    8.15
  -2  -5   9  101.42    7.01
   5  -2   9   94.65    7.07
   2   5  10  197.27   11.74
  -2  -5  10  198.57   11.28
  -2  -5  10  191.38   10.32
  -5   2  10  162.76   10.92
  -2  -5  10  186.15    9.51
   5  -2  10  163.88    9.39
   2   5  11  148.13   10.21
  -2  -5  11  152.13    9.84
  -2  -5  11  141.22    9.02
  -5   2  11  143.62   10.26
   5  -2  11  144.96    8.71
  -2  -5  11  145.51    8.32
   2   5  12  158.54   10.70
  -2  -5  12  167.11   10.26
  -2  -5  12  156.69    9.76
  -5   2  12  188.55   11.86
  -2  -5  12  163.80    8.83
   5  -2  12  185.53    9.74
  -2  -5  13  229.03   12.08
   2   5  13  228.93   12.87
  -2  -5  13  213.64   11.65
  -5   2  13  194.69   12.28
   5  -2  13  201.33   10.17
  -2  -5  13  213.45   11.55
  -2  -5  13  219.84   10.19
  -2  -5  14  212.46   11.65
   2   5  14  203.73   12.17
  -2  -5  14  204.67   11.60
  -5   2  14  226.29   13.25
   5  -2  14  209.72   10.32
  -2  -5  14  209.35   11.67
  -2  -5  14  219.26   10.02
  -2  -5  15    6.20    2.30
   2   5  15    8.29    2.66
  -2  -5  15    7.56    2.41
  -5   2  15    7.80    2.57
  -2  -5  15    8.28    2.09
   5  -2  15   13.16    2.66
  -2  -5  15    7.32    2.43
  -2  -5  16   11.90    2.89
   2   5  16   12.35    3.12
  -2  -5  16   15.54    3.30
  -5   2  16   12.23    3.09
  -2  -5  16   13.87    2.47
  -2  -5  16   19.74    3.90
   5  -2  16   13.35    2.48
  -2  -5  17   29.30    4.34
   2   5  17   32.39    4.96
  -5   2  17   32.40    4.73
  -5   2  17   37.62    5.65
  -2  -5  17   27.25    3.36
  -2  -5  17   28.06    4.62
   2   5  18  178.66   11.72
  -2  -5  18  174.13   10.43
  -5   2  18  175.15   12.21
  -2  -5  18  181.68    8.71
  -2  -5  18  182.35   11.75
   2   5  19   95.37    8.51
  -2  -5  19   84.55    7.17
  -5   2  19   94.96    9.03
  -2  -5  19   93.21    6.13
  -2  -5  19   91.96    8.47
   2   5  20   48.89    6.18
  -2  -5  20   54.17    5.77
  -5   2  20   53.09    6.88
  -2  -5  20   52.79    4.52
  -2  -5  20   53.03    6.53
   2   5  21   77.23    7.83
  -2  -5  21   89.09    7.38
  -5   2  21  100.64    9.53
  -2  -5  21   84.19    5.71
  -2  -5  21   77.39    8.06
   2   5  22  129.13   10.07
  -2  -5  22  117.61    8.49
  -5   2  22  109.19    9.92
  -2  -5  22  128.95    6.99
  -2  -5  22  126.45   10.48
   2   5  23   44.11    5.92
  -2  -5  23   44.88    5.18
  -2  -5  23   46.57    4.05
  -5   2  23   53.97    7.07
  -2  -5  23   38.88    6.04
  -2  -5  24   18.05    3.42
   2   5  24   17.23    3.63
  -5   2  24   24.18    4.83
  -2  -5  24   16.19    2.31
  -2  -5  24   15.69    3.89
   2   5  25  164.89   11.66
  -2  -5  25  147.56    9.42
  -2  -5  25  163.97    7.48
  -5   2  25  152.19   12.14
  -2  -5  25  155.61   12.47
   2   5  26  207.76   13.23
  -2  -5  26  225.96   11.66
  -2  -5  26  235.16    8.84
  -5   2  26  212.71   14.60
  -2  -5  26  209.66   14.66
   2   5  27   47.04    6.31
  -5   2  27   57.21    7.58
  -2  -5  27   50.58    3.89
  -2  -5  27   54.61    7.59
   2   5  28   19.19    4.19
  -5   2  28   19.96    4.62
  -2  -5  28   15.81    4.25
   2   5  29   13.16    3.74
  -5   2  29   18.57    4.57
  -5   2  29   15.72    4.00
  -2  -5  29   17.50    4.79
   2   5  30  114.72    9.92
  -5   2  30  100.73   10.34
  -2  -5  30  105.68   11.04
  -5   2  30  102.67   10.16
   2   5  31   13.31    3.49
  -5   2  31   19.85    5.28
  -5   2  31   14.47    3.93
  -2  -5  31   13.51    4.07
   2   5  32   18.13    3.93
  -5   2  32   24.26    5.23
  -2  -5  32   20.91    5.18
   2   5  33    8.26    3.06
  -5   2  33   17.01    4.58
  -2  -5  33   16.03    4.81
   2   5  34   51.12    6.66
  -5   2  34   40.65    6.87
  -2  -5  34   50.35    8.03
  -5   2  35   38.20    6.23
   2   5  35   32.81    5.47
  -5   2  35   40.05    6.87
  -2  -5  35   32.84    6.91
  -5   2  36   13.16    3.88
   2   5  36   13.72    3.67
  -2  -5  36   14.75    4.36
  -5   2  36    9.49    3.72
  -5   2  37   20.63    4.92
  -5   2  37   26.00    5.56
  -5   2  38   33.48    6.10
  -5   2  38   26.84    6.05
  -5   2  39   34.81    6.10
  -5   2  39   25.57    5.64
  -5   2  40   14.75    4.82
  -5   2  41    5.14    3.44
   1   5 -37   24.98    5.99
  -5   1 -36    5.16    3.35
   1   5 -36    5.61    3.24
  -5   1 -35   20.86    5.53
   1   5 -35   16.09    4.40
  -1  -5 -35   16.14    4.00
  -5   1 -34   94.16   11.29
   1   5 -34   82.44   10.28
  -1  -5 -34   79.89    7.91
  -5   1 -33   37.98    7.09
   1   5 -33   41.49    7.43
  -1  -5 -33   37.35    5.40
   1   5 -32    3.84    2.51
  -1  -5 -32    3.52    2.09
  -5   1 -32    5.38    2.66
  -1  -5 -31    7.38    2.35
   1   5 -31   16.61    4.59
  -5   1 -31   10.49    3.66
  -5   1 -30  298.36   18.80
   1   5 -30  304.07   18.71
  -1  -5 -30  306.47   14.44
  -5   1 -30  320.05   13.07
  -1  -5 -29   19.29    3.65
   1   5 -29   25.99    5.70
  -5   1 -29   23.50    5.26
  -5   1 -29   18.36    3.16
   1   5 -28   11.35    3.91
  -5   1 -28   22.85    5.25
  -1  -5 -28   16.40    3.21
  -5   1 -28   22.37    3.44
   1   5 -27   27.84    5.25
  -5   1 -27   23.09    5.38
  -1  -5 -27   22.34    3.68
  -1  -5 -27   18.45    3.37
  -5   1 -27   23.92    3.61
  -5   1 -26  363.16   19.57
   1   5 -26  360.53   18.83
  -1  -5 -26  367.75   14.43
  -5   1 -26  364.08   14.08
  -1  -5 -26  339.52   13.91
  -5   1 -25   27.32    3.14
  -5   1 -25   24.91    5.10
   1   5 -25   18.10    4.41
  -1  -5 -25   17.12    3.00
  -5   1 -25   29.57    3.99
  -1  -5 -25   15.97    3.01
  -5   1 -24   17.36    2.66
   1   5 -24   21.41    4.35
  -5   1 -24   23.74    4.95
  -1  -5 -24   16.52    2.83
  -5   1 -24   18.57    3.20
  -1  -5 -24   19.93    3.10
  -5   1 -23   82.41    5.74
  -5   1 -23   85.45    9.04
   1   5 -23   98.76    9.22
  -1  -5 -23   76.26    5.90
  -5   1 -23   81.82    6.58
  -1  -5 -23   78.75    5.95
  -5   1 -22  311.14   11.67
  -5   1 -22  315.52   17.31
   1   5 -22  291.93   15.65
  -1  -5 -22  301.75   11.68
  -5   1 -22  313.13   13.05
  -1  -5 -22  294.25   11.58
   1   5 -21   59.99    7.01
  -1  -5 -21   63.39    5.06
  -5   1 -21   59.02    5.59
  -1  -5 -21   58.77    4.89
  -5   1 -21   59.18    5.01
  -5   1 -20   21.02    3.09
   1   5 -20   24.07    4.37
  -1  -5 -20   32.64    3.57
  -5   1 -20   27.62    3.86
  -1  -5 -20   31.93    3.48
   1   5 -19   78.64    7.64
  -1  -5 -19   69.62    4.95
  -5   1 -19   95.00    7.05
  -5   1 -19   90.28    6.32
  -1  -5 -19   67.77    4.95
   1   5 -19   75.59    6.20
  -1  -5 -18  453.27   12.86
   1   5 -18  429.44   17.82
  -5   1 -18  443.36   15.75
  -1  -5 -18  437.40   12.79
   1   5 -18  449.52   15.78
   1   5 -17   15.71    2.91
  -1  -5 -17   10.50    1.94
  -5   1 -17   11.28    2.71
  -1  -5 -17   11.86    1.99
   1   5 -16    3.04    1.13
  -1  -5 -16    4.07    1.03
  -5   1 -16    5.44    1.77
  -1  -5 -16    5.19    1.26
   1   5 -15   52.95    5.32
  -1  -5 -15   54.11    3.73
  -5   1 -15   43.64    4.77
  -1  -5 -15   52.06    3.69
   1   5 -14  444.99   15.96
  -1  -5 -14  444.47   11.27
  -5   1 -14  440.62   15.68
  -1  -5 -14  434.01   11.14
   1   5 -13   73.59    6.35
  -1  -5 -13   88.36    7.82
  -1  -5 -13   87.20    4.41
  -5   1 -13   93.80    7.09
  -1  -5 -13   83.71    4.34
  -1  -5 -12    2.79    1.45
   1   5 -12    3.53    1.60
  -1  -5 -12    2.00    0.57
  -5   1 -12    5.36    1.95
  -1  -5 -12    1.55    0.73
   1   5 -11   86.55    6.83
  -1  -5 -11   74.12    7.11
  -1  -5 -11   74.12    3.76
  -5   1 -11   67.23    5.95
   5  -1 -11   68.85    6.89
  -1  -5 -11   69.59    3.65
   1   5 -10  546.07   18.19
  -1  -5 -10  561.08   20.15
  -1  -5 -10  554.62   11.45
  -5   1 -10  544.40   17.81
   5  -1 -10  570.13   20.37
  -1  -5 -10  547.46   11.45
   1   5  -9  153.19    9.28
  -1  -5  -9  159.48   10.37
   5  -1  -9  168.19   10.68
  -5   1  -9  171.96    9.63
   1   5  -8   29.00    3.98
  -1  -5  -8   31.51    4.63
   5  -1  -8   33.31    4.89
  -5   1  -8   36.95    4.49
  -1  -5  -7  153.20   10.12
   1   5  -7  179.89   10.18
   5  -1  -7  177.17   10.75
  -5   1  -7  159.45    9.29
   1   5  -6  569.54   18.86
  -1  -5  -6  588.03   20.36
  -5   1  -6  560.35   18.24
   5  -1  -6  585.91   20.07
   1   5  -5  113.75    8.19
  -1  -5  -5  131.73    9.25
  -1  -5  -5  119.66    4.70
  -5   1  -5  126.07    8.31
   5  -1  -5  137.14    9.24
   1   5  -4    5.71    1.83
  -1  -5  -4   10.91    2.60
  -1  -5  -4    8.70    1.25
  -5   1  -4    9.61    2.53
   5  -1  -4    8.48    2.28
   1   5  -3   17.78    3.17
  -1  -5  -3   22.02    3.84
  -5   1  -3   32.74    4.26
   5  -1  -3   31.11    4.41
  -1  -5  -3   21.93    2.12
   1   5  -2  428.97   16.31
  -1  -5  -2  445.40   17.11
  -1  -5  -2  420.01   10.40
  -5   1  -2  412.49   15.76
   5  -1  -2  440.45   16.76
  -1  -5  -1    8.71    2.64
   1   5  -1    5.82    1.95
  -1  -5  -1    5.48    1.21
  -5   1  -1    1.50    1.27
   5  -1  -1    2.99    1.64
  -1  -5   0   21.09    3.58
   1   5   0   23.61    3.85
  -1  -5   0   18.28    2.11
  -5   1   0   23.19    3.80
   5  -1   0   21.77    3.56
  -1  -5   1    8.04    2.45
   1   5   1    7.76    2.27
  -1  -5   1    6.89    1.43
  -5   1   1    1.53    1.11
   5  -1   1    3.28    1.65
  -1  -5   2  410.39   16.24
   1   5   2  407.13   16.18
   5  -1   2  423.42   16.00
  -5   1   2  434.19   16.44
  -1  -5   2  413.91   11.70
  -1  -5   3   25.08    3.98
   1   5   3   28.85    4.29
  -1  -5   3   21.15    2.63
   5  -1   3   38.37    4.69
  -5   1   3   36.78    4.75
  -1  -5   4    7.60    2.08
   1   5   4   12.67    3.14
  -1  -5   4    6.45    1.52
  -5   1   4   10.14    2.59
   5  -1   4   12.06    2.65
  -1  -5   4    8.22    1.65
  -1  -5   5  116.58    8.25
   1   5   5  119.33    8.72
  -1  -5   5  108.99    6.26
  -5   1   5  128.15    8.93
  -1  -5   5  108.61    6.24
   5  -1   5  120.92    8.21
  -1  -5   6  573.79   19.12
   1   5   6  577.74   19.89
  -1  -5   6  541.11   15.43
  -5   1   6  592.53   20.14
  -1  -5   6  569.78   15.69
   5  -1   6  595.44   18.89
  -1  -5   7  174.29   10.17
   1   5   7  158.70   10.20
  -1  -5   7  169.04    8.39
  -5   1   7  168.17   10.53
   5  -1   7  157.61    9.40
  -1  -5   7  178.83    8.56
   1   5   8   36.69    4.93
  -1  -5   8   30.64    4.21
  -1  -5   8   30.95    3.66
  -5   1   8   30.11    4.53
   5  -1   8   34.80    4.40
  -1  -5   8   29.09    3.56
  -1  -5   9  146.14    9.22
   1   5   9  152.47   10.03
  -1  -5   9  140.02    8.12
  -5   1   9  158.47   10.22
   5  -1   9  173.90    9.61
  -1  -5   9  141.68    8.09
  -1  -5  10  574.51   18.82
   1   5  10  559.21   19.95
  -1  -5  10  551.97   17.21
  -5   1  10  567.41   20.35
   5  -1  10  554.70   18.03
  -1  -5  10  553.82   17.08
   1   5  11   77.03    7.33
  -1  -5  11   86.34    7.01
  -1  -5  11   76.09    6.23
  -5   1  11   74.98    7.20
   5  -1  11   65.11    5.89
  -1  -5  11   89.13    5.87
  -1  -5  11   88.36    6.67
   1   5  12    3.36    2.10
  -1  -5  12    4.03    1.99
  -1  -5  12    0.94    1.49
  -5   1  12    5.38    2.46
  -1  -5  12    1.63    1.41
  -1  -5  12    1.85    1.14
   5  -1  12    1.76    1.41
  -1  -5  13   74.30    6.50
   1   5  13   90.80    7.88
  -1  -5  13   78.24    6.66
  -5   1  13   89.30    8.04
  -1  -5  13   73.73    5.18
   5  -1  13   90.51    6.83
  -1  -5  13   80.45    6.68
  -1  -5  14  424.48   15.89
   1   5  14  432.48   17.75
  -1  -5  14  444.25   16.61
  -5   1  14  443.07   18.32
  -1  -5  14  432.89   12.97
  -1  -5  14  427.90   16.28
  -1  -5  15   55.57    5.57
   1   5  15   56.54    6.38
  -1  -5  15   50.25    5.49
  -5   1  15   38.65    5.46
  -1  -5  15   46.59    5.33
  -1  -5  15   52.57    4.21
   1   5  16    5.68    2.22
  -1  -5  16    5.85    1.97
  -1  -5  16    3.65    1.57
  -5   1  16   12.87    3.10
  -1  -5  16    6.26    1.47
  -1  -5  16    4.78    1.71
   1   5  17   17.41    3.93
  -1  -5  17   22.47    3.60
  -1  -5  17   21.04    3.94
  -5   1  17   13.42    3.37
  -1  -5  17   16.57    2.28
  -1  -5  17   17.14    3.57
  -1  -5  18  435.17   15.77
   1   5  18  438.21   18.25
  -1  -5  18  456.12   18.37
  -5   1  18  451.09   19.15
  -1  -5  18  441.96   12.12
  -1  -5  18  417.57   17.57
  -1  -5  19   75.08    6.33
   1   5  19   74.79    7.55
  -5   1  19  102.53    8.97
  -1  -5  19   78.75    4.65
  -1  -5  19   78.60    7.54
   1   5  20   35.89    5.34
  -1  -5  20   27.85    3.89
  -5   1  20   26.55    4.72
  -1  -5  20   27.70    2.65
  -1  -5  20   26.74    4.44
  -1  -5  21   63.74    5.76
   1   5  21   69.17    7.31
  -5   1  21   67.54    7.45
  -1  -5  21   69.82    4.03
  -1  -5  21   67.85    7.43
  -1  -5  22  271.06   12.10
   1   5  22  321.16   15.82
  -5   1  22  320.96   16.66
  -1  -5  22  300.56    8.48
  -1  -5  22  286.96   15.44
  -1  -5  23   86.61    6.62
   1   5  23   76.12    7.75
  -5   1  23   90.33    8.91
  -1  -5  23   94.74    4.21
  -1  -5  23   90.15    8.70
  -1  -5  24   21.14    3.28
   1   5  24   18.04    3.80
  -5   1  24   23.87    4.57
  -1  -5  24   18.74    1.63
  -1  -5  24   21.76    4.48
  -1  -5  25   12.95    2.67
   1   5  25   17.97    4.01
  -1  -5  25   11.65    1.11
  -5   1  25   23.25    4.80
  -1  -5  25   14.49    3.77
   1   5  26  355.48   17.19
  -1  -5  26  343.76   13.23
  -5   1  26  369.85   18.66
  -1  -5  26  345.45   18.26
   1   5  27   23.60    4.41
  -5   1  27   24.52    4.98
  -1  -5  27   31.02    5.64
   1   5  28   21.05    4.23
  -5   1  28   16.71    4.06
  -1  -5  28   14.05    3.79
   1   5  29   16.81    3.95
  -5   1  29   18.08    4.37
  -1  -5  29   18.45    4.72
   1   5  30  297.59   16.04
  -5   1  30  295.48   17.28
  -1  -5  30  310.66   18.51
   1   5  31    7.80    3.01
  -5   1  31    5.22    2.69
  -1  -5  31   10.09    3.59
  -5   1  31   10.41    3.85
   1   5  32    4.22    2.02
  -5   1  32    4.87    2.62
  -1  -5  32    3.71    2.37
  -5   1  32    3.94    2.47
   1   5  33   30.21    5.34
  -5   1  33   37.99    6.54
  -1  -5  33   39.55    7.14
  -5   1  33   38.03    6.51
   1   5  34   84.43    8.74
  -5   1  34   76.84    9.24
  -5   1  34   89.07   10.15
  -1  -5  34   81.25   10.06
   1   5  35   17.71    4.21
  -5   1  35   16.18    4.47
  -1  -5  35   25.76    5.89
   1   5  36    2.61    1.42
  -5   1  36   -0.60    1.70
  -1  -5  36    1.71    1.29
   1   5  37   19.88    4.42
  -5   1  37   21.19    5.47
  -1  -5  37   24.40    5.90
  -5   1  38   78.01   10.19
  -5   1  39   12.37    4.07
  -5   1  40   -0.13    1.64
   0   5 -38   23.77    6.53
   0   5 -37   62.38    9.17
  -5   0 -37   70.68   10.05
   0   5 -36   29.48    6.17
  -5   0 -36   25.14    5.81
   0   5 -35   86.10   10.67
  -5   0 -35   81.96   10.45
   0  -5 -34   41.36    5.44
   0   5 -34   37.28    6.80
  -5   0 -34   44.10    7.47
   0   5 -33   95.55   10.67
   0  -5 -33  106.82    8.58
  -5   0 -33  110.03   11.71
  -5   0 -33  110.64    8.45
   0  -5 -32   18.01    3.55
   0   5 -32   18.89    4.85
  -5   0 -32    8.76    3.33
  -5   0 -32   13.53    3.09
   0  -5 -31   14.63    3.25
   0   5 -31   16.30    4.15
  -5   0 -31   17.90    4.82
  -5   0 -31   16.06    3.20
   0  -5 -30   20.12    3.58
   0   5 -30   19.23    4.64
  -5   0 -30   17.44    4.54
  -5   0 -30   20.37    3.73
  -5   0 -29   78.52    7.05
   0  -5 -29   84.33    6.85
   0   5 -29   67.88    8.35
  -5   0 -29   87.59    9.93
  -5   0 -28   41.46    5.33
   0  -5 -28   52.89    5.36
   0   5 -28   55.53    7.49
  -5   0 -28   33.83    6.20
  -5   0 -27  176.78   10.50
   0  -5 -27  165.52    9.27
  -5   0 -27  180.83   13.89
   0   5 -27  179.81   13.16
  -5   0 -26   49.92    4.55
  -5   0 -26   51.95    5.78
   0   5 -26   42.26    6.16
  -5   0 -26   56.58    7.73
   0  -5 -26   41.56    4.52
  -5   0 -25  134.16    7.54
   0  -5 -25  140.12    7.95
  -5   0 -25  127.08   11.27
   0   5 -25  141.77   11.30
  -5   0 -25  126.33    8.87
   0   5 -24   18.05    4.01
  -5   0 -24   12.86    3.87
   0  -5 -24   18.55    2.92
  -5   0 -24    9.37    2.09
  -5   0 -24    9.60    2.89
  -5   0 -23  303.77   12.09
   0  -5 -23  299.71   11.12
   0   5 -23  313.60   16.34
  -5   0 -23  304.06   13.82
   0   5 -22   11.53    3.46
   0  -5 -22    9.84    1.95
  -5   0 -22   15.81    2.71
   0   5 -22    9.06    2.15
  -5   0 -22   17.68    3.42
  -5   0 -21  188.95    9.53
   0  -5 -21  206.07    8.36
   0   5 -21  191.08   12.11
  -5   0 -21  199.86   11.01
   0   5 -21  184.78    9.08
   0   5 -20   72.79    5.66
  -5   0 -20   55.64    5.13
  -5   0 -20   54.55    5.82
   0  -5 -20   76.06    4.79
   0   5 -20   74.52    7.34
   0   5 -19   65.26    5.41
  -5   0 -19   67.80    5.71
  -5   0 -19   65.95    6.24
   0  -5 -19   67.30    4.29
   0   5 -19   72.56    7.15
  -5   0 -18   56.02    5.19
   0   5 -18   31.35    3.86
  -5   0 -18   52.83    5.49
   0  -5 -18   44.01    3.26
   0   5 -18   40.90    5.31
   0   5 -17  240.30   10.89
  -5   0 -17  264.44   11.65
   0  -5 -17  259.76    7.78
   0   5 -17  248.94   12.72
  -5   0 -17  268.51   12.62
   0   5 -16   85.86    6.39
   0  -5 -16   87.53    3.97
   0   5 -16   94.30    7.54
  -5   0 -16   69.77    6.40
  -5   0 -16   66.94    5.87
   0   5 -15  125.16    7.81
   0   5 -15  119.01    8.29
   0  -5 -15  119.01    4.27
  -5   0 -15  127.97    8.60
  -5   0 -15  133.63    8.29
   0   5 -14   46.70    4.79
   0   5 -14   49.35    5.24
   0  -5 -14   48.49    2.29
  -5   0 -14   48.23    5.20
  -5   0 -14   51.61    5.12
   0   5 -13  119.00    7.72
   0  -5 -13  120.42    9.13
   5   0 -13  122.07    9.19
  -5   0 -13  123.55    8.41
   0   5 -13  118.30    7.87
   0  -5 -12  115.70    8.86
   0   5 -12  115.34    7.63
   5   0 -12   90.21    7.88
  -5   0 -12   94.16    7.33
   0   5 -12  116.02    7.55
   0  -5 -11  136.82    9.67
   0   5 -11  147.65    8.70
  -5   0 -11  144.92    9.12
   5   0 -11  156.47   10.29
   0   5 -11  139.63    8.09
   0   5 -10   24.62    3.58
  -5   0 -10   37.62    4.54
   5   0 -10   38.60    5.09
   0   5 -10   22.37    3.15
   0  -5 -10   24.39    4.08
   0  -5  -9  240.42   12.67
   0   5  -9  192.42   10.15
   5   0  -9  215.88   12.00
  -5   0  -9  217.58   11.14
   0   5  -9  211.15    9.44
   0   5  -8  130.55    8.26
   0  -5  -8  129.62    9.29
  -5   0  -8  100.61    7.57
   5   0  -8  116.25    8.75
   0   5  -8  139.33    7.31
   0   5  -7  445.85   15.98
   0  -5  -7  463.80   17.88
  -5   0  -7  478.30   16.95
   5   0  -7  496.81   18.22
   0   5  -6   96.56    7.24
   0  -5  -6   98.63    7.92
  -5   0  -6  120.72    8.23
   5   0  -6  120.60    8.58
   0   5  -5  336.63   13.88
   0  -5  -5  369.25   15.44
  -5   0  -5  370.39   14.84
   5   0  -5  367.94   15.35
   0  -5  -4  105.46    8.13
   0   5  -4  115.41    7.97
  -5   0  -4   72.80    6.57
   5   0  -4   77.74    6.97
   0  -5  -3  358.83   15.10
   0   5  -3  349.44   14.45
   5   0  -3  350.66   14.93
  -5   0  -3  339.97   14.24
   0  -5  -2  121.33    8.57
   0   5  -2  117.53    8.24
  -5   0  -2  126.58    8.55
   5   0  -2  139.12    9.08
   0  -5  -1   31.86    4.38
   0   5  -1   30.92    4.46
   0  -5  -1   31.68    1.90
  -5   0  -1   33.34    4.37
   5   0  -1   30.63    4.32
   0  -5  -1   32.20    1.92
   0  -5   0  116.24    8.34
   0   5   0  114.01    8.17
   0  -5   0  116.04    4.27
  -5   0   0  105.95    7.83
   0  -5   0  116.92    4.27
   5   0   0  116.98    8.36
   0  -5   1   36.56    4.71
   0   5   1   41.01    4.90
   0  -5   1   36.08    2.57
  -5   0   1   42.89    4.96
   0  -5   1   35.98    2.55
   5   0   1   43.55    5.03
   0  -5   2  122.01    8.46
   0   5   2  126.09    8.65
   0  -5   2  109.48    4.96
  -5   0   2  132.65    8.79
   5   0   2  141.47    9.09
   0  -5   2  119.65    5.10
   0  -5   3  346.81   14.44
   0   5   3  350.20   14.81
   0  -5   3  344.97    9.74
  -5   0   3  333.20   14.33
   5   0   3  352.87   14.59
   0  -5   3  347.68    9.70
   0  -5   4  118.31    8.28
   0   5   4  106.41    8.14
   0  -5   4  111.44    5.60
  -5   0   4   82.90    7.09
   5   0   4   75.03    6.67
   0  -5   4  117.72    5.63
   0  -5   5  341.07   14.18
   0   5   5  351.25   15.02
   0  -5   5  330.85   10.49
  -5   0   5  353.06   14.94
   5   0   5  362.35   14.60
   0  -5   5  341.58   10.50
   0  -5   6  101.17    7.57
   0   5   6   96.58    7.72
   0  -5   6   92.91    5.58
  -5   0   6  121.02    8.53
   5   0   6  124.80    8.35
   0  -5   6   96.67    5.67
   0  -5   7  450.19   16.29
   0   5   7  451.65   17.31
   0  -5   7  446.97   13.35
  -5   0   7  463.13   17.40
   0  -5   7  455.18   13.39
   5   0   7  447.40   16.49
   0  -5   8  160.43    9.39
   0   5   8  141.18    9.60
   0  -5   8  132.13    7.16
  -5   0   8  110.84    8.40
   5   0   8  111.01    8.04
   0  -5   8  148.62    7.56
   0  -5   9  209.72   10.66
   0   5   9  207.32   11.71
   0  -5   9  196.82    9.19
  -5   0   9  208.99   11.64
   5   0   9  215.81   11.17
   0  -5   9  201.10    9.15
   0   5  10   20.79    3.81
   0  -5  10   20.90    3.37
   0  -5  10   22.57    3.14
  -5   0  10   30.59    4.42
   0  -5  10   21.71    3.08
   5   0  10   30.85    4.20
   0  -5  11  138.77    8.59
   0   5  11  121.60    9.05
   0  -5  11  130.94    7.97
  -5   0  11  135.74    9.45
   0  -5  11  139.50    8.05
   0  -5  12  122.59    8.04
   0   5  12  125.05    9.20
   0  -5  12  126.28    8.04
  -5   0  12   95.37    8.00
   0  -5  12  121.66    7.79
   0  -5  13  119.27    7.89
   0   5  13  118.47    9.04
   0  -5  13  125.64    8.19
  -5   0  13  125.09    9.24
   0  -5  13  124.57    8.08
   0  -5  14   42.77    4.64
   0   5  14   43.82    5.50
   0  -5  14   52.17    5.46
  -5   0  14   57.47    6.26
   0  -5  14   41.80    3.33
   0  -5  14   46.50    5.08
   0  -5  15  136.90    8.30
   0   5  15  117.75    9.13
   0  -5  15  131.30    8.79
  -5   0  15  148.00   10.13
   0  -5  15  137.66    5.92
   0  -5  15  130.37    8.79
   0  -5  16   84.33    6.48
   0   5  16   89.58    8.01
   0  -5  16   80.76    7.05
  -5   0  16   71.00    7.24
   0  -5  16   79.64    4.25
   0  -5  16   83.43    7.12
   0  -5  17  233.03   10.90
   0   5  17  251.64   13.66
   0  -5  17  240.01   12.56
  -5   0  17  265.14   13.97
   0  -5  17  249.51   12.72
   0  -5  17  236.60    7.23
   0  -5  18   38.08    4.28
   0   5  18   41.17    5.67
   0  -5  18   38.99    5.15
  -5   0  18   50.36    6.09
   0  -5  18   40.88    2.67
   0  -5  18   41.01    2.65
   0  -5  18   40.27    5.21
   0  -5  19   73.07    5.87
   0   5  19   70.03    7.30
   0  -5  19   77.77    7.45
  -5   0  19   79.98    7.83
   0  -5  19   79.72    3.29
   0  -5  19   73.11    3.21
   0  -5  19   77.08    7.23
   0  -5  20   79.94    6.09
   0   5  20   81.10    7.91
   0  -5  20   69.06    2.42
   0  -5  20   66.29    2.40
  -5   0  20   50.68    6.29
   0  -5  20   78.55    7.59
   0  -5  21  183.56    9.14
   0   5  21  199.69   12.38
  -5   0  21  200.83   12.51
   0  -5  21  174.40   11.62
   0   5  22   12.40    3.47
   0  -5  22    6.71    1.90
  -5   0  22   17.51    3.73
   0  -5  22    8.68    2.95
   0   5  23  276.88   14.97
   0  -5  23  282.53   11.21
  -5   0  23  305.70   15.84
   0  -5  23  288.61   15.56
   0   5  24   20.15    4.39
   0  -5  24   22.06    3.15
  -5   0  24   12.63    3.56
   0  -5  24   21.86    4.61
   0  -5  25  121.44    6.98
   0   5  25  133.73   10.44
  -5   0  25  119.40   10.05
   0  -5  25  120.16   10.47
   0   5  26   33.05    5.27
   0  -5  26   33.70    3.60
  -5   0  26   40.44    5.89
   0  -5  26   36.01    6.01
   0   5  27  156.80   11.54
  -5   0  27  180.42   12.64
   0  -5  27  170.33   12.88
   0   5  28   45.99    6.36
  -5   0  28   44.74    6.41
   0  -5  28   50.30    7.32
   0   5  29   82.77    8.36
  -5   0  29   77.02    8.34
   0  -5  29   76.04    8.85
   0   5  30   15.90    3.86
  -5   0  30   20.64    4.51
   0  -5  30   18.16    4.41
   0   5  31   12.82    3.55
  -5   0  31   15.62    3.82
   0  -5  31   17.46    4.39
  -5   0  31   17.26    4.55
   0   5  32   18.04    4.41
  -5   0  32    8.90    3.04
   0  -5  32   11.23    3.65
  -5   0  32    9.08    3.33
   0   5  33   98.03    9.40
  -5   0  33  109.62   10.31
  -5   0  33   96.02   10.64
   0  -5  33   99.80   11.09
   0   5  34   37.68    6.30
  -5   0  34   49.77    7.27
  -5   0  34   42.58    7.26
   0  -5  34   37.89    6.86
   0   5  35   67.05    7.93
  -5   0  35   76.46    8.97
  -5   0  35   84.17   10.40
   0  -5  35   79.15   10.00
   0   5  36   37.68    6.14
  -5   0  36   26.81    5.58
  -5   0  36   26.02    5.91
   0  -5  36   38.70    7.01
   0   5  37   64.16    7.73
  -5   0  37   53.91    7.66
  -5   0  37   69.02    9.66
   0  -5  37   52.14    8.38
   0   5  38   33.82    5.78
  -5   0  38   30.76    6.39
   0  -5  38   25.16    6.20
  -1   5 -38    8.96    3.82
  -5  -1 -37   33.88    7.01
  -1   5 -37   34.34    6.98
  -1   5 -36  105.73   11.98
  -5  -1 -36   85.84   10.62
  -1   5 -35   23.07    5.56
  -5  -1 -35   27.33    6.17
  -5  -1 -35   26.02    4.73
  -1   5 -34    6.61    2.86
  -5  -1 -34    4.20    2.63
  -5  -1 -34    2.69    1.89
  -1   5 -33   36.44    6.72
  -5  -1 -33   41.00    7.27
  -5  -1 -33   37.85    5.46
  -5  -1 -32  125.77   12.26
  -1   5 -32  136.77   12.65
  -5  -1 -32  118.51    9.57
  -1   5 -31   15.00    4.48
  -5  -1 -31   18.13    4.69
  -5  -1 -31   21.75    4.09
  -1   5 -30   21.09    4.85
  -5  -1 -30   15.25    4.42
  -5  -1 -30   18.01    3.76
  -1   5 -29   17.73    4.44
  -5  -1 -29   11.01    3.65
  -5  -1 -29   22.40    4.18
  -5  -1 -28  103.14   10.57
  -1   5 -28  106.64   10.33
  -5  -1 -28   89.30    8.15
  -1   5 -27   29.72    5.69
  -5  -1 -27   27.16    5.53
  -5  -1 -27   34.79    5.07
  -1   5 -26   26.19    5.09
  -5  -1 -26   32.39    5.86
  -5  -1 -26   25.32    3.55
  -5  -1 -26   22.99    4.13
  -1   5 -25   40.49    6.14
  -5  -1 -25   36.99    6.18
  -5  -1 -25   32.47    4.10
  -1   5 -25   36.66    3.43
  -5  -1 -25   32.56    4.91
  -1   5 -24  136.67   10.83
  -5  -1 -24  136.11    8.46
  -5  -1 -24  136.86    9.89
  -1   5 -24  138.46    6.93
  -1   5 -23  156.33   11.37
  -5  -1 -23  155.05    9.07
  -1   5 -23  157.73    7.66
  -5  -1 -23  163.66   10.73
  -1   5 -22   20.48    4.24
  -1   5 -22   18.52    2.74
  -5  -1 -22   25.31    3.65
  -5  -1 -22   23.57    4.04
  -1   5 -21  112.77    9.17
  -1   5 -21  109.58    6.65
  -5  -1 -21  105.20    7.58
  -5  -1 -21  107.76    8.56
  -1   5 -20  156.42   10.64
  -5  -1 -20  148.28    9.06
  -1   5 -20  145.12    7.77
  -5  -1 -20  143.14    9.84
  -1   5 -19   45.06    5.67
  -5  -1 -19   36.25    4.50
  -1   5 -19   44.02    4.33
  -5  -1 -19   39.15    5.13
  -1   5 -18   41.79    5.24
  -5  -1 -18   33.91    4.37
  -1   5 -18   33.48    3.86
  -5  -1 -18   40.74    5.13
  -1   5 -17   92.55    7.69
  -5  -1 -17  109.91    7.81
  -1   5 -17   87.76    6.23
  -5  -1 -17  105.92    8.30
  -1   5 -16  182.40   10.52
  -1   5 -16  183.16    9.22
  -5  -1 -16  181.02   10.12
  -5  -1 -16  163.12   10.27
  -1   5 -15   11.42    2.52
  -5  -1 -15   14.45    2.90
  -1   5 -15   15.35    2.77
  -5  -1 -15   11.65    2.82
  -1   5 -14   15.13    2.97
  -1   5 -14   15.30    2.77
  -5  -1 -14   19.51    3.35
   5   1 -14   18.72    3.51
  -5  -1 -14   17.46    3.60
  -1   5 -13   37.18    4.38
  -1   5 -13   32.87    3.99
  -5  -1 -13   34.48    4.43
   5   1 -13   32.39    4.78
  -5  -1 -13   35.57    4.81
  -1   5 -12  255.34   11.47
  -5  -1 -12  254.27   12.23
  -1   5 -12  268.79   11.58
   5   1 -12  270.17   13.60
  -5  -1 -12  279.89   13.36
  -1   5 -11   69.72    5.94
  -1   5 -11   75.83    5.89
   1  -5 -11   79.07    7.52
   1  -5 -11   80.02    7.48
  -5  -1 -11   95.96    7.71
  -5  -1 -11  100.75    7.55
   5   1 -11   92.73    7.87
  -1   5 -10   54.71    5.31
  -1   5 -10   51.84    4.71
   1  -5 -10   57.16    6.32
  -5  -1 -10   54.87    5.84
   1  -5 -10   52.59    5.97
  -5  -1 -10   56.73    5.71
   5   1 -10   55.59    6.04
  -1   5  -9  201.30   10.29
   1  -5  -9  179.17   11.18
  -1   5  -9  202.72    9.08
   1  -5  -9  207.50   11.79
  -5  -1  -9  177.74   10.47
  -5  -1  -9  172.39   10.04
   5   1  -9  178.38   10.84
  -1   5  -8  403.22   15.07
   1  -5  -8  432.09   17.37
  -1   5  -8  401.67   12.80
  -5  -1  -8  409.55   16.17
   1  -5  -8  422.50   16.92
  -5  -1  -8  406.11   15.82
   5   1  -8  413.32   16.65
  -1   5  -7  107.42    7.60
   1  -5  -7  126.12    9.14
  -1   5  -7  107.42    6.11
   1  -5  -7  124.58    8.85
  -5  -1  -7  117.82    8.50
  -5  -1  -7  115.30    8.17
   5   1  -7  123.79    8.90
  -1   5  -6   12.04    2.61
   1  -5  -6   14.20    3.16
  -1   5  -6   11.87    1.97
   1  -5  -6   11.88    2.75
  -5  -1  -6   11.90    2.82
   5   1  -6   14.81    3.09
  -1   5  -5  392.60   15.12
   1  -5  -5  393.14   16.25
  -1   5  -5  383.14   11.06
  -5  -1  -5  400.91   15.92
   1  -5  -5  368.04   15.24
   5   1  -5  415.37   16.56
   1  -5  -4  476.74   17.85
  -1   5  -4  466.20   16.66
  -1   5  -4  463.21   11.77
   1  -5  -4  468.37   17.01
  -5  -1  -4  443.79   16.91
   5   1  -4  464.80   17.61
   1  -5  -3   34.59    4.87
  -1   5  -3   24.11    3.87
  -1   5  -3   23.75    2.30
   1  -5  -3   32.68    4.38
   5   1  -3   24.39    3.87
  -5  -1  -3   24.89    3.97
   1  -5  -2  132.92    9.05
  -1   5  -2  115.10    8.14
  -1   5  -2  114.03    4.71
  -5  -1  -2  116.29    8.39
   1  -5  -2  122.55    8.24
   5   1  -2  107.46    8.25
   1  -5  -1  122.39    8.69
  -1   5  -1  119.41    8.42
  -1   5  -1  113.38    4.30
  -5  -1  -1  154.53    9.67
   1  -5  -1  125.36    8.18
   5   1  -1  160.57    9.90
  -1   5   0  786.16   22.82
   1  -5   0  819.70   23.37
  -5  -1   0  769.60   22.86
   1  -5   0  780.93   21.59
   5   1   0  750.16   22.87
  -1   5   1  132.76    8.95
   1  -5   1  129.78    8.92
  -5  -1   1  174.78   10.35
   1  -5   1  133.77    8.25
   5   1   1  176.26   10.40
  -1   5   2  128.24    8.82
   1  -5   2  119.37    8.37
  -5  -1   2  107.48    8.30
   1  -5   2  111.64    7.35
   5   1   2  111.99    8.34
  -1   5   3   25.94    4.07
   1  -5   3   27.80    4.09
  -5  -1   3   26.53    4.10
   1  -5   3   25.68    3.50
   5   1   3   25.97    4.03
  -1   5   4  454.05   17.22
   1  -5   4  476.68   16.98
   1  -5   4  460.37   14.88
  -5  -1   4  464.71   17.53
   5   1   4  454.39   17.16
   1  -5   5  389.19   15.25
  -1   5   5  363.92   15.53
   1  -5   5  389.97   13.39
  -5  -1   5  400.99   16.10
   5   1   5  402.14   15.92
  -1   5   6   14.24    3.38
   1  -5   6   12.14    2.87
   1  -5   6    9.89    2.07
  -5  -1   6   11.43    2.93
   5   1   6   13.94    2.92
   1  -5   7  118.57    8.08
  -1   5   7  120.94    8.90
  -5  -1   7  125.05    8.89
   1  -5   7  113.44    6.69
   1  -5   8  409.05   15.39
  -1   5   8  434.27   17.21
  -5  -1   8  438.01   16.99
   1  -5   8  418.18   13.08
   1  -5   9  193.98   10.23
  -1   5   9  192.52   11.44
  -5  -1   9  160.35   10.22
   1  -5   9  187.75    8.25
  -1   5  10   50.39    5.85
   1  -5  10   49.44    5.09
  -5  -1  10   64.80    6.49
   1  -5  10   49.44    4.06
  -1   5  11   94.63    8.07
   1  -5  11   77.70    6.34
   1  -5  11   73.49    4.83
  -5  -1  11   93.76    7.72
  -1   5  12  284.20   14.26
   1  -5  12  264.20   11.76
   1  -5  12  268.35   11.74
   1  -5  12  267.00    9.13
  -5  -1  12  264.16   13.25
   1  -5  12  261.40   11.49
   1  -5  13   31.30    3.90
  -1   5  13   30.56    4.84
   1  -5  13   39.13    4.59
   1  -5  13   32.12    2.93
  -5  -1  13   33.23    4.67
   1  -5  13   30.74    3.98
  -1   5  14   19.00    3.76
   1  -5  14   20.48    3.11
   1  -5  14   19.44    3.32
   1  -5  14   18.20    2.03
  -5  -1  14   19.28    3.56
   1  -5  14   22.16    3.52
  -1   5  15   14.72    3.39
   1  -5  15   14.23    2.63
   1  -5  15   12.75    2.94
  -5  -1  15   19.96    3.84
   1  -5  15   12.69    1.63
   1  -5  15   13.62    2.95
  -1   5  16  179.30   11.54
   1  -5  16  181.43    9.33
   1  -5  16  177.27   10.47
   1  -5  16  169.90    5.64
  -5  -1  16  178.34   11.17
   1  -5  16  177.06   10.41
  -1   5  17   95.79    8.52
   1  -5  17   90.44    7.64
   1  -5  17   90.49    6.47
   1  -5  17   92.99    3.49
  -5  -1  17  111.09    8.96
   1  -5  17   94.68    3.46
   1  -5  17   94.61    7.70
  -1   5  18   39.41    5.53
   1  -5  18   31.33    4.53
   1  -5  18   30.24    3.62
  -5  -1  18   33.23    4.88
   1  -5  18   37.52    5.09
  -1   5  19   50.72    6.30
   1  -5  19   49.15    5.94
  -5  -1  19   46.02    5.80
   1  -5  19   53.36    6.15
  -1   5  20  148.81   10.80
  -5  -1  20  161.79   11.03
   1  -5  20  148.10   10.39
  -1   5  21  102.38    9.01
  -5  -1  21  110.13    9.15
   1  -5  21  108.92    9.08
  -1   5  22   23.02    4.50
  -5  -1  22   20.19    3.93
   1  -5  22   17.12    3.90
  -1   5  23  161.65   11.54
  -5  -1  23  153.69   10.99
   1  -5  23  148.07   11.12
  -1   5  24  143.25   10.86
  -5  -1  24  126.79   10.03
   1  -5  24  121.10   10.19
  -1   5  25   39.86    5.80
  -5  -1  25   24.02    4.41
   1  -5  25   36.23    5.82
  -1   5  26   24.83    4.84
  -5  -1  26   26.02    4.71
   1  -5  26   20.96    4.54
  -1   5  27   24.50    4.66
  -5  -1  27   27.34    4.81
   1  -5  27   24.22    4.95
  -1   5  28   79.38    8.39
  -5  -1  28   94.12    9.00
   1  -5  28   78.59    8.91
  -1   5  29   10.66    3.64
  -5  -1  29    8.37    3.04
   1  -5  29   16.02    4.29
  -1   5  30   17.44    3.91
  -5  -1  30   15.91    3.82
  -1   5  31   12.87    3.55
  -5  -1  31   18.95    4.27
  -5  -1  31   18.11    4.64
  -1   5  32  134.71   11.28
  -5  -1  32  124.34   10.88
  -5  -1  32  124.55   12.39
  -1   5  33   31.67    5.64
  -5  -1  33   31.62    5.50
  -5  -1  33   35.29    6.58
  -1   5  34    3.13    2.22
  -5  -1  34    5.94    2.59
  -5  -1  34    4.80    3.17
  -1   5  35   20.66    4.70
  -5  -1  35   25.89    4.82
  -5  -1  35   22.15    5.94
  -1   5  36   88.10    9.34
  -5  -1  36   95.99    9.71
  -5  -1  36  104.11   11.80
  -1   5  37   31.27    5.70
  -5  -1  37   31.51    5.82
  -5  -1  37   28.02    6.41
  -1   5  38    5.01    2.66
  -5  -1  38    0.96    1.14
  -1   5  39   26.70    5.35
  -5  -1  39   21.00    4.79
  -5  -2 -38    7.35    3.39
  -5  -2 -37   94.82   11.21
  -2   5 -37  116.28   12.69
  -5  -2 -37   95.56    9.55
  -2   5 -36   27.57    6.32
  -5  -2 -36   27.00    6.10
  -5  -2 -36   28.18    5.17
  -2   5 -35   48.96    7.89
  -5  -2 -35   39.49    7.34
  -5  -2 -35   40.49    6.39
  -2   5 -34    5.41    3.48
  -5  -2 -34    3.89    2.88
  -5  -2 -34    3.99    2.26
  -5  -2 -33   88.85   10.23
  -2   5 -33   90.10   10.40
  -5  -2 -33   77.06    8.36
  -2   5 -32    9.78    3.82
  -5  -2 -32    8.81    3.32
  -5  -2 -32   18.10    4.40
  -2   5 -31   36.39    6.40
  -5  -2 -31   37.99    6.57
  -5  -2 -31   38.42    5.78
  -5  -2 -30    1.78    1.85
  -2   5 -30    0.82    2.02
  -5  -2 -30    4.89    2.55
  -5  -2 -29   51.27    7.53
  -2   5 -29   50.70    7.38
  -5  -2 -29   50.47    6.77
  -5  -2 -28   17.39    4.52
  -2   5 -28   17.22    4.62
  -5  -2 -28   13.29    3.48
  -5  -2 -27   69.30    8.48
  -2   5 -27   69.70    8.31
  -5  -2 -27   76.15    7.96
  -5  -2 -26   15.17    3.91
  -2   5 -26   33.15    5.64
  -5  -2 -26   19.18    3.47
  -2   5 -26   27.99    2.69
  -5  -2 -26   18.76    4.13
  -5  -2 -25   51.91    7.22
  -2   5 -25   59.94    7.45
  -5  -2 -25   49.08    5.55
  -2   5 -25   56.49    4.12
  -5  -2 -25   56.33    6.82
  -2   5 -24    7.36    2.73
  -5  -2 -24   10.03    2.52
  -2   5 -24    7.38    1.72
  -5  -2 -24   10.88    3.14
  -2   5 -23  230.01   14.01
  -2   5 -23  249.04    9.60
  -5  -2 -23  243.03   12.51
  -5  -2 -23  227.39   13.37
  -2   5 -22   11.13    3.18
  -5  -2 -22    2.94    1.68
  -2   5 -22   11.10    2.10
  -5  -2 -22    1.94    1.71
  -2   5 -21  194.99   12.31
  -2   5 -21  181.35    8.57
  -5  -2 -21  167.87   10.32
  -5  -2 -21  181.07   11.80
  -2   5 -20   40.18    5.52
  -5  -2 -20   62.26    6.27
  -2   5 -20   40.64    4.12
  -5  -2 -20   61.19    6.84
  -2   5 -19  163.78   10.85
  -5  -2 -19  175.98   10.60
  -2   5 -19  175.13    8.71
  -5  -2 -19  166.81   11.14
  -2   5 -18    5.25    2.18
  -2   5 -18    6.60    1.77
  -5  -2 -18    3.01    1.64
  -2   5 -18    8.52    2.65
  -5  -2 -18    3.95    1.93
  -2   5 -17   94.29    7.89
  -5  -2 -17   79.19    7.11
  -2   5 -17   93.66    6.59
  -5  -2 -17   85.55    7.79
  -2   5 -17   98.93    8.13
  -2   5 -16    7.70    2.32
  -2   5 -16    8.84    2.12
  -5  -2 -16   14.76    3.16
  -2   5 -16   10.80    2.86
  -5  -2 -16   14.90    3.50
  -2   5 -15  107.92    8.04
  -5  -2 -15  100.36    8.02
  -2   5 -15  100.01    6.93
  -5  -2 -15  104.98    8.59
  -2   5 -15  108.15    8.13
  -2   5 -14    6.97    2.19
  -5  -2 -14    9.28    2.57
  -2   5 -14    5.74    1.97
  -2   5 -14    4.22    1.80
  -5  -2 -14    4.95    2.00
  -2   5 -13  163.64    9.46
  -5  -2 -13  159.73   10.23
  -2   5 -13  160.30    9.05
  -5  -2 -13  152.55   10.32
  -2   5 -13  168.49    9.73
  -2   5 -12   64.34    5.78
  -2   5 -12   66.35    5.89
  -5  -2 -12   65.45    6.50
  -5  -2 -12   68.66    7.02
   5   2 -12   62.04    6.62
  -2   5 -12   61.97    5.66
  -2   5 -11  163.71    8.98
  -5  -2 -11  153.23    9.98
  -2   5 -11  166.35    9.35
  -5  -2 -11  159.12   10.42
   5   2 -11  150.77   10.16
  -2   5 -11  147.51    8.55
  -2   5 -10    6.20    2.08
  -2   5 -10    4.86    1.76
  -5  -2 -10    6.13    2.03
  -2   5 -10    6.15    1.85
  -5  -2 -10    5.07    2.18
   5   2 -10    5.99    2.52
  -2   5  -9  377.35   14.59
  -5  -2  -9  367.42   15.67
  -2   5  -9  378.34   13.18
   2  -5  -9  357.55   16.14
   5   2  -9  373.78   16.09
  -2   5  -9  366.79   13.13
  -5  -2  -9  358.03   15.82
  -2   5  -8   24.18    3.71
  -5  -2  -8   40.73    5.28
  -2   5  -8   26.96    3.43
   2  -5  -8   22.32    4.12
  -5  -2  -8   32.44    4.83
  -2   5  -8   25.32    3.37
   5   2  -8   29.72    4.53
  -2   5  -7  330.88   13.89
  -5  -2  -7  339.96   15.05
  -2   5  -7  318.49   11.33
   2  -5  -7  354.94   15.51
   5   2  -7  342.32   15.30
  -2   5  -7  313.12   11.27
  -5  -2  -7  324.52   14.88
  -5  -2  -6   18.17    3.45
  -2   5  -6   24.92    3.88
  -2   5  -6   30.84    3.40
   2  -5  -6   30.06    4.48
  -5  -2  -6   11.77    2.96
  -2   5  -6   24.75    2.99
   5   2  -6   20.10    3.83
  -5  -2  -5  393.32   16.40
  -2   5  -5  423.88   16.02
  -2   5  -5  419.02   12.25
   2  -5  -5  408.39   16.39
   5   2  -5  390.60   16.47
  -2   5  -5  433.43   12.47
  -5  -2  -5  390.05   16.41
  -2   5  -4  174.94   10.17
  -5  -2  -4  233.10   12.32
  -2   5  -4  174.55    7.35
   2  -5  -4  192.61   10.92
  -5  -2  -4  220.99   12.06
   5   2  -4  235.02   12.38
  -2   5  -4  170.28    7.32
  -2   5  -3  321.02   14.09
  -2   5  -3  325.59    9.79
  -5  -2  -3  348.86   15.25
   2  -5  -3  376.14   15.12
   5   2  -3  313.47   14.61
  -2   5  -3  320.90    9.82
  -5  -2  -3  357.33   15.50
  -2   5  -2   19.90    3.53
  -2   5  -2   23.30    2.41
   2  -5  -2   22.46    3.63
  -5  -2  -2   31.99    4.68
  -2   5  -2   21.30    2.33
   5   2  -2   31.56    4.51
  -5  -2  -2   32.32    4.63
  -2   5  -1  263.10   12.89
  -2   5  -1  276.42    8.00
   2  -5  -1  259.06   12.16
  -5  -2  -1  250.17   12.92
   5   2  -1  264.97   13.30
  -2   5  -1  272.06    7.97
  -5  -2  -1  268.13   13.43
  -5  -2   0    4.98    2.14
  -2   5   0   10.07    2.73
  -2   5   0    7.07    1.16
   2  -5   0    9.78    2.53
  -2   5   0    6.65    1.16
  -5  -2   0    2.50    1.66
   5   2   0    4.06    2.03
  -2   5   1  254.44   12.79
  -2   5   1  250.81    6.61
   2  -5   1  275.10   12.08
  -5  -2   1  262.39   13.17
  -2   5   1  251.66    6.66
  -5  -2   1  273.08   13.61
  -5  -2   2   29.92    4.47
  -2   5   2   17.37    3.55
  -2   5   2   16.73    1.41
   2  -5   2   19.20    3.16
  -2   5   2   16.44    1.40
  -5  -2   2   32.54    4.64
  -2   5   3  378.51   15.87
  -2   5   3  334.28    6.26
   2  -5   3  334.02   13.15
  -5  -2   3  337.72   15.06
  -5  -2   3  350.29   15.50
  -2   5   3  349.07    6.39
  -2   5   4  189.03   11.31
   2  -5   4  177.73    9.28
  -5  -2   4  228.81   12.21
  -5  -2   4  245.61   12.90
  -2   5   5  402.61   16.74
   2  -5   5  423.53   14.26
  -5  -2   5  400.07   16.55
  -5  -2   5  410.48   17.01
  -2   5   6   30.09    4.65
   2  -5   6   24.02    3.31
  -5  -2   6   18.80    3.71
  -2   5   7  336.19   15.21
  -5  -2   7  318.75   14.64
   2  -5   7  296.89   11.38
  -2   5   8   24.39    4.46
  -5  -2   8   30.30    4.54
   2  -5   8   18.77    2.71
  -2   5   9  333.18   15.75
   2  -5   9  364.85   12.08
  -5  -2   9  368.29   15.94
  -2   5  10    8.36    2.93
  -5  -2  10    3.23    1.84
   2  -5  10    3.95    1.33
  -2   5  11  168.63   11.09
   2  -5  11  143.81    6.91
  -5  -2  11  149.75   10.06
  -2   5  12   53.18    6.23
  -5  -2  12   59.25    6.29
   2  -5  12   55.92    4.11
  -2   5  13  140.79   10.26
  -5  -2  13  143.34    9.80
   2  -5  13  150.02    6.53
  -2   5  14    3.32    2.14
  -5  -2  14    5.67    2.27
   2  -5  14    3.49    0.95
  -2   5  15  113.93    9.36
   2  -5  15  107.22    4.85
  -5  -2  15  102.43    8.42
  -2   5  16   12.33    3.35
   2  -5  16    9.79    1.35
  -5  -2  16   16.58    3.47
  -2   5  17   79.45    7.95
  -5  -2  17   87.45    7.84
   2  -5  17   88.84    3.47
  -2   5  18    7.85    2.82
  -2   5  18    7.04    1.38
  -5  -2  18    6.43    2.30
  -2   5  18    8.29    1.39
  -2   5  19  195.68   12.69
  -2   5  19  181.17    7.01
  -5  -2  19  181.77   11.45
  -2   5  19  181.26    6.99
  -2   5  20   53.67    6.75
  -2   5  20   48.91    3.76
  -5  -2  20   64.76    6.97
  -2   5  20   55.08    4.00
  -2   5  21  169.14   12.00
  -2   5  21  167.49    7.42
  -5  -2  21  185.63   11.81
  -2   5  21  169.11    7.44
  -2   5  22   13.49    3.74
  -2   5  22   12.00    2.17
  -2   5  22    9.52    1.94
  -2   5  23  239.39   14.69
  -5  -2  23  225.70   13.20
  -2   5  24   16.12    4.10
  -5  -2  24   13.78    3.33
  -2   5  25   45.87    6.50
  -5  -2  25   53.29    6.41
  -2   5  26   27.97    5.17
  -5  -2  26   22.48    4.29
  -2   5  27   78.22    8.60
  -5  -2  27   67.41    7.44
  -2   5  28   12.13    3.78
  -5  -2  28   11.82    3.28
  -2   5  29   52.51    7.09
  -5  -2  29   56.94    7.06
  -2   5  30    0.47    1.19
  -5  -2  30    4.05    2.36
  -2   5  31   46.16    6.80
  -5  -2  31   43.43    6.14
  -5  -2  31   38.76    7.00
  -2   5  32    9.40    3.38
  -5  -2  32   14.72    3.64
  -5  -2  32   11.69    4.10
  -2   5  33   76.35    8.90
  -5  -2  33   78.91    8.36
  -5  -2  33   70.96    9.52
  -2   5  34   -1.40    1.73
  -5  -2  34    0.64    1.66
  -5  -2  34    2.57    2.69
  -2   5  35   53.15    7.55
  -5  -2  35   45.14    6.36
  -5  -2  35   40.01    7.39
  -2   5  36   20.58    4.78
  -5  -2  36   33.06    5.61
  -5  -2  36   25.12    5.95
  -2   5  37   86.91    9.78
  -2   5  38   16.65    4.41
  -2   5  39   72.69    8.97
  -5  -3 -38   40.34    7.47
  -5  -3 -38   38.61    6.68
  -5  -3 -37   26.02    6.58
  -5  -3 -37   26.59    5.41
  -3   5 -36   17.41    5.13
  -5  -3 -36   16.48    4.75
  -5  -3 -36   20.88    4.41
  -3   5 -35   49.68    8.26
  -5  -3 -35   53.02    8.14
  -5  -3 -35   45.29    6.93
  -3   5 -34   25.55    5.98
  -5  -3 -34   19.64    4.96
  -5  -3 -34   19.68    4.67
  -3   5 -33   19.39    5.13
  -5  -3 -33   30.18    6.11
  -5  -3 -33   22.63    4.81
  -3   5 -32   28.57    6.02
  -5  -3 -32   17.14    4.64
  -5  -3 -32   23.26    4.95
  -3   5 -31   26.21    5.68
  -5  -3 -31   36.98    6.63
  -5  -3 -31   37.28    6.18
  -5  -3 -30   53.93    7.66
  -3   5 -30   61.57    8.36
  -5  -3 -30   47.59    6.92
  -5  -3 -29   63.92    8.29
  -3   5 -29   56.59    7.88
  -5  -3 -29   55.20    7.35
  -3   5 -28   66.47    8.45
  -5  -3 -28   49.91    7.29
  -5  -3 -28   51.81    7.01
  -5  -3 -27   30.84    5.68
  -3   5 -27   21.86    4.74
  -5  -3 -27   26.82    5.06
  -3   5 -26   31.00    5.63
  -5  -3 -26   31.71    5.74
  -5  -3 -26   29.05    5.17
  -3   5 -25   95.68    9.73
  -3   5 -25   95.10    5.46
  -5  -3 -25   88.68    9.01
  -3   5 -24   12.85    3.48
  -3   5 -24   10.56    2.01
  -5  -3 -24    6.55    2.92
  -3   5 -23   77.89    8.37
  -3   5 -23   79.75    5.53
  -5  -3 -23   72.29    8.07
  -3   5 -22   64.46    7.54
  -3   5 -22   66.69    5.25
  -5  -3 -22   71.84    7.88
  -3   5 -21  176.44   12.12
  -3   5 -21  185.30    9.06
  -5  -3 -21  178.23   12.46
  -3   5 -20   32.67    5.21
  -3   5 -20   27.89    3.54
  -5  -3 -20   31.91    5.44
  -3   5 -19  184.60   11.99
  -3   5 -19  183.64    9.43
  -5  -3 -19  201.35   13.01
  -3   5 -18  102.82    8.75
  -3   5 -18   95.46    6.86
  -5  -3 -18   88.65    8.54
  -3   5 -17   20.28    3.92
  -3   5 -17   23.25    3.43
  -5  -3 -17   30.98    5.25
  -3   5 -16   98.43    8.23
  -3   5 -16   97.40    7.07
  -5  -3 -16   94.04    8.79
  -3   5 -16  101.28    8.38
  -3   5 -15   96.19    7.93
  -3   5 -15   93.20    7.01
  -5  -3 -15  111.60    9.32
  -3   5 -15   93.70    7.94
  -3   5 -14  114.95    8.54
  -3   5 -14  108.90    7.70
  -3   5 -14  109.97    8.37
  -5  -3 -14   99.07    8.86
  -3   5 -13  246.92   12.35
  -3   5 -13  231.59   11.51
  -3   5 -13  233.47   12.06
  -5  -3 -13  261.71   14.27
  -3   5 -12  136.96    8.90
  -3   5 -12  126.42    8.48
  -3   5 -12  133.45    8.81
  -5  -3 -12  116.61    9.45
  -3   5 -11   89.03    6.98
  -3   5 -11   86.97    7.11
  -3   5 -11   90.85    7.09
  -5  -3 -11  101.42    8.76
  -3   5 -10  165.74    9.32
  -3   5 -10  155.38    9.60
  -5  -3 -10  170.06   11.26
  -3   5 -10  159.62    9.22
  -3   5  -9  160.36    8.94
  -3   5  -9  157.29    9.74
  -3   5  -9  165.83    9.14
  -5  -3  -9  163.25   11.11
  -3   5  -8  114.72    7.35
  -3   5  -8  107.27    8.06
  -3   5  -8  109.92    7.22
  -5  -3  -8   97.28    8.53
  -3   5  -7  117.13    7.23
  -3   5  -7  110.62    8.23
  -5  -3  -7  127.48    9.72
  -3   5  -7  118.24    7.31
  -3   5  -6   74.75    6.79
  -3   5  -6   72.71    5.53
   3  -5  -6   74.14    7.18
  -5  -3  -6   73.64    7.27
  -3   5  -6   77.30    5.70
  -3   5  -5   29.77    4.25
  -3   5  -5   34.08    3.69
   3  -5  -5   35.96    4.95
  -5  -3  -5   29.23    4.71
  -3   5  -5   35.77    3.75
  -3   5  -4   80.92    7.18
  -3   5  -4   70.91    5.15
   3  -5  -4   70.37    6.80
  -3   5  -4   68.95    5.05
  -5  -3  -4   67.77    6.91
  -3   5  -3  168.93   10.50
  -3   5  -3  163.96    7.69
   3  -5  -3  168.60   10.41
  -3   5  -3  166.76    7.74
  -5  -3  -3  193.62   11.72
  -3   5  -2  100.36    8.10
  -3   5  -2  100.67    5.75
   3  -5  -2   98.46    7.81
  -3   5  -2   88.92    5.39
  -5  -3  -2   85.24    7.75
  -3   5  -1   50.06    5.77
  -3   5  -1   50.39    3.91
   3  -5  -1   58.78    5.96
  -3   5  -1   45.30    3.76
  -5  -3  -1   60.44    6.54
  -3   5   0  106.95    8.45
  -3   5   0  104.24    5.50
   3  -5   0  104.48    7.86
  -3   5   0  105.68    5.52
  -5  -3   0   96.56    8.23
  -3   5   1   50.81    5.91
  -3   5   1   44.75    3.43
  -5  -3   1   65.42    6.84
   3  -5   1   45.09    5.14
  -3   5   1   43.05    3.39
  -3   5   2  103.01    8.50
  -3   5   2   88.33    4.71
   3  -5   2   97.09    7.31
  -5  -3   2   83.60    7.67
  -3   5   2   89.80    4.77
  -3   5   3  171.61   10.99
  -5  -3   3  183.94   11.32
   3  -5   3  154.76    9.16
  -3   5   4   66.56    7.01
   3  -5   4   65.71    5.82
  -5  -3   4   58.26    6.37
  -3   5   5   40.54    5.57
   3  -5   5   38.19    4.34
  -5  -3   5   35.51    4.95
  -3   5   6   79.58    7.67
  -5  -3   6   74.60    7.16
   3  -5   6   79.06    6.13
  -3   5   7  107.40    8.96
  -5  -3   7  109.75    8.68
   3  -5   7  114.58    7.33
  -3   5   8  113.43    9.30
  -5  -3   8  109.35    8.68
   3  -5   8  111.38    7.06
  -3   5   8  102.86    4.44
  -3   5   9  161.69   11.15
  -5  -3   9  176.58   11.06
   3  -5   9  159.11    8.30
  -3   5   9  158.64    5.60
  -3   5  10  159.72   11.17
  -5  -3  10  155.22   10.38
   3  -5  10  150.27    7.89
  -3   5  10  150.16    5.51
  -3   5  11   95.22    8.75
   3  -5  11   86.10    5.71
  -5  -3  11   99.74    8.33
  -3   5  11   78.90    3.96
  -3   5  12  143.67   10.70
  -3   5  12  121.91    5.13
   3  -5  12  133.18    6.97
  -5  -3  12  113.43    8.91
  -3   5  13  237.94   13.96
  -3   5  13  213.96    7.18
   3  -5  13  232.28    9.00
  -5  -3  13  264.41   13.73
  -3   5  13  231.05    7.40
  -3   5  14  106.46    9.36
  -3   5  14  105.03    5.02
  -5  -3  14  103.48    8.57
   3  -5  14  104.11    5.77
  -3   5  14  110.61    5.14
  -3   5  15   87.54    8.60
  -3   5  15   83.14    4.60
  -5  -3  15  101.02    8.47
   3  -5  15   89.89    5.09
  -3   5  15   90.41    4.83
  -3   5  16   97.69    9.10
  -3   5  16   91.94    5.00
  -5  -3  16   83.58    7.75
   3  -5  16   91.33    4.84
  -3   5  16   98.68    5.21
  -3   5  17   16.15    2.17
  -3   5  17   13.22    3.41
  -5  -3  17   34.18    5.04
   3  -5  17   18.67    2.00
  -3   5  17   17.77    2.31
  -3   5  18  111.03    9.92
  -3   5  18   98.13    5.59
  -5  -3  18   91.73    8.17
  -3   5  18  103.90    5.71
   3  -5  18  111.32    4.42
  -3   5  19  188.11   13.00
  -3   5  19  184.01    7.96
  -5  -3  19  178.45   11.44
  -3   5  19  193.05    8.07
   3  -5  19  156.26    4.49
  -3   5  20   23.61    2.90
  -3   5  20   32.10    5.51
  -5  -3  20   23.31    4.15
  -3   5  20   26.34    3.09
  -3   5  21  177.79   12.86
  -3   5  21  177.75    8.37
  -5  -3  21  181.30   11.73
  -3   5  21  186.98    8.54
  -3   5  22   73.01    8.24
  -3   5  22   63.91    5.15
  -5  -3  22   78.32    7.70
  -3   5  22   73.03    5.42
  -3   5  23   67.84    8.07
  -5  -3  23   67.06    7.20
  -3   5  23   71.43    5.52
  -3   5  24   12.30    3.58
  -5  -3  24   14.25    3.49
  -3   5  24   12.11    2.39
  -3   5  25   96.70    9.69
  -5  -3  25   90.05    8.56
  -3   5  25   82.45    6.33
  -3   5  26   34.32    5.97
  -5  -3  26   38.80    5.60
  -3   5  26   35.73    4.22
  -3   5  27   27.98    5.29
  -5  -3  27   31.74    5.07
  -3   5  27   32.27    4.14
  -3   5  28   48.60    6.96
  -5  -3  28   52.44    6.57
  -3   5  28   57.63    5.72
  -3   5  29   57.77    7.86
  -5  -3  29   60.75    7.12
  -3   5  29   53.75    5.67
  -3   5  30   49.97    7.50
  -5  -3  30   55.08    6.91
  -5  -3  30   50.23    8.10
  -3   5  31   25.36    5.40
  -5  -3  31   34.93    5.48
  -5  -3  31   35.38    7.04
  -3   5  32   23.64    5.30
  -5  -3  32   19.09    4.11
  -5  -3  32   25.70    6.00
  -3   5  33   12.14    3.60
  -5  -3  33   24.21    4.66
  -5  -3  33   28.31    6.46
  -3   5  34   17.58    4.67
  -5  -3  34   22.42    4.39
  -5  -3  34   15.22    5.21
  -3   5  35   43.94    7.25
  -3   5  36   16.81    4.52
  -3   5  37   17.53    4.36
  -3   5  38   45.32    7.52
  -3   5  39   27.31    5.81
  -5  -4 -38    1.45    2.16
  -5  -4 -38    8.09    3.80
  -5  -4 -37   34.38    6.88
  -5  -4 -37   31.54    6.62
  -5  -4 -36   20.51    5.40
  -5  -4 -36   21.44    5.31
  -5  -4 -35   51.29    8.11
  -5  -4 -35   58.34    8.39
  -5  -4 -34   12.10    4.42
  -4   5 -34    7.57    4.22
  -5  -4 -34    3.23    2.54
  -4   5 -33   54.80    8.65
  -5  -4 -33   50.45    7.86
  -5  -4 -33   56.75    8.24
  -5  -4 -32   55.21    8.16
  -4   5 -32   51.19    8.10
  -5  -4 -32   59.10    8.36
  -4   5 -31   49.14    8.00
  -5  -4 -31   38.91    6.78
  -5  -4 -31   30.46    6.02
  -4   5 -30    3.73    2.09
  -5  -4 -30    4.92    2.14
  -5  -4 -30    0.56    1.63
  -4   5 -29   28.85    5.81
  -5  -4 -29   24.64    5.64
  -5  -4 -29   27.45    5.55
  -4   5 -28   16.86    4.51
  -5  -4 -28   20.36    4.82
  -5  -4 -28   21.77    5.15
  -4   5 -27   27.50    5.49
  -5  -4 -27   26.33    5.36
  -5  -4 -27   26.13    5.42
  -4   5 -26    3.63    2.45
  -5  -4 -26    3.75    1.81
  -5  -4 -26    4.99    2.75
  -4   5 -25   31.80    5.76
  -5  -4 -25   33.73    5.78
  -5  -4 -25   41.22    6.49
  -4   5 -24   16.56    4.02
  -5  -4 -24   25.44    5.13
  -4   5 -23  101.36    9.90
  -4   5 -23   94.63    6.58
  -5  -4 -23   76.42    8.73
  -4   5 -22    3.46    1.82
  -4   5 -22    8.67    2.00
  -5  -4 -22   16.46    4.29
  -4   5 -21   45.52    6.42
  -4   5 -21   39.17    4.31
  -5  -4 -21   34.93    5.91
  -4   5 -20   68.63    7.80
  -4   5 -20   72.20    6.08
  -5  -4 -20   61.13    7.66
  -4   5 -19  163.43   11.80
  -4   5 -19  164.47    9.37
  -5  -4 -19  152.25   11.98
  -4   5 -18   20.11    4.27
  -4   5 -18   24.05    3.68
  -5  -4 -18   23.20    4.76
  -4   5 -17  140.65   10.58
  -4   5 -17  149.34    9.21
  -5  -4 -17  147.73   11.69
  -4   5 -16  156.87   10.99
  -4   5 -16  154.60    9.54
  -5  -4 -16  175.68   12.63
  -4   5 -15  140.92   10.18
  -4   5 -15  130.45    8.82
  -5  -4 -15  121.35   10.37
  -4   5 -14   12.79    3.28
  -4   5 -14    9.35    2.53
  -5  -4 -14   20.62    4.56
  -4   5 -13  170.79   10.81
  -4   5 -13  170.37   10.37
  -5  -4 -13  183.90   12.68
  -4   5 -13  179.96   11.17
  -4   5 -12   41.98    5.26
  -4   5 -12   42.44    5.24
  -5  -4 -12   43.30    6.16
  -4   5 -12   51.24    5.88
  -4   5 -11   33.25    4.57
  -4   5 -11   41.56    5.29
  -5  -4 -11   26.06    4.72
  -4   5 -11   42.14    5.21
  -4   5 -10   32.05    4.47
  -4   5 -10   24.59    4.12
  -4   5 -10   26.85    4.05
  -5  -4 -10   35.41    5.49
  -4   5  -9  103.65    7.80
  -4   5  -9   92.84    7.92
  -5  -4  -9  100.62    9.12
  -4   5  -9  101.41    7.70
  -4   5  -8   36.65    4.53
  -4   5  -8   44.59    5.49
  -5  -4  -8   55.19    6.76
  -4   5  -8   41.18    4.86
  -4   5  -7  176.88    9.92
  -4   5  -7  192.99   11.57
  -5  -4  -7  176.69   12.02
  -4   5  -7  194.51   10.34
  -4   5  -6    2.99    1.33
  -4   5  -6    4.35    2.26
  -5  -4  -6    6.13    2.75
  -4   5  -6    4.58    1.86
  -4   5  -5  119.24    7.74
  -4   5  -5  120.72    9.21
  -4   5  -5  107.16    7.42
  -5  -4  -5  110.40    9.44
  -4   5  -4   40.12    4.42
  -4   5  -4   37.96    5.29
  -5  -4  -4   45.71    6.05
  -4   5  -4   36.70    4.17
  -4   5  -3  130.63    9.81
  -5  -4  -3  136.33   10.53
  -4   5  -2   19.15    3.89
  -5  -4  -2   14.88    3.51
  -4   5  -1  108.28    9.02
   4  -5  -1  122.76    9.18
  -5  -4  -1  110.75    9.41
  -4   5   0   77.75    7.65
   4  -5   0   74.34    6.95
  -5  -4   0   93.80    8.61
  -4   5   1  134.25   10.08
   4  -5   1  112.32    8.51
  -5  -4   1  120.70    9.72
  -4   5   2   24.49    4.54
   4  -5   2   24.33    3.91
  -5  -4   2   18.87    3.98
  -4   5   3  142.24   10.51
   4  -5   3  143.96    9.43
  -5  -4   3  135.55   10.10
  -4   5   4   31.85    5.10
   4  -5   4   32.19    4.31
  -5  -4   4   38.11    5.43
  -4   5   5  130.05   10.20
   4  -5   5  110.57    8.02
  -5  -4   5  102.51    8.86
  -4   5   6    5.31    2.65
   4  -5   6    5.21    1.89
  -5  -4   6    6.50    2.44
  -4   5   7  174.55   12.11
  -5  -4   7  193.99   12.13
   4  -5   7  180.53   10.02
   4  -5   8   40.28    4.62
  -5  -4   8   47.27    5.93
  -4   5   8   36.57    5.50
  -4   5   9  100.61    9.22
   4  -5   9   93.88    6.90
  -5  -4   9   98.25    8.60
  -4   5  10   28.83    5.06
  -5  -4  10   38.41    5.39
   4  -5  10   24.05    3.46
  -4   5  11   19.63    2.54
  -4   5  11   23.83    4.69
   4  -5  11   23.66    3.32
  -5  -4  11   15.44    3.46
  -4   5  12   49.34    6.65
  -5  -4  12   47.70    6.09
   4  -5  12   47.73    4.74
  -4   5  12   49.18    4.14
  -4   5  13  185.94   13.00
  -4   5  13  178.88    8.13
   4  -5  13  180.65    8.93
  -5  -4  13  181.99   11.73
  -4   5  14    7.76    1.67
  -4   5  14   17.08    4.38
  -5  -4  14   21.23    4.16
   4  -5  14    9.33    2.03
  -4   5  15  122.12   10.68
   4  -5  15  134.98    7.20
  -5  -4  15   96.95    8.53
  -4   5  15  108.63    6.48
  -4   5  16  174.60   12.79
  -4   5  16  161.91    8.04
  -5  -4  16  188.64   12.00
   4  -5  16  166.58    7.80
  -4   5  17  164.98   12.56
  -4   5  17  149.67    7.81
  -5  -4  17  152.78   10.74
   4  -5  17  137.26    6.81
  -4   5  18   21.54    3.08
  -4   5  18   26.45    5.28
  -5  -4  18   32.79    5.11
  -4   5  18   22.41    3.15
   4  -5  18   24.98    2.70
  -4   5  19  163.75   12.63
  -4   5  19  146.06    8.08
  -5  -4  19  163.59   11.23
  -4   5  19  164.56    8.52
  -4   5  20   52.26    7.22
  -5  -4  20   62.49    6.91
  -4   5  20   58.19    5.13
  -4   5  21   44.92    6.72
  -5  -4  21   34.52    5.27
  -4   5  21   51.27    4.93
  -4   5  22    7.40    3.25
  -5  -4  22   17.15    3.74
  -4   5  22    6.75    2.07
  -4   5  23   90.88    9.88
  -5  -4  23   94.41    8.56
  -4   5  23   81.04    6.48
  -4   5  24   21.93    4.84
  -5  -4  24   22.57    4.36
  -4   5  24   20.93    3.52
  -4   5  25   36.85    6.21
  -5  -4  25   31.70    5.02
  -4   5  25   36.57    4.48
  -4   5  26    6.72    3.06
  -5  -4  26    3.16    1.50
  -4   5  26    4.86    1.81
  -4   5  27   25.14    5.40
  -5  -4  27   23.56    4.46
  -4   5  28   19.71    4.67
  -5  -4  28   20.40    4.18
  -4   5  29   22.91    5.38
  -5  -4  29   29.12    4.96
  -5  -4  29   23.08    5.73
  -4   5  30    2.99    2.04
  -5  -4  30    7.82    2.86
  -5  -4  30    9.01    3.55
  -4   5  31   44.23    7.43
  -5  -4  31   45.22    6.07
  -5  -4  31   45.88    7.94
  -4   5  32   51.74    8.11
  -5  -4  32   51.41    8.58
  -4   5  33   71.25    9.40
  -4   5  34    6.36    3.33
  -4   5  35   59.33    8.99
  -4   5  36   12.04    4.59
  -4   5  37   43.91    7.61
  -4   5  38    2.61    3.35
  -4   5  39   56.83    9.02
  -5  -5 -35   14.09    4.05
  -5  -5 -34   28.67    6.03
  -5  -5 -33   49.69    7.61
  -5  -5 -33   49.09    8.28
  -5   5 -32    1.41    2.42
  -5  -5 -32    1.65    1.45
  -5  -5 -32    4.55    2.52
  -5   5 -31   24.42    5.63
  -5  -5 -31   27.32    5.78
  -5  -5 -31   26.05    5.68
  -5   5 -30   70.64    9.57
  -5  -5 -30   49.74    7.60
  -5  -5 -30   56.16    8.41
  -5   5 -29   36.71    6.86
  -5  -5 -29   43.94    6.91
  -5   5 -28   -0.82    1.32
  -5  -5 -28    2.63    2.38
  -5   5 -27   38.20    7.10
  -5  -5 -27   35.37    6.15
  -5   5 -26   40.04    6.81
  -5  -5 -26   34.06    5.88
  -5  -5 -26   38.66    6.87
  -5   5 -25   18.95    4.82
  -5  -5 -25   15.24    3.86
  -5  -5 -25   14.70    4.23
  -5   5 -24    4.49    2.43
  -5  -5 -24    2.02    2.05
  -5   5 -23   57.68    7.79
  -5  -5 -23   57.98    8.07
  -5   5 -22   31.12    5.82
  -5   5 -22   32.45    4.42
  -5  -5 -22   19.74    4.89
  -5   5 -21   54.12    7.47
  -5   5 -21   51.58    5.47
  -5  -5 -21   55.19    7.86
  -5   5 -20    3.34    2.39
  -5   5 -20    3.36    1.67
  -5  -5 -20    4.35    2.91
  -5   5 -19   50.82    6.88
  -5   5 -19   46.83    5.40
  -5  -5 -19   57.90    7.86
  -5   5 -18   75.53    8.33
  -5   5 -18   78.24    7.16
  -5  -5 -18   62.13    8.11
  -5   5 -17   55.84    7.07
  -5   5 -17   48.34    5.68
  -5  -5 -17   71.76    8.54
  -5   5 -16    0.84    1.53
  -5   5 -16    1.08    1.30
  -5  -5 -16    2.04    1.96
  -5   5 -15   41.91    5.98
  -5   5 -15   45.11    5.67
  -5  -5 -15   56.26    7.55
  -5   5 -14   62.86    6.73
  -5   5 -14   62.60    7.07
  -5   5 -14   65.40    5.86
  -5  -5 -14   56.78    7.65
  -5   5 -13   41.91    5.52
  -5   5 -13   36.34    5.36
  -5   5 -13   38.35    4.69
  -5  -5 -13   50.43    7.03
  -5   5 -12    1.44    1.43
  -5   5 -12    3.54    1.99
  -5   5 -12    1.56    1.21
  -5  -5 -12    0.80    1.15
  -5   5 -11  103.38    8.88
  -5   5 -11   95.22    8.47
  -5   5 -11   99.92    7.64
  -5  -5 -11  111.55   10.28
  -5   5 -10  133.28   10.04
  -5   5 -10  152.49   10.44
  -5   5 -10  140.16    9.21
  -5  -5 -10  125.18   10.88
  -5   5  -9   21.69    4.01
  -5   5  -9   20.64    4.02
  -5   5  -9   21.74    3.76
  -5   5  -9   24.34    4.21
  -5  -5  -9   34.03    5.75
  -5   5  -8   32.88    4.75
  -5   5  -8   32.44    5.12
  -5   5  -8   35.14    4.80
  -5  -5  -8   36.88    5.84
  -5   5  -8   35.85    4.96
  -5   5  -7   62.28    7.00
  -5   5  -7   70.24    6.67
  -5  -5  -7   63.13    7.70
  -5   5  -6   26.51    4.78
  -5   5  -6   25.81    4.20
  -5  -5  -6   15.58    3.82
  -5   5  -5   40.00    5.75
  -5   5  -5   40.44    5.23
  -5  -5  -5   43.71    6.20
  -5   5  -4   21.29    4.25
  -5   5  -4   19.20    3.63
  -5  -5  -4   14.86    3.85
  -5   5  -3   24.75    4.80
  -5   5  -3   24.77    4.44
  -5  -5  -3   35.99    5.67
  -5   5  -2  195.94   12.76
  -5   5  -2  198.85   12.08
  -5  -5  -2  174.92   12.40
  -5   5  -1   56.96    7.02
  -5   5  -1   59.66    6.69
  -5  -5  -1   65.64    7.58
  -5   5   0    4.02    2.26
  -5   5   0    2.18    1.33
  -5  -5   0    0.94    1.53
  -5   5   1   65.44    7.60
  -5   5   1   64.02    7.10
  -5  -5   1   90.28    8.78
  -5   5   2  182.74   12.79
  -5   5   2  201.48   12.65
  -5  -5   2  168.18   12.07
  -5   5   3   22.27    4.65
  -5   5   3   23.61    4.43
  -5  -5   3   33.49    5.48
  -5   5   4   20.52    4.26
  -5   5   4   26.21    4.69
  -5  -5   4   16.87    3.78
  -5   5   5   43.35    6.32
   5  -5   5   38.03    5.16
  -5   5   5   46.52    6.28
  -5  -5   5   44.70    6.21
  -5   5   6   21.98    4.62
  -5   5   6   21.04    4.43
   5  -5   6   19.79    3.76
  -5  -5   6   12.94    3.39
  -5   5   7   71.12    8.21
  -5  -5   7   63.45    7.24
   5  -5   7   73.73    6.85
  -5   5   7   66.47    7.63
  -5   5   8   33.42    5.79
  -5   5   8   37.22    5.82
   5  -5   8   32.39    4.68
  -5  -5   8   34.75    5.39
  -5   5   9   30.62    5.66
  -5   5   9   29.11    5.32
   5  -5   9   23.80    3.81
  -5  -5   9   34.21    5.34
  -5   5  10  138.65   11.62
   5  -5  10  136.42    9.07
  -5  -5  10  123.40   10.12
  -5   5  10  149.86   11.88
  -5   5  11  106.75   10.32
  -5  -5  11  112.85    9.65
   5  -5  11  105.48    7.88
  -5   5  12    2.64    2.03
   5  -5  12    3.16    1.81
  -5  -5  12    3.58    1.90
  -5  -5  13   56.03    6.74
   5  -5  13   40.31    4.71
  -5   5  13   45.40    6.91
  -5   5  13   40.46    4.49
  -5   5  14   72.92    8.62
  -5  -5  14   57.67    6.81
   5  -5  14   66.10    5.96
  -5   5  14   75.50    6.17
  -5  -5  15   48.82    6.29
   5  -5  15   40.89    4.44
  -5   5  15   43.43    6.80
  -5  -5  16    0.34    1.23
  -5   5  16    1.89    1.77
  -5   5  17   70.38    8.73
  -5  -5  17   65.71    7.36
  -5   5  18   77.25    9.23
  -5  -5  18   58.46    6.95
  -5  -5  19   48.53    6.38
  -5   5  19   49.32    7.34
  -5  -5  20    8.74    2.92
  -5   5  20    5.84    2.86
  -5   5  21   54.79    7.92
  -5  -5  21   51.45    6.66
  -5   5  22   31.41    6.25
  -5  -5  22   22.09    4.31
  -5   5  22   27.14    4.07
  -5   5  23   39.76    6.91
  -5  -5  23   48.83    6.35
  -5   5  23   45.98    5.34
  -5   5  24    0.09    1.48
  -5  -5  24   -0.08    0.94
  -5   5  25   17.57    4.54
  -5  -5  25   18.81    4.02
  -5   5  26   44.13    7.41
  -5  -5  26   33.85    5.33
  -5   5  27   25.52    5.83
  -5  -5  27   45.88    6.28
  -5  -5  27   33.81    6.56
  -5   5  28    0.95    2.06
  -5  -5  28    4.66    2.52
  -5  -5  28    0.90    1.34
  -5   5  29   42.71    7.40
  -5  -5  29   52.29    8.37
  -5   5  30   54.26    8.34
  -5  -5  30   51.85    8.70
  -5   5  31   21.78    5.26
  -5   5  32   -0.76    1.38
  -5   5  33   46.83    8.09
  -5   5  34   33.09    6.83
  -6   5 -29    5.85    3.72
  -6   5 -28    1.51    1.24
  -6   5 -27    3.39    2.14
  -5  -6 -27    9.32    3.11
  -5  -6 -26   89.31    9.46
  -6   5 -26   85.14   10.50
  -5  -6 -25    7.62    3.03
  -6   5 -25   12.05    4.34
  -5  -6 -24   33.43    5.90
  -6   5 -24   21.90    5.53
  -5  -6 -23    9.52    3.26
  -6   5 -23   17.14    5.00
  -6   5 -22   46.26    7.48
  -6   5 -21   57.84    8.05
  -6   5 -20   17.35    4.33
  -6   5 -20   13.77    3.21
  -5  -6 -20   22.63    5.22
  -6   5 -19   10.88    3.73
  -6   5 -19    7.49    2.52
  -5  -6 -19    4.12    2.40
  -6   5 -18   40.60    6.56
  -6   5 -18   48.23    6.04
  -5  -6 -18   51.19    7.81
  -6   5 -17   37.19    6.26
  -6   5 -17   36.16    5.41
  -6   5 -17   36.10    4.59
  -5  -6 -17   31.59    6.29
  -6   5 -16    4.60    2.12
  -6   5 -16   10.09    3.08
  -6   5 -16    8.86    2.62
  -5  -6 -16    8.61    3.33
  -6   5 -15   24.29    4.87
  -6   5 -15   21.74    4.33
  -6   5 -15   20.93    3.61
  -5  -6 -15   25.48    5.24
  -6   5 -14   69.15    7.60
  -6   5 -14   65.75    7.96
  -6   5 -14   72.96    6.88
  -5  -6 -14   73.61    9.00
  -6   5 -13   12.24    3.18
  -6   5 -13    9.85    3.28
  -6   5 -13    7.74    2.51
  -5  -6 -13    2.66    1.82
  -6   5 -12   15.00    3.81
  -6   5 -12   13.90    3.68
  -6   5 -12   15.04    3.33
  -5  -6 -12    7.80    2.98
  -6   5 -11   33.83    5.47
  -6   5 -11   31.90    5.52
  -6   5 -11   25.26    4.30
  -5  -6 -11   38.35    6.35
  -6   5 -10  112.50    9.83
  -6   5 -10  111.75    9.04
  -5  -6 -10  121.24   11.31
  -6   5  -9   34.02    5.51
  -6   5  -9   39.65    5.41
  -5  -6  -9   28.95    5.55
  -6   5  -8   23.13    4.84
  -6   5  -8   25.23    4.55
  -5  -6  -8   30.24    5.79
  -6   5  -7   40.25    6.17
  -6   5  -7   32.98    5.15
  -5  -6  -7   32.65    5.74
  -6   5  -6  103.78    9.75
  -6   5  -6   99.93    8.80
  -5  -6  -6  104.86   10.34
  -6   5  -5   24.47    4.91
  -6   5  -5   21.12    4.19
  -5  -6  -5   20.16    4.57
  -6   5  -4    7.47    2.96
  -6   5  -4    5.99    2.62
  -5  -6  -4    4.96    2.66
  -6   5  -3   28.11    5.14
  -6   5  -3   21.20    4.30
  -5  -6  -3   20.12    4.56
  -6   5  -2  103.24    9.93
  -6   5  -2   89.31    8.69
  -5  -6  -2   88.30    9.30
  -6   5  -1   50.62    7.14
  -6   5  -1   46.98    6.42
  -5  -6  -1   47.81    6.84
  -6   5   0    5.76    2.97
  -6   5   0    5.30    2.58
  -5  -6   0    3.87    2.45
  -6   5   1   43.87    6.58
  -6   5   1   45.42    6.51
  -5  -6   1   39.75    6.24
  -6   5   2   92.86    9.62
  -6   5   2   99.95    9.57
  -5  -6   2   93.76    9.49
  -6   5   3   24.08    4.91
  -6   5   3   18.16    4.02
  -5  -6   3   19.66    4.40
  -6   5   4    9.63    3.32
  -6   5   4    9.81    3.67
  -5  -6   4    8.37    2.92
  -6   5   5   23.56    4.94
  -6   5   5   14.74    3.87
  -5  -6   5   17.53    4.31
  -6   5   6  114.82   10.90
  -6   5   6  107.39   10.14
  -5  -6   6   92.56    9.24
  -6   5   7   42.71    6.93
  -6   5   7   38.54    6.29
  -5  -6   7   33.21    5.62
  -6   5   8   30.82    5.83
  -6   5   8   20.32    4.66
  -5  -6   8   28.81    5.22
  -6   5   9   36.41    6.35
  -6   5   9   42.03    6.66
  -5  -6   9   29.24    5.33
  -6   5  10  133.08   12.06
  -5  -6  10  123.24   10.59
  -6   5  10  115.34   10.83
   5   6  11   34.12    6.21
  -6   5  11   47.23    7.34
  -6   5  11   34.30    5.95
  -5  -6  11   34.19    5.66
   5   6  12   12.49    3.85
  -6   5  12   10.24    3.77
  -6   5  12    9.30    3.26
  -5  -6  12   13.69    3.59
   5   6  13    7.33    3.19
  -6   5  13    5.92    2.90
  -6   5  13    5.53    2.95
  -5  -6  13    3.13    2.07
  -6   5  14   80.25    9.57
  -5  -6  14   70.37    8.03
  -6   5  14   76.52    9.35
   5   6  14   78.67    9.13
   5   6  15   22.74    4.98
  -6   5  15   24.06    5.45
  -6   5  15   32.01    6.22
  -5  -6  15   29.62    5.16
   5   6  16   15.01    4.20
  -6   5  16    5.54    3.06
  -6   5  16   10.12    3.92
  -5  -6  16   16.34    4.11
   5   6  17   39.58    6.55
  -5  -6  17   37.71    5.81
  -6   5  17   38.55    6.89
   5   6  18   46.43    7.31
  -5  -6  18   36.11    5.74
  -6   5  18   44.78    7.46
   5   6  19    8.65    3.76
  -5  -6  19    6.73    2.89
  -6   5  19   14.23    4.07
   5   6  20   24.65    5.58
  -5  -6  20   23.90    4.73
  -6   5  20    9.98    3.75
   5   6  21   51.18    7.56
  -6   5  21   55.43    8.37
  -5  -6  21   52.37    6.79
  -6   5  22   44.86    7.49
  -5  -6  22   48.65    6.53
   5   6  22   55.83    7.99
   5   6  23   15.38    3.87
  -6   5  23   19.93    5.27
  -5  -6  23   12.13    3.39
  -6   5  24   21.98    5.58
  -5  -6  24   25.91    4.73
  -6   5  25   17.98    5.00
  -5  -6  25    2.55    1.50
  -6   5  26   91.03   11.07
  -5  -6  26   78.79   10.41
  -6   5  27    4.85    2.35
  -5  -6  27    9.75    4.33
  -6   4 -30    5.85    3.71
  -6   4 -29   42.36    7.79
  -6   4 -28   10.32    4.31
  -4  -6 -27   42.53    6.01
  -6   4 -27   55.43    8.71
  -4  -6 -26   19.81    4.23
  -6   4 -26   14.94    4.62
  -4  -6 -25   57.89    6.89
  -6   4 -25   66.76    9.09
  -4  -6 -24   44.12    6.05
  -6   4 -24   36.55    6.70
  -4  -6 -23   34.14    5.33
  -6   4 -23   45.26    7.20
  -4  -6 -22   16.61    3.86
  -6   4 -22   15.42    4.28
  -6   4 -22   16.63    3.22
  -6   4 -21   32.85    4.57
  -4  -6 -21   31.49    4.85
  -6   4 -21   34.31    6.17
  -6   4 -20   28.32    3.95
  -6   4 -20   25.54    4.13
  -6   4 -20   32.96    6.13
  -6   4 -19   60.86    6.40
  -6   4 -19   61.74    8.17
  -6   4 -19   63.07    5.97
  -6   4 -18   14.62    3.10
  -6   4 -18   18.40    4.32
  -6   4 -18   16.34    3.12
  -6   4 -17   60.94    7.75
  -6   4 -17   64.47    6.74
  -6   4 -17   62.51    6.09
  -6   4 -16   19.07    3.85
  -6   4 -16   21.40    4.92
  -6   4 -16   25.99    4.05
  -6   4 -15   27.91    4.17
  -6   4 -14   10.38    2.68
  -6   4 -13   86.24    7.57
  -6   4 -12   78.16    7.24
  -6   4 -11   39.23    5.20
  -6   4 -10    7.39    2.48
  -6   4  -9  126.92    9.60
  -6   4  -8   93.71    8.28
  -6   4  -7  200.71   12.11
  -6   4  -6   25.41    4.41
  -6   4  -5  198.12   12.30
  -4  -6  -5  177.80   12.57
  -6   4  -4   74.52    7.70
   4   6  -4  102.84    9.63
  -4  -6  -4  106.44    9.66
  -6   4  -3  129.67   10.05
   4   6  -3  104.44    9.74
  -4  -6  -3  112.96   10.09
   4   6  -2   15.22    3.78
  -6   4  -2   10.36    3.09
  -4  -6  -2    9.16    2.86
   4   6  -1   16.11    4.01
  -6   4  -1   30.30    5.13
  -4  -6  -1   18.65    4.16
  -6   4   0  268.92   14.89
  -4  -6   0  266.63   15.24
   4   6   0  270.08   15.86
   4   6   1   25.62    4.93
  -6   4   1   26.46    4.80
  -4  -6   1   20.64    4.09
   4   6   2    7.87    2.96
  -6   4   2   18.20    3.96
  -4  -6   2   11.61    3.24
  -6   4   3  141.87   10.99
  -4  -6   3  119.07    9.90
   4   6   3  115.68   10.34
  -4  -6   4   97.75    8.33
  -6   4   4   81.59    8.46
  -4  -6   4   96.40    8.94
   4   6   4  101.22    9.69
  -6   4   5  168.91   12.24
  -4  -6   5  157.64   11.36
   4   6   5  184.83   13.18
   4   6   6   26.38    5.12
  -6   4   6   22.99    4.46
  -4  -6   6   29.91    5.02
   4   6   7  189.39   13.41
  -6   4   7  229.19   14.49
  -4  -6   7  192.33   12.55
   4   6   8  130.84   11.16
  -6   4   8   95.52    9.54
  -4  -6   8  133.57   10.41
   4   6   9  113.57   10.41
  -6   4   9  126.80   10.98
  -4  -6   9  114.13    9.50
   4   6  10   11.35    3.62
  -6   4  10   10.79    3.40
  -4  -6  10    5.36    1.90
   4   6  11   31.88    5.69
   6  -4  11   35.83    5.01
  -6   4  11   43.44    6.62
  -4  -6  11   39.75    5.62
   4   6  12   89.69    9.41
  -4  -6  12  100.19    8.88
  -6   4  12   73.45    8.77
   6  -4  12   77.20    7.14
   4   6  13   62.22    7.82
  -4  -6  13   62.38    6.97
  -6   4  13   68.15    8.29
   6  -4  13   72.84    6.90
   4   6  14    5.43    2.70
  -6   4  14    7.38    2.83
  -4  -6  14    5.24    1.85
   6  -4  14    7.43    2.04
   4   6  15   30.83    5.58
  -6   4  15   31.13    5.81
  -4  -6  15   26.71    4.54
   6  -4  15   25.15    3.98
   4   6  16   32.41    5.84
  -6   4  16   21.35    4.98
   6  -4  16   21.25    3.72
  -4  -6  16   22.22    4.22
   4   6  17   66.41    8.15
  -4  -6  17   53.60    6.22
  -6   4  17   64.12    8.31
   4   6  18   17.12    4.35
  -6   4  18   15.68    4.09
  -4  -6  18   15.35    3.38
   4   6  19   64.63    8.12
  -4  -6  19   58.89    6.50
  -6   4  19   71.55    8.94
   4   6  20   39.70    6.41
  -4  -6  20   31.26    4.74
  -6   4  20   29.65    6.00
   4   6  21   40.95    6.58
  -6   4  21   20.85    5.14
  -4  -6  21   32.48    4.83
  -4  -6  21   22.54    5.19
   4   6  22   17.28    4.35
  -6   4  22   20.22    5.02
  -4  -6  22   20.48    3.88
  -4  -6  22   16.06    4.14
   4   6  23   48.00    7.31
  -6   4  23   55.63    8.46
  -4  -6  23   45.37    5.61
  -4  -6  23   35.04    6.40
   4   6  24   54.97    7.68
  -6   4  24   42.16    7.17
  -6   4  24   48.54    7.84
  -4  -6  24   41.81    5.34
  -4  -6  24   57.51    8.27
  -6   4  25   65.07    8.83
   4   6  25   57.06    7.89
  -4  -6  25   66.06    8.93
  -6   4  26   22.66    5.19
   4   6  26   16.86    4.57
  -4  -6  26   23.26    5.44
  -6   4  27   55.11    8.38
   4   6  27   35.81    6.37
  -4  -6  27   50.21    8.12
  -6   4  28   14.76    4.68
   4   6  28   15.66    4.53
  -4  -6  28   14.13    4.75
  -6   4  28   11.61    3.55
  -6   4  29   36.87    6.95
   4   6  29   26.25    5.38
  -4  -6  29   26.45    5.91
  -6   4  29   29.55    5.39
  -6   4  30    4.02    2.44
   4   6  30    2.39    2.13
  -6   4  30    2.71    1.77
  -4  -6  30    2.44    1.76
  -6   4  31   13.62    4.64
   4   6  31   13.13    4.04
  -6   4  32   39.23    7.37
   4   6  32   59.60    8.17
   4   6  33   17.92    4.90
  -6   4  33   16.98    4.74
  -6   3 -31   10.25    4.48
  -6   3 -30    8.07    3.56
  -6   3 -29   46.30    7.85
  -6   3 -28   52.19    8.13
  -3  -6 -27   22.89    4.18
  -6   3 -27   21.43    5.23
  -3  -6 -26    2.66    1.70
  -6   3 -26    5.64    3.50
  -6   3 -25   15.10    4.45
  -3  -6 -25   12.82    3.01
  -6   3 -24   56.98    8.16
  -3  -6 -24   71.75    6.87
  -6   3 -23   62.69    8.43
  -3  -6 -23   57.90    6.05
  -6   3 -23   71.81    6.11
  -6   3 -22   15.77    4.61
  -3  -6 -22    6.15    2.06
  -6   3 -22   13.50    2.86
  -6   3 -21   54.67    7.79
  -3  -6 -21   59.77    5.96
  -6   3 -21   59.72    5.74
  -6   3 -20   72.31    8.67
  -3  -6 -20   87.97    7.06
  -6   3 -20   78.04    6.63
  -6   3 -19   47.55    7.05
  -3  -6 -19   52.01    5.35
  -6   3 -19   44.26    5.03
  -3  -6 -19   45.04    5.02
  -3  -6 -18   30.59    4.14
  -6   3 -18   38.22    4.78
  -3  -6 -18   31.23    4.12
  -6   3 -17   44.95    5.22
  -6   3 -16   76.14    6.76
  -6   3 -15   46.49    5.38
  -6   3 -14   43.11    5.15
  -6   3 -13   38.87    4.97
  -6   3 -12  112.24    8.48
  -6   3 -11  121.03    8.86
   3   6 -11  113.38    9.60
  -6   3 -10   84.51    7.43
   3   6 -10   67.06    7.45
  -6   3  -9   72.32    6.95
   3   6  -9   80.59    8.09
  -6   3  -8   38.66    5.12
   3   6  -8   43.60    5.96
  -6   3  -7   94.32    8.06
   3   6  -7   74.91    7.78
   3   6  -6   22.82    4.36
  -6   3  -6   14.11    3.34
   3   6  -5   95.13    8.88
  -6   3  -5   87.45    7.83
   3   6  -4  154.16   11.34
  -6   3  -4  148.42   10.34
   3   6  -3  184.63   12.39
  -6   3  -3  192.14   11.90
   3   6  -2  166.11   11.76
  -6   3  -2  200.72   12.25
   3   6  -1   14.32    3.59
  -6   3  -1   26.57    4.56
   3   6   0   19.79    4.18
  -6   3   0    8.82    2.59
   3   6   1   21.86    4.51
  -3  -6   1   16.81    3.11
  -6   3   1   24.62    4.60
   3   6   2  164.07   11.76
  -3  -6   2  149.59    9.08
  -6   3   2  193.50   12.36
  -3  -6   2  167.59   11.11
   3   6   3  212.83   13.56
  -3  -6   3  182.99   10.30
  -6   3   3  205.67   12.88
  -3  -6   3  193.61   11.93
   3   6   4  174.05   12.28
  -3  -6   4  158.88    9.59
  -6   3   4  152.94   11.19
  -3  -6   4  157.38   10.67
   3   6   5   71.33    8.07
  -3  -6   5   85.07    7.11
  -6   3   5   95.47    8.91
  -3  -6   5   86.42    7.87
   3   6   6   24.37    4.78
  -3  -6   6   21.76    3.91
  -6   3   6   15.33    3.74
  -3  -6   6   25.37    4.31
   3   6   7   79.74    8.38
  -3  -6   7   63.77    6.41
  -6   3   7   85.28    8.47
  -3  -6   7   67.23    6.86
   3   6   8   50.76    6.62
  -3  -6   8   44.34    5.38
   6  -3   8   43.51    5.42
  -6   3   8   40.08    5.86
  -3  -6   8   52.47    6.03
   3   6   9   81.72    8.41
  -3  -6   9   85.57    7.57
  -6   3   9   86.78    8.73
  -3  -6   9   85.85    7.50
   6  -3   9   73.69    6.99
   3   6  10   72.24    8.08
  -3  -6  10   67.52    6.93
  -6   3  10   96.70    9.26
  -3  -6  10   72.53    7.00
   6  -3  10   87.92    7.56
   3   6  11  133.97   10.92
  -6   3  11  106.84    9.86
  -3  -6  11  110.53    8.54
   6  -3  11  119.73    8.84
   3   6  12   97.02    9.34
  -6   3  12   95.42    9.43
   6  -3  12   89.82    7.63
  -3  -6  12   93.98    7.85
   3   6  13   25.03    4.79
  -6   3  13   26.79    4.95
  -3  -6  13   30.42    4.35
   6  -3  13   31.02    4.40
   3   6  14   43.85    6.42
  -6   3  14   41.14    6.33
   6  -3  14   54.11    5.72
  -3  -6  14   33.06    4.58
   3   6  15   59.80    7.41
  -6   3  15   51.71    7.29
  -3  -6  15   47.16    5.41
   6  -3  15   44.40    5.30
   3   6  16   91.96    9.20
  -6   3  16   76.09    8.91
  -3  -6  16   86.29    7.29
   6  -3  16   80.97    7.00
  -3  -6  16   84.33    8.31
   3   6  17   44.04    6.41
  -6   3  17   63.77    8.02
  -3  -6  17   57.33    5.90
   6  -3  17   48.68    5.30
  -3  -6  17   52.64    6.75
   3   6  18   31.45    5.57
  -6   3  18   32.76    5.87
   6  -3  18   37.20    4.71
  -3  -6  18   22.49    4.60
  -3  -6  18   28.83    4.16
   3   6  19   41.91    6.32
  -6   3  19   40.10    6.49
  -3  -6  19   43.91    4.95
  -3  -6  19   38.32    5.94
   3   6  20   79.40    8.76
  -3  -6  20   89.05    7.21
  -6   3  20   78.84    9.13
  -3  -6  20   85.20    9.05
   3   6  21   57.20    7.55
  -3  -6  21   66.21    6.17
  -6   3  21   71.87    8.81
  -3  -6  21   63.86    7.94
   3   6  22    4.03    2.49
  -6   3  22   13.07    3.96
  -3  -6  22    6.85    2.12
  -3  -6  22   10.81    3.81
   3   6  23   59.94    7.75
  -3  -6  23   55.30    5.39
  -6   3  23   63.98    8.50
  -3  -6  23   51.60    7.36
   3   6  24   70.39    8.34
  -3  -6  24   75.45    6.35
  -6   3  24   60.62    8.36
  -3  -6  24   63.10    8.31
   3   6  25   16.95    4.29
  -6   3  25   24.07    5.50
  -3  -6  25   20.10    4.89
   3   6  26   -1.82    2.13
  -6   3  26   -2.55    1.89
  -3  -6  26    4.52    2.34
   3   6  27   22.86    4.94
  -6   3  27   16.92    4.67
  -3  -6  27   17.98    4.90
   3   6  28   51.65    7.41
  -6   3  28   48.30    7.91
  -3  -6  28   50.15    7.91
   3   6  29   39.95    6.43
  -6   3  29   44.77    7.65
  -3  -6  29   36.14    6.80
   3   6  30    5.44    2.15
  -6   3  30    5.71    3.11
  -3  -6  30    9.10    3.47
  -6   3  30    7.55    3.29
   3   6  31   10.91    3.41
  -6   3  31    9.97    3.72
  -3  -6  31   12.72    4.22
  -6   3  32   15.48    4.35
   3   6  32   21.00    4.92
  -6   3  32   21.64    4.95
  -3  -6  32   23.88    5.70
  -6   3  33   18.59    4.85
   3   6  33   20.64    4.89
  -6   3  33   22.25    5.15
  -3  -6  33   24.61    6.07
  -6   3  34   27.10    6.33
   3   6  34   23.37    4.87
  -6   3  34   20.10    4.80
  -6   3  35   21.93    5.54
   3   6  35   28.50    5.44
  -6   3  35   23.22    5.71
  -6   3  36   16.24    5.09
  -6   3  36   15.13    4.39
  -6   3  37    7.42    3.86
  -6   3  37   10.88    3.86
  -6   2 -32    3.90    2.81
  -6   2 -31   74.40   10.13
  -6   2 -30   10.04    4.42
  -6   2 -29    7.75    3.33
  -6   2 -28   12.24    4.33
  -2  -6 -27   29.65    4.23
  -6   2 -27   31.49    6.32
  -2  -6 -26    6.13    1.92
  -6   2 -26    7.78    3.97
  -6   2 -26    6.02    2.00
  -6   2 -25   59.06    8.37
  -2  -6 -25   41.77    4.85
  -6   2 -25   45.20    5.02
  -2  -6 -24   26.40    3.71
  -6   2 -24   28.76    5.79
  -6   2 -24   27.57    4.04
  -6   2 -23  198.14   14.74
  -2  -6 -23  182.36    9.55
  -6   2 -23  190.72   10.62
  -2  -6 -22   30.88    3.84
  -6   2 -22   18.63    4.72
  -6   2 -22   19.59    3.61
  -2  -6 -21  135.63    7.84
  -6   2 -21  127.64    8.76
  -2  -6 -20    1.44    0.91
  -6   2 -20    2.88    1.51
  -2  -6 -20    3.55    1.40
  -2  -6 -19  125.62    7.18
  -6   2 -19  123.24    8.64
  -2  -6 -19  125.98    7.17
  -2  -6 -18   16.88    2.72
  -6   2 -18    9.24    2.81
  -2  -6 -18   16.24    2.68
  -2  -6 -17  145.62    7.42
  -6   2 -17  141.75    9.34
  -2  -6 -17  140.32    7.33
   2   6 -17  141.42   10.03
   2   6 -16   11.82    3.09
  -2  -6 -16   10.29    2.03
  -6   2 -16   11.89    2.68
  -2  -6 -16   11.44    2.09
   2   6 -15   35.15    5.10
  -2  -6 -15   36.65    3.54
  -6   2 -15   45.31    5.38
  -2  -6 -15   36.48    3.55
  -2  -6 -14   59.60    4.47
  -6   2 -14   43.11    5.31
  -2  -6 -14   56.26    4.36
   2   6 -14   48.72    6.00
  -6   2 -13  213.75   11.78
   2   6 -13  194.01   11.97
   2   6 -12   70.98    7.29
  -6   2 -12   63.84    6.39
   2   6 -11  180.24   11.53
  -6   2 -11  192.40   11.19
   2   6 -10   18.34    3.87
  -6   2 -10    9.21    2.56
   2   6  -9  235.37   13.25
  -6   2  -9  219.69   12.12
   2   6  -8   38.50    5.40
  -6   2  -8   33.95    4.79
   2   6  -7  200.65   12.30
  -6   2  -7  227.56   12.38
   2   6  -6   12.79    3.48
  -6   2  -6    9.36    2.84
   2   6  -5   89.55    8.21
  -6   2  -5   87.19    7.75
   2   6  -4    4.81    2.22
  -6   2  -4    0.51    1.09
  -2  -6  -4    2.57    0.97
   2   6  -3   18.07    3.83
  -6   2  -3   23.89    4.02
  -2  -6  -3   19.82    2.56
   2   6  -2   22.23    4.21
  -6   2  -2   19.80    3.75
  -2  -6  -2   20.48    2.70
   2   6  -1  157.80   11.06
  -6   2  -1  167.39   11.00
  -2  -6  -1  154.04    7.66
   2   6   0  116.78    9.43
  -6   2   0  144.76   10.29
  -2  -6   0  114.23    6.66
   2   6   1  157.83   11.05
  -6   2   1  175.78   11.38
  -2  -6   1  153.32    7.94
   2   6   2   27.26    4.61
  -6   2   2   12.46    3.16
  -2  -6   2   23.14    3.14
   2   6   3   24.57    4.66
  -6   2   3   18.96    3.74
  -2  -6   3   22.60    3.17
   2   6   4    2.86    1.71
  -6   2   4    0.08    1.42
  -2  -6   4    1.84    0.81
   2   6   5   81.83    8.08
  -2  -6   5   84.69    6.32
  -6   2   5   88.03    8.29
   2   6   6   15.69    3.88
  -2  -6   6   10.33    2.44
  -6   2   6    8.51    2.93
   6  -2   6   12.21    3.03
   2   6   7  211.34   13.18
  -2  -6   7  192.05   10.19
  -6   2   7  199.66   12.73
  -2  -6   7  199.50   10.96
   6  -2   7  221.08   12.27
   2   6   8   37.88    5.55
  -2  -6   8   31.93    4.14
  -6   2   8   33.29    5.22
  -2  -6   8   29.68    4.19
   6  -2   8   34.88    4.84
   2   6   9  214.58   13.41
  -2  -6   9  217.85   11.37
  -6   2   9  237.04   14.13
   6  -2   9  234.56   12.65
  -2  -6   9  216.61   11.36
  -2  -6   9  230.54   11.58
   2   6  10   19.66    4.53
  -2  -6  10   19.35    3.64
  -6   2  10    9.34    3.17
   6  -2  10    7.52    2.60
  -2  -6  10   18.86    3.47
  -2  -6  10   17.11    3.44
   2   6  11  198.89   12.99
  -2  -6  11  173.68   10.52
  -6   2  11  177.63   12.41
   6  -2  11  204.28   11.51
  -2  -6  11  177.72   10.10
  -2  -6  11  180.64   10.59
   2   6  12   67.90    7.68
  -2  -6  12   60.01    6.23
  -6   2  12   60.97    7.30
  -2  -6  12   63.13    5.89
   6  -2  12   57.09    5.99
  -2  -6  12   65.09    6.47
   2   6  13  207.04   13.39
  -2  -6  13  183.48   11.20
  -6   2  13  226.46   14.17
  -2  -6  13  202.96   10.58
   6  -2  13  220.28   12.01
  -2  -6  13  205.06   11.81
   2   6  14   47.55    6.50
  -2  -6  14   43.89    5.60
  -6   2  14   46.49    6.58
  -2  -6  14   46.45    4.97
   6  -2  14   39.82    5.04
  -2  -6  14   47.14    5.73
   2   6  15   28.94    4.93
  -6   2  15   38.66    6.00
  -2  -6  15   27.35    4.42
  -2  -6  15   24.12    3.53
   6  -2  15   41.05    5.01
   2   6  16   13.28    3.50
  -6   2  16   11.31    3.40
  -2  -6  16    7.96    2.54
  -2  -6  16    9.93    2.40
   6  -2  16   12.32    2.88
   2   6  17  144.15   11.37
  -6   2  17  144.11   11.82
  -2  -6  17  145.58    8.56
  -2  -6  17  145.09   10.62
   2   6  18   23.90    4.98
  -6   2  18    7.86    3.03
  -2  -6  18   25.58    4.87
  -2  -6  18   18.56    3.02
   2   6  19  127.81   10.77
  -6   2  19  137.75   11.74
  -2  -6  19  121.20    7.55
  -2  -6  19  129.71   10.40
   2   6  20    7.36    3.18
  -6   2  20    0.02    1.20
  -2  -6  20    2.68    1.90
   2   6  21  129.31   10.97
  -6   2  21  132.08   11.49
  -2  -6  21  121.76    7.35
  -2  -6  21  129.21   10.83
   2   6  22   30.35    5.56
  -6   2  22   19.01    4.61
  -2  -6  22   37.98    4.09
  -2  -6  22   32.56    5.65
   2   6  23  173.35   12.89
  -6   2  23  177.51   13.69
  -2  -6  23  174.91    8.42
  -2  -6  23  169.46   12.84
   2   6  24   24.20    5.00
  -6   2  24   34.48    6.20
  -2  -6  24   23.45    4.96
   2   6  25   35.31    5.93
  -6   2  25   56.97    7.93
  -2  -6  25   42.54    6.63
   2   6  26    9.42    3.34
  -6   2  26    8.61    3.17
  -2  -6  26   10.43    3.52
   2   6  27   30.07    5.48
  -6   2  27   25.45    5.41
  -2  -6  27   30.43    5.99
   2   6  28    4.12    2.29
  -6   2  28   11.20    3.93
  -2  -6  28    9.25    3.28
   2   6  29   10.04    3.37
  -6   2  29   15.61    4.28
  -2  -6  29    9.57    3.64
   2   6  30    3.77    2.41
  -6   2  30    4.31    2.47
  -2  -6  30    5.97    3.19
   2   6  31   64.36    8.14
  -6   2  31   67.70    9.20
  -2  -6  31   69.49    9.28
   2   6  32    8.23    3.10
  -6   2  32    8.01    3.35
  -2  -6  32    8.69    3.86
  -6   2  32   12.44    4.41
   2   6  33   73.38    8.69
  -6   2  33   85.96   10.64
  -6   2  33   73.38    9.44
  -2  -6  33   80.12   10.40
   2   6  34    7.98    3.54
  -6   2  34    3.25    2.76
  -2  -6  34    4.18    2.77
  -6   2  34    4.61    2.56
   2   6  35   36.56    6.45
  -6   2  35   33.32    6.51
   2   6  36    2.19    2.15
  -6   2  36    4.94    2.63
  -6   2  37   48.16    8.03
  -6   2  37   58.83    8.82
  -6   2  38    5.05    2.98
  -6   2  38    2.14    2.49
  -6   1 -33   11.65    3.79
  -6   1 -32   55.05    8.78
  -6   1 -31   29.53    6.50
  -6   1 -30   41.96    7.48
  -6   1 -29   44.19    5.36
  -6   1 -29   46.43    7.75
  -6   1 -28  146.98    9.75
  -6   1 -28  153.68   13.91
  -6   1 -27   26.74    4.31
  -6   1 -27   26.13    5.74
  -6   1 -26   20.99    3.88
  -1  -6 -26   26.44    3.44
  -6   1 -26   19.44    4.80
  -6   1 -25   31.41    4.63
  -6   1 -25   28.78    5.85
  -1  -6 -25   29.39    3.55
  -6   1 -24   84.38    7.42
  -6   1 -24   88.80    9.98
  -1  -6 -24   79.82    5.62
  -6   1 -23   53.63    5.89
  -1  -6 -23   55.18    4.53
  -6   1 -22   34.75    4.48
  -1  -6 -22   44.78    3.92
  -6   1 -22   36.41    4.93
  -1  -6 -21   65.03    4.52
  -6   1 -21   60.12    6.34
   1   6 -21   64.38    6.28
  -6   1 -21   59.32    5.84
  -1  -6 -20   54.25    4.00
  -6   1 -20   61.32    6.42
   1   6 -20   52.20    5.73
  -6   1 -20   63.04    5.98
  -1  -6 -19  110.88    5.49
  -6   1 -19  111.46    8.66
  -6   1 -19  108.28    7.97
   1   6 -19  115.01    8.56
  -1  -6 -18  118.27    5.37
  -6   1 -18  105.92    8.40
   1   6 -18  115.61    8.60
  -1  -6 -18  112.07    5.28
   1   6 -17   83.01    7.38
  -1  -6 -17   97.46    4.64
  -6   1 -17   76.02    7.16
  -1  -6 -17   94.41    4.57
   1   6 -16  293.75   14.07
  -1  -6 -16  297.24    8.10
  -6   1 -16  330.87   15.08
  -1  -6 -16  281.70    7.93
   1   6 -15  203.97   11.73
  -1  -6 -15  183.87    5.86
  -6   1 -15  203.76   11.62
  -1  -6 -15  181.42    5.86
   1   6 -14   24.94    4.19
  -1  -6 -14   20.04    1.72
  -6   1 -14   15.52    3.19
  -1  -6 -14   19.43    1.71
   1   6 -13   49.95    5.81
  -1  -6 -13   55.87    2.69
  -6   1 -13   58.04    6.25
  -1  -6 -13   53.94    2.66
   1   6 -12   18.43    3.53
  -1  -6 -12   18.72    1.45
  -6   1 -12   23.92    4.05
  -1  -6 -12   18.72    1.46
   1   6 -11   88.15    7.69
  -1  -6 -11   78.83    2.87
  -6   1 -11   92.73    7.79
  -1  -6 -11   78.97    2.90
   1   6 -10   68.13    6.77
  -1  -6 -10   62.35    2.44
  -1  -6 -10   63.03    2.45
  -6   1 -10   57.49    6.12
  -1  -6 -10   65.27    2.53
   1   6  -9  142.39    9.84
  -1  -6  -9  135.20    3.75
  -1  -6  -9  134.92    3.74
  -6   1  -9  156.25   10.19
  -1  -6  -9  131.71    3.74
   1   6  -8   61.73    6.47
  -1  -6  -8   55.10    2.36
  -1  -6  -8   59.42    2.44
  -6   1  -8   69.80    6.87
  -1  -6  -8   55.29    2.36
   1   6  -7   32.84    4.84
  -6   1  -7   28.57    4.38
  -1  -6  -7   27.70    1.72
   1   6  -6   53.21    6.14
  -6   1  -6   50.70    5.84
  -1  -6  -6   54.74    2.64
   1   6  -5   36.44    5.22
  -6   1  -5   30.16    4.55
  -1  -6  -5   42.24    2.47
   1   6  -4  100.48    8.45
  -1  -6  -4   98.08    4.11
  -6   1  -4  117.95    8.96
   1   6  -3   71.88    7.13
  -1  -6  -3   62.92    3.46
  -6   1  -3   59.28    6.38
  -1  -6  -3   60.94    3.42
   1   6  -2   43.30    5.49
  -1  -6  -2   40.81    2.94
  -6   1  -2   37.79    5.21
  -1  -6  -2   43.51    3.01
   1   6  -1   66.20    6.97
  -1  -6  -1   73.75    4.18
  -6   1  -1   63.92    6.73
  -1  -6  -1   76.19    4.25
   1   6   0  276.14   14.43
  -1  -6   0  279.47    8.89
  -6   1   0  302.42   14.81
  -1  -6   0  272.14    8.83
   1   6   1   81.70    7.76
  -1  -6   1   63.78    4.28
  -6   1   1   66.59    6.92
  -1  -6   1   61.99    4.23
   1   6   2   38.31    5.41
  -1  -6   2   38.77    3.51
  -6   1   2   38.57    5.35
  -1  -6   2   40.49    3.60
   1   6   3   60.17    6.73
  -1  -6   3   64.83    4.67
  -6   1   3   59.32    6.66
  -1  -6   3   68.40    4.79
   1   6   4  101.44    8.80
  -1  -6   4  103.70    6.14
  -6   1   4  121.28    9.49
  -1  -6   4  106.20    6.25
   1   6   5   42.56    5.70
  -1  -6   5   38.75    3.89
  -6   1   5   40.11    5.56
  -1  -6   5   39.87    3.92
   1   6   6   47.64    6.09
  -1  -6   6   41.84    4.19
  -6   1   6   40.49    5.63
  -1  -6   6   44.80    4.29
   1   6   7   21.42    4.14
  -1  -6   7   26.05    3.40
  -6   1   7   25.28    4.45
  -1  -6   7   27.39    3.57
   6  -1   7   17.84    3.39
   1   6   8   71.33    7.41
  -1  -6   8   62.59    5.44
  -6   1   8   75.38    7.64
   6  -1   8   66.13    6.76
  -1  -6   8   66.49    5.62
   1   6   9  138.88   10.54
  -1  -6   9  127.95    8.02
  -6   1   9  160.93   11.24
   6  -1   9  153.21   10.06
  -1  -6   9  137.06    8.33
   1   6  10   75.71    7.88
  -1  -6  10   75.48    7.34
  -1  -6  10   71.69    6.12
  -6   1  10   56.16    6.71
   6  -1  10   64.12    6.63
  -1  -6  10   74.98    6.26
   1   6  11   93.72    8.74
  -1  -6  11   98.12    8.27
  -1  -6  11   94.57    7.25
  -6   1  11   98.94    9.03
   6  -1  11  101.77    8.28
  -1  -6  11  104.25    7.55
  -1  -6  11   98.72    6.85
  -1  -6  12   16.05    3.35
   1   6  12   26.65    4.84
  -1  -6  12   19.04    3.33
  -6   1  12   27.78    4.87
   6  -1  12   24.41    4.13
  -1  -6  12   19.29    2.99
  -1  -6  12   17.02    3.11
   1   6  13   67.36    7.41
  -1  -6  13   54.21    6.06
  -1  -6  13   58.42    5.97
  -6   1  13   53.21    6.67
  -1  -6  13   56.03    5.80
  -1  -6  13   59.47    5.20
   6  -1  13   61.99    6.42
  -1  -6  14   31.92    4.59
   1   6  14   23.29    4.47
  -1  -6  14   26.96    4.20
  -6   1  14   11.69    3.10
  -1  -6  14   26.37    3.43
  -1  -6  14   28.92    4.36
   1   6  15  202.06   13.18
  -1  -6  15  209.80   12.11
  -1  -6  15  196.09   11.55
  -6   1  15  202.21   13.34
  -1  -6  15  208.39    9.43
  -1  -6  15  210.38   11.83
   1   6  16  299.52   16.16
  -1  -6  16  301.76   14.56
  -1  -6  16  298.32   14.67
  -6   1  16  333.06   17.23
  -1  -6  16  315.17   11.59
  -1  -6  16  316.73   15.00
   1   6  17  110.66    9.84
  -1  -6  17   90.62    7.89
  -6   1  17   91.66    9.20
  -1  -6  17   99.07    8.46
  -1  -6  17   92.57    5.95
   1   6  18  107.44    9.68
  -1  -6  18  104.55    8.40
  -1  -6  18  116.65    6.55
  -6   1  18  101.55    9.60
  -1  -6  18  115.29    9.29
   1   6  19   93.37    9.10
  -1  -6  19  115.31    8.83
  -1  -6  19  113.26    6.26
  -6   1  19  104.74    9.88
  -1  -6  19  112.05    9.34
   1   6  20   50.34    6.74
  -1  -6  20   50.95    5.86
  -6   1  20   59.71    7.60
  -1  -6  20   53.28    4.14
  -1  -6  20   49.46    6.44
   1   6  21   59.41    7.36
  -1  -6  21   54.22    5.99
  -6   1  21   63.54    7.79
  -1  -6  21   58.86    4.14
  -1  -6  21   59.80    7.13
  -1  -6  22   34.25    4.76
   1   6  22   37.79    5.83
  -1  -6  22   35.67    3.11
  -6   1  22   27.14    5.32
  -1  -6  22   41.67    6.06
   1   6  23   63.71    7.74
  -1  -6  23   59.30    6.21
  -1  -6  23   62.52    3.74
  -6   1  23   59.53    7.77
  -1  -6  23   62.76    7.64
   1   6  24   70.29    8.13
  -6   1  24   82.79    9.18
  -1  -6  24   67.87    7.98
   1   6  25   28.48    5.41
  -6   1  25   34.22    6.06
  -1  -6  25   21.92    4.74
   1   6  26   25.75    5.05
  -6   1  26   31.45    6.05
  -1  -6  26   29.28    5.69
   1   6  27   28.82    5.46
  -6   1  27   23.36    5.28
  -1  -6  27   34.06    6.03
   1   6  28  143.06   11.84
  -6   1  28  135.18   12.13
  -1  -6  28  123.89   11.62
   1   6  29   44.44    6.68
  -6   1  29   44.99    7.06
  -1  -6  29   36.61    6.53
   1   6  30   35.93    6.24
  -6   1  30   47.99    7.57
  -1  -6  30   41.83    6.98
   1   6  31   31.88    5.73
  -6   1  31   35.28    6.55
  -1  -6  31   31.33    6.34
   1   6  32   35.36    6.15
  -6   1  32   48.77    7.49
  -1  -6  32   38.51    6.93
   1   6  33   14.30    4.12
  -6   1  33    8.63    3.66
  -1  -6  33   16.87    4.90
  -6   1  33   14.03    4.34
   1   6  34   11.70    3.62
  -6   1  34    6.80    3.24
  -1  -6  34   10.98    4.04
  -6   1  34   13.06    4.17
   1   6  35   52.40    7.44
  -6   1  35   51.90    7.80
  -1  -6  35   60.51    9.14
  -6   1  35   51.09    8.25
   1   6  36   14.07    4.25
  -6   1  36   27.47    6.23
  -6   1  36   16.31    4.71
   1   6  37   36.70    6.62
  -6   1  37   36.85    7.06
  -6   1  37   43.99    7.86
   0   6 -36    6.37    3.16
   0   6 -35   35.53    7.01
  -6   0 -34    2.36    2.53
   0   6 -34    6.79    3.26
  -6   0 -33   65.04    9.75
   0   6 -33   60.14    8.83
  -6   0 -32   17.03    4.98
   0   6 -32   10.87    3.98
  -6   0 -31   59.26    8.88
   0   6 -31   55.02    8.12
  -6   0 -31   53.45    6.33
  -6   0 -30   10.50    4.04
   0   6 -30    8.25    3.11
  -6   0 -30   10.96    3.13
  -6   0 -29   73.74    9.65
   0   6 -29   61.11    8.14
  -6   0 -29   66.98    7.11
  -6   0 -28   61.76    8.63
   0   6 -28   51.62    7.62
  -6   0 -28   55.68    6.43
  -6   0 -27   62.36    8.69
   0   6 -27   83.45    9.29
  -6   0 -27   76.92    7.56
  -6   0 -26   27.78    5.81
   0   6 -26   28.20    5.48
  -6   0 -26   29.15    4.80
   0   6 -25  180.15   13.13
  -6   0 -25  174.29   11.39
   0   6 -24   29.91    5.37
  -6   0 -24   41.98    5.60
   0   6 -24   27.92    3.85
  -6   0 -23  138.16    9.03
   0   6 -23  163.31   12.02
  -6   0 -23  136.99   10.06
   0   6 -23  156.50    9.21
   0   6 -22    6.43    2.63
   0   6 -22    3.53    1.28
  -6   0 -22    4.59    1.92
  -6   0 -22    2.97    1.76
   0   6 -21   56.94    5.68
  -6   0 -21   57.57    5.82
  -6   0 -21   59.80    6.63
   0   6 -21   64.42    7.32
   0   6 -20   70.07    6.41
  -6   0 -20   87.97    7.37
  -6   0 -20   79.62    7.59
   0   6 -20   66.43    7.32
  -6   0 -19   90.16    7.53
   0   6 -19  100.27    7.68
   0   6 -19   87.11    8.10
  -6   0 -19   86.35    7.84
   0   6 -18    9.71    2.82
  -6   0 -18   13.79    2.98
   0   6 -18   10.34    2.53
  -6   0 -18   13.70    3.33
   0   6 -17    6.29    2.48
   0   6 -17    4.58    1.95
  -6   0 -17    2.74    1.69
  -6   0 -17    2.11    1.79
   0   6 -16   21.68    3.77
  -6   0 -16   14.96    3.23
   0   6 -16   22.45    3.81
  -6   0 -16   19.90    3.75
   0   6 -15   31.81    4.53
   0   6 -15   32.87    4.52
  -6   0 -15   43.59    5.32
  -6   0 -15   33.78    4.89
   0   6 -14   16.83    3.21
   0   6 -14   17.49    3.44
  -6   0 -14   12.48    2.81
  -6   0 -14   15.02    3.27
   0   6 -13  154.12    9.90
  -6   0 -13  155.31   10.43
   0   6 -13  152.49    9.37
   0   6 -12   77.31    7.15
  -6   0 -12  104.63    8.56
   0   6 -11  278.66   13.44
  -6   0 -11  261.87   13.68
   0   6 -10   20.39    3.61
  -6   0 -10   26.15    4.40
   0   6  -9  133.57    9.33
  -6   0  -9  145.48   10.06
   0   6  -8   17.19    3.59
  -6   0  -8   34.22    4.98
   0   6  -7  248.94   12.93
  -6   0  -7  232.71   12.81
   0   6  -6    0.04    1.10
  -6   0  -6    3.12    2.02
   0   6  -5  224.87   12.41
  -6   0  -5  226.03   12.73
   0   6  -4   61.33    6.49
  -6   0  -4   76.60    7.28
   0   6  -3  206.40   11.95
  -6   0  -3  198.70   11.91
   0   6  -2   43.67    5.55
  -6   0  -2   41.67    5.48
   0   6  -1   70.53    7.02
  -6   0  -1   77.96    7.35
   0   6   0   10.32    2.97
  -6   0   0   18.28    3.51
   0   6   1   70.09    7.10
   0  -6   1   68.22    3.60
  -6   0   1   77.27    7.46
   0  -6   1   67.42    3.57
   0   6   2   40.65    5.44
   0  -6   2   39.40    2.96
  -6   0   2   37.66    5.13
   0  -6   2   40.60    3.02
   0   6   3  199.45   12.21
   0  -6   3  208.42    7.56
  -6   0   3  209.48   12.38
   0  -6   3  210.24    7.56
   0   6   4   66.10    7.10
   0  -6   4   52.55    3.93
  -6   0   4   83.23    7.81
   0  -6   4   56.33    4.08
   0  -6   5  232.86   12.89
   0   6   5  257.03   13.94
   0  -6   5  228.81    8.86
  -6   0   5  227.40   13.11
   0  -6   5  230.38    8.84
   0   6   6    4.96    2.55
   0  -6   6    2.23    1.04
   0  -6   6    7.17    2.64
  -6   0   6    2.76    1.79
   0  -6   6    4.22    1.42
   0  -6   7  255.55   13.37
   0   6   7  244.72   13.81
   0  -6   7  239.74    9.81
  -6   0   7  229.05   13.32
   0  -6   7  255.53   10.04
   0   6   8   30.06    5.15
   0  -6   8   22.03    3.08
   0  -6   8   24.89    4.38
  -6   0   8   43.59    5.90
   0  -6   8   21.93    3.07
   0  -6   9  148.02    9.97
   0   6   9  169.79   11.53
   0  -6   9  131.46    7.71
  -6   0   9  136.73   10.34
   0  -6   9  141.07    7.93
   0   6  10   26.51    4.69
   0  -6  10   24.27    3.45
   0  -6  10   28.41    4.40
  -6   0  10   26.45    4.47
   0  -6  10   28.07    3.70
   0  -6  11  285.88   13.92
   0   6  11  259.76   14.59
   0  -6  11  268.84   11.90
  -6   0  11  258.55   14.51
   0  -6  11  276.10   12.05
   0  -6  12   85.74    7.43
   0   6  12   76.39    7.92
   0  -6  12   73.35    6.29
  -6   0  12  102.81    9.13
   0  -6  12   81.88    6.62
   0  -6  13  154.10    9.96
   0   6  13  171.09   11.89
   0  -6  13  153.04    9.35
  -6   0  13  152.87   11.21
   0  -6  13  153.77    9.36
   0   6  14   10.91    3.28
   0  -6  14   14.56    3.00
   0  -6  14   15.48    3.07
  -6   0  14   12.22    3.28
   0  -6  14   12.57    2.76
   0  -6  15   45.65    5.32
   0   6  15   44.37    6.15
   0  -6  15   42.68    5.10
  -6   0  15   46.63    6.26
   0  -6  15   44.79    3.91
   0  -6  15   44.36    5.36
   0   6  16   17.99    4.13
   0  -6  16   17.15    3.39
   0  -6  16   19.48    3.30
  -6   0  16   15.90    3.82
   0  -6  16   18.56    3.55
   0  -6  16   18.81    2.48
   0   6  17    0.95    1.38
   0  -6  17    1.04    0.81
   0  -6  17   -0.40    1.27
  -6   0  17    1.68    1.97
   0  -6  17    0.33    0.56
   0  -6  17    1.82    1.45
   0  -6  17    2.64    1.03
   0   6  18    2.29    1.96
   0  -6  18    7.07    2.21
   0  -6  18    8.21    1.49
  -6   0  18    9.87    3.15
   0  -6  18    9.53    2.59
   0  -6  18   10.46    1.71
   0   6  19   97.45    9.40
   0  -6  19   98.83    7.74
   0  -6  19  101.17    4.83
  -6   0  19   85.22    8.74
   0  -6  19   96.32    4.80
   0  -6  19   95.10    8.43
   0   6  20   66.42    7.80
   0  -6  20   60.47    6.03
   0  -6  20   68.84    3.65
  -6   0  20   79.93    8.53
   0  -6  20   68.57    3.59
   0  -6  20   63.75    7.06
   0   6  21   64.00    7.65
   0  -6  21   58.86    5.96
  -6   0  21   52.97    7.07
   0  -6  21   62.14    2.89
   0  -6  21   63.36    7.20
   0   6  22    7.92    3.16
   0  -6  22    7.92    2.58
  -6   0  22    5.53    2.52
   0  -6  22    6.22    2.38
   0  -6  23  150.22    9.26
   0   6  23  152.47   11.99
  -6   0  23  158.66   12.31
   0  -6  23  152.11   11.61
   0   6  24   35.78    5.89
  -6   0  24   47.15    6.83
   0  -6  24   31.99    5.74
   0   6  25  164.61   12.72
  -6   0  25  159.72   12.71
   0  -6  25  178.32   13.02
   0   6  26   23.01    4.89
  -6   0  26   24.67    5.17
   0  -6  26   28.79    5.44
   0   6  27   76.67    8.87
  -6   0  27   75.72    8.89
   0  -6  27   80.68    9.14
   0   6  28   38.12    6.27
  -6   0  28   49.65    7.33
   0  -6  28   34.35    6.29
   0   6  29   59.64    7.77
  -6   0  29   55.80    7.78
   0  -6  29   62.33    8.45
   0   6  30    6.16    2.80
  -6   0  30    7.40    3.25
   0  -6  30    8.84    3.15
   0   6  31   60.97    8.10
  -6   0  31   56.59    8.26
   0  -6  31   67.12    9.01
   0   6  32   15.92    4.49
  -6   0  32   18.09    4.73
   0  -6  32    8.90    3.54
   0   6  33   50.51    7.39
  -6   0  33   58.82    8.25
   0  -6  33   53.71    8.28
   0   6  34   -0.29    1.38
  -6   0  34    0.02    1.83
  -6   0  34    1.55    1.43
   0  -6  34    2.94    1.89
   0   6  35   27.61    5.66
  -6   0  35   23.63    5.39
  -6   0  35   29.48    6.61
   0  -6  35   29.95    6.61
   0   6  36    9.66    3.81
  -6   0  36    8.65    3.59
   0  -6  36   10.89    3.95
   0   6  37   53.51    7.75
  -6   0  37   42.18    7.10
   0   6  38    5.20    2.15
  -6   0  38    1.88    1.32
  -6   0  39   12.00    3.98
  -1   6 -36    0.97    1.77
  -1   6 -35    7.42    3.46
  -1   6 -34   71.44    9.71
  -6  -1 -34   72.26   10.12
  -6  -1 -33   38.23    7.34
  -1   6 -33   26.14    5.59
  -6  -1 -33   38.27    5.87
  -6  -1 -32    7.13    3.46
  -1   6 -32    6.42    3.06
  -6  -1 -32    3.56    2.25
  -6  -1 -31   14.31    4.91
  -1   6 -31    9.68    3.74
  -6  -1 -31   15.49    3.84
  -1   6 -30  128.99   12.25
  -6  -1 -30  131.29   12.97
  -6  -1 -30  123.31   10.38
  -6  -1 -29   34.56    6.64
  -1   6 -29   38.48    6.56
  -6  -1 -29   41.36    6.14
  -6  -1 -28    0.57    1.35
  -1   6 -28    1.81    1.93
  -6  -1 -28    2.74    2.08
  -6  -1 -27   41.20    7.02
  -1   6 -27   37.26    6.28
  -6  -1 -27   41.96    5.91
  -1   6 -26  245.27   15.63
  -6  -1 -26  246.28   14.44
  -1   6 -25   22.73    4.86
  -1   6 -25   21.36    3.24
  -6  -1 -25   23.43    4.75
  -1   6 -24    7.60    2.88
  -1   6 -24    9.99    2.28
  -6  -1 -24    5.51    2.31
  -1   6 -23   34.71    5.50
  -6  -1 -23   38.02    4.98
  -1   6 -23   40.07    4.51
  -6  -1 -23   39.57    5.71
  -6  -1 -22  106.17    8.43
  -1   6 -22   90.48    6.82
  -1   6 -22  100.29    9.22
  -6  -1 -22  100.44    8.91
  -1   6 -21   25.45    4.57
  -1   6 -21   32.20    4.17
  -6  -1 -21   28.72    4.43
  -6  -1 -21   30.51    5.10
  -1   6 -20    3.67    2.04
  -6  -1 -20    7.64    2.41
  -1   6 -20    4.15    1.85
  -6  -1 -20    6.15    2.34
  -1   6 -19   17.16    3.76
  -6  -1 -19   26.93    4.41
  -1   6 -19   13.40    2.77
  -6  -1 -19   23.30    4.32
  -6  -1 -18  224.34   12.48
  -1   6 -18  233.53   11.80
  -6  -1 -18  230.86   13.46
  -1   6 -18  252.80   13.52
  -1   6 -17   61.30    5.96
  -6  -1 -17   73.09    7.05
  -1   6 -17   58.23    6.38
  -6  -1 -17   67.45    7.29
  -1   6 -16   10.88    2.83
  -6  -1 -16    5.51    2.06
  -1   6 -16    8.94    2.46
  -6  -1 -16    8.71    2.96
  -1   6 -15   93.47    7.49
  -6  -1 -15  101.14    8.37
  -6  -1 -15  106.76    9.10
  -1   6 -15   95.06    7.66
  -1   6 -14  175.22   10.43
  -6  -1 -14  183.64   11.38
  -1   6 -14  181.99   10.43
  -6  -1 -14  172.63   11.42
  -1   6 -13   18.10    3.27
  -6  -1 -13   14.95    3.24
  -1   6 -13   16.91    3.34
  -6  -1 -13   17.36    3.75
  -1   6 -12    5.47    1.74
  -1   6 -12    5.82    2.00
  -6  -1 -12    2.38    1.66
  -1   6 -11   15.07    2.84
  -1   6 -11   19.66    3.50
  -6  -1 -11   24.73    4.40
  -1   6 -10  242.86   12.61
  -1   6 -10  264.27   11.17
  -6  -1 -10  241.66   13.48
  -1   6  -9   36.83    3.95
  -1   6  -9   36.62    4.87
  -6  -1  -9   32.13    4.94
  -1   6  -8    0.48    0.55
  -1   6  -8    0.09    1.06
  -6  -1  -8    1.97    1.66
  -1   6  -7   28.76    3.21
  -1   6  -7   27.51    4.33
  -6  -1  -7   22.12    4.05
  -1   6  -6  239.21   12.79
  -6  -1  -6  242.50   13.45
  -1   6  -6  228.42    8.90
  -1   6  -5  139.76    9.76
  -1   6  -5  133.46    6.38
  -6  -1  -5  145.14   10.35
  -1   6  -4   27.60    4.39
   1  -6  -4   23.82    4.22
  -6  -1  -4   14.73    3.45
  -1   6  -3  157.78   10.48
  -6  -1  -3  163.83   10.99
   1  -6  -3  174.54   11.00
  -1   6  -2  326.31   15.43
   1  -6  -2  328.46   14.97
  -6  -1  -2  290.38   14.89
  -1   6  -1  149.23   10.40
  -6  -1  -1  175.87   11.44
   1  -6  -1  153.30   10.00
  -1   6   0   12.09    3.18
   1  -6   0   10.51    2.57
  -6  -1   0    5.69    2.62
  -1   6   1  170.10   11.19
  -6  -1   1  183.98   11.70
   1  -6   1  154.19    9.76
  -1   6   2  311.08   15.37
  -6  -1   2  314.80   15.52
   1  -6   2  313.14   13.87
  -1   6   3  181.08   11.69
  -6  -1   3  184.61   11.75
   1  -6   3  171.56   10.02
  -1   6   4   22.95    4.29
   1  -6   4   27.26    3.93
  -6  -1   4   15.12    3.35
  -1   6   5  138.75   10.32
   1  -6   5  149.74   10.22
  -6  -1   5  138.23   10.22
   1  -6   5  135.84    8.57
  -1   6   6  224.09   13.19
   1  -6   6  233.82   12.77
  -6  -1   6  232.09   13.35
   1  -6   6  222.32   10.87
   1  -6   7   32.15    4.80
  -1   6   7   32.66    5.01
  -6  -1   7   36.03    5.31
   1  -6   7   28.88    3.84
  -1   6   8    0.68    1.01
   1  -6   8   -0.33    0.71
  -6  -1   8    0.82    1.04
   1  -6   8    2.96    1.76
  -1   6   9   43.13    6.03
   1  -6   9   39.30    5.08
  -6  -1   9   38.15    5.71
   1  -6   9   31.60    3.87
  -1   6  10  257.04   14.56
   1  -6  10  254.80   13.06
  -6  -1  10  253.87   14.20
   1  -6  10  241.69   10.48
  -1   6  11   23.78    4.54
   1  -6  11   17.59    2.76
  -6  -1  11   25.41    4.62
   1  -6  11   17.82    3.49
  -1   6  12    5.86    2.67
   1  -6  12    5.21    1.58
  -6  -1  12    3.83    1.76
   1  -6  12    8.67    2.58
  -1   6  13   17.19    3.87
   1  -6  13   16.70    2.57
  -6  -1  13   16.92    3.77
   1  -6  13   19.39    3.70
  -1   6  14  198.06   13.06
   1  -6  14  183.48   10.77
   1  -6  14  177.91    7.93
  -6  -1  14  179.38   12.18
  -1   6  15   95.68    9.20
   1  -6  15   83.70    7.20
   1  -6  15   87.56    5.25
  -6  -1  15  105.54    9.35
  -1   6  16    5.06    2.67
   1  -6  16    9.73    2.68
  -6  -1  16    7.70    2.92
   1  -6  16    8.99    1.62
  -1   6  17   64.11    7.64
   1  -6  17   64.64    6.24
   1  -6  17   60.21    3.82
  -6  -1  17   72.12    7.86
   1  -6  17   63.12    3.84
  -1   6  18  237.16   14.67
   1  -6  18  231.11   11.75
   1  -6  18  223.98    6.94
  -6  -1  18  236.04   14.34
   1  -6  18  234.53    6.94
  -1   6  19   21.24    4.52
   1  -6  19   12.72    2.68
  -6  -1  19   16.50    3.85
   1  -6  19   11.96    1.28
   1  -6  19   14.99    1.36
  -1   6  20    5.16    2.28
  -6  -1  20    4.12    2.31
  -1   6  21   22.74    4.82
  -6  -1  21   21.78    4.58
  -1   6  22  109.76   10.31
  -6  -1  22  107.78    9.90
  -1   6  23   45.65    6.76
  -6  -1  23   47.26    6.64
  -1   6  24    5.44    2.82
  -6  -1  24    9.86    3.30
  -1   6  25   19.48    4.73
  -6  -1  25   22.41    4.82
  -1   6  26  257.56   16.26
  -6  -1  26  242.79   15.59
  -1   6  27   43.00    6.80
  -6  -1  27   38.36    6.21
  -1   6  28    5.06    2.37
  -6  -1  28    0.45    1.69
  -1   6  29   39.67    6.71
  -6  -1  29   31.89    5.86
  -1   6  30  112.40   11.14
  -6  -1  30  114.83   10.93
  -1   6  31    6.30    3.22
  -6  -1  31    9.54    3.50
  -1   6  32    7.91    3.30
  -6  -1  32    5.46    2.75
  -1   6  33   32.70    6.16
  -6  -1  33   28.66    5.50
  -1   6  34   60.67    8.27
  -6  -1  34   68.82    8.75
  -6  -1  34   54.79    8.71
  -1   6  35    7.18    3.53
  -6  -1  35    8.90    3.49
  -1   6  36    1.92    1.83
  -6  -1  36    2.75    1.66
  -1   6  37    8.68    3.64
  -6  -1  37   12.13    3.94
  -1   6  38   38.52    6.92
  -6  -1  38   43.94    7.08
  -2   6 -35   29.39    6.25
  -6  -2 -35   20.10    4.80
  -6  -2 -34   79.93   10.49
  -2   6 -34   52.79    8.61
  -6  -2 -34   67.19    8.30
  -2   6 -33   44.36    7.67
  -6  -2 -33   30.34    6.40
  -6  -2 -33   33.52    6.05
  -2   6 -32    0.47    2.59
  -6  -2 -32    0.68    1.83
  -6  -2 -32    2.09    2.02
  -2   6 -31   18.30    5.29
  -6  -2 -31   10.56    4.22
  -6  -2 -31   13.10    3.63
  -6  -2 -30   86.87   10.44
  -2   6 -30   51.99    7.91
  -6  -2 -30   74.53    8.61
  -6  -2 -29   53.60    8.18
  -2   6 -29   61.39    8.34
  -6  -2 -29   46.89    6.68
  -2   6 -28   12.08    3.91
  -6  -2 -28    7.26    2.90
  -6  -2 -28    7.79    2.90
  -2   6 -27   18.47    4.55
  -6  -2 -27   13.98    4.27
  -6  -2 -27   13.03    3.82
  -2   6 -26   39.93    6.39
  -6  -2 -26   49.31    6.73
  -2   6 -25   61.26    7.65
  -6  -2 -25   44.72    6.62
  -2   6 -24    6.34    2.98
  -2   6 -24    5.48    1.71
  -6  -2 -24   10.71    3.27
  -2   6 -23  131.26   10.86
  -2   6 -23  146.56    8.50
  -6  -2 -23  132.42   10.96
  -2   6 -22   11.60    3.40
  -2   6 -22    8.73    2.32
  -6  -2 -22   20.31    4.54
  -2   6 -21   29.93    5.05
  -2   6 -21   27.70    3.79
  -6  -2 -21   22.59    4.57
  -2   6 -20    2.25    1.75
  -2   6 -20    2.16    1.45
  -6  -2 -20    2.67    2.03
  -2   6 -19   81.43    7.86
  -2   6 -19   68.14    6.13
  -6  -2 -19   67.15    7.84
  -2   6 -18  214.04   12.57
  -2   6 -18  219.30   11.34
  -6  -2 -18  248.25   14.67
  -2   6 -17   15.16    3.33
  -2   6 -17   14.53    2.93
  -6  -2 -17    6.86    2.52
  -2   6 -16   12.53    3.01
  -2   6 -16    5.72    1.83
  -6  -2 -16   10.10    3.18
  -2   6 -15   38.60    4.96
  -2   6 -15   36.94    4.73
  -6  -2 -15   31.49    5.19
  -2   6 -14  241.24   12.19
  -2   6 -14  252.23   12.62
  -6  -2 -14  259.27   14.75
  -2   6 -13   70.36    6.37
  -2   6 -13   69.94    6.67
  -6  -2 -13   57.44    6.98
  -2   6 -12   21.78    3.52
  -2   6 -12   18.42    3.56
  -6  -2 -12   14.97    3.75
  -2   6 -11   93.66    7.80
  -6  -2 -11   75.95    7.82
  -2   6 -11   88.83    6.72
  -2   6 -10   90.38    7.84
  -6  -2 -10  124.00   10.02
  -2   6 -10   87.68    6.51
  -2   6  -9   75.91    7.15
  -2   6  -9   74.46    5.76
  -6  -2  -9   67.20    7.39
  -2   6  -8   12.76    2.39
  -2   6  -8   12.22    3.02
  -6  -2  -8    6.07    2.14
  -2   6  -7  221.36   12.37
  -6  -2  -7  202.56   12.80
  -2   6  -7  216.48    9.33
  -2   6  -6  144.77   10.06
  -6  -2  -6  179.13   11.97
  -2   6  -6  142.34    7.23
  -2   6  -5   62.29    6.56
  -2   6  -5   64.41    4.57
  -6  -2  -5   49.60    6.27
  -2   6  -4    3.63    1.09
  -2   6  -4    4.93    2.27
  -6  -2  -4    6.63    2.63
  -2   6  -3   81.46    7.64
   2  -6  -3   96.46    8.22
  -6  -2  -3   68.34    7.37
  -2   6  -3   87.47    4.73
  -2   6  -2  253.58   13.76
   2  -6  -2  251.82   13.21
  -6  -2  -2  261.05   14.45
  -2   6  -2  264.33    7.99
  -2   6  -1  103.21    8.70
  -2   6  -1   94.29    4.15
   2  -6  -1   81.10    7.33
  -6  -2  -1   85.69    8.17
  -2   6   0   45.02    5.81
  -2   6   0   41.52    2.31
   2  -6   0   38.42    4.94
  -6  -2   0   37.02    5.45
  -2   6   1   94.58    8.46
   2  -6   1  104.39    8.07
  -6  -2   1   99.52    8.81
  -2   6   2  232.71   13.40
   2  -6   2  238.41   12.23
  -6  -2   2  260.03   14.35
  -2   6   3   88.57    8.33
   2  -6   3   89.50    7.26
  -6  -2   3   75.93    7.71
  -2   6   4   -0.25    1.10
  -6  -2   4    7.19    2.70
   2  -6   4    2.88    1.55
  -2   6   5   47.41    6.14
   2  -6   5   54.90    5.51
  -6  -2   5   41.57    5.80
  -2   6   6  149.32   10.98
   2  -6   6  132.44    8.46
  -6  -2   6  184.47   11.97
  -2   6   7  219.60   13.50
   2  -6   7  207.03   10.38
  -6  -2   7  209.65   13.07
  -2   6   8    8.49    3.12
  -6  -2   8    7.34    2.87
   2  -6   8   10.56    2.43
  -2   6   9   59.32    7.04
   2  -6   9   65.00    5.51
  -6  -2   9   58.82    6.83
  -2   6  10   83.04    8.46
   2  -6  10   78.42    5.96
  -6  -2  10   99.26    8.89
  -2   6  11   86.92    8.73
   2  -6  11   79.40    5.79
  -6  -2  11   76.64    7.80
  -2   6  12   23.21    4.71
  -6  -2  12   11.39    2.95
   2  -6  12   19.52    2.81
  -2   6  13   70.30    8.03
  -6  -2  13   58.43    6.93
   2  -6  13   74.59    5.26
  -2   6  14  227.71   14.34
  -6  -2  14  256.95   14.66
   2  -6  14  232.69    9.15
  -2   6  15   45.65    6.52
   2  -6  15   46.95    3.77
  -6  -2  15   39.98    5.84
  -2   6  16    7.11    2.84
   2  -6  16    6.39    1.37
  -6  -2  16    4.06    1.77
  -2   6  17   12.97    3.80
   2  -6  17   14.07    1.82
  -6  -2  17    9.73    3.13
  -2   6  18  250.12   15.53
   2  -6  18  208.10    6.36
  -6  -2  18  255.95   14.82
  -2   6  19   73.27    8.17
  -6  -2  19   61.34    7.35
   2  -6  19   58.18    2.40
  -2   6  20    3.62    2.56
  -6  -2  20   -1.17    1.77
  -2   6  21   29.54    5.52
  -6  -2  21   30.55    5.38
  -2   6  22   21.02    4.82
  -6  -2  22   22.24    4.67
  -2   6  23  145.53   12.08
  -6  -2  23  133.53   11.05
  -2   6  24    7.40    3.14
  -6  -2  24   11.33    3.61
  -2   6  25   50.26    7.31
  -6  -2  25   51.32    7.00
  -2   6  26   42.96    7.03
  -6  -2  26   44.96    6.61
  -2   6  27   15.93    4.10
  -6  -2  27   12.38    3.73
  -2   6  28   13.37    3.90
  -6  -2  28   10.77    3.18
  -2   6  29   53.50    7.72
  -6  -2  29   47.31    6.93
  -2   6  30   65.13    8.59
  -6  -2  30   67.74    8.16
  -2   6  31   13.77    4.25
  -6  -2  31   10.72    3.10
  -2   6  32    0.22    1.67
  -6  -2  32    3.78    2.19
  -2   6  33   31.26    6.21
  -6  -2  33   32.71    5.92
  -2   6  34   53.50    8.36
  -6  -2  34   75.50    8.90
  -2   6  35   25.64    5.76
  -6  -2  35   22.42    4.87
  -2   6  36    4.44    3.10
  -6  -2  36    0.35    2.01
  -2   6  37   16.33    4.67
  -2   6  38   45.15    7.58
  -2   6  39   20.14    5.43
  -6  -3 -37    4.03    2.45
  -6  -3 -36   48.06    7.48
  -6  -3 -35   14.20    4.22
  -3   6 -34    3.17    2.54
  -6  -3 -34    3.92    2.19
  -6  -3 -34    1.94    2.28
  -3   6 -33   18.90    5.11
  -6  -3 -33   26.31    6.31
  -6  -3 -33   20.03    4.88
  -6  -3 -32   63.05    9.13
  -3   6 -32   76.35    9.82
  -6  -3 -32   64.53    8.50
  -6  -3 -31   22.95    5.36
  -3   6 -31   21.47    5.44
  -6  -3 -31   21.58    5.13
  -6  -3 -30    9.09    3.33
  -3   6 -30    9.10    3.71
  -6  -3 -30    8.32    3.30
  -6  -3 -29   17.22    4.66
  -3   6 -29   11.83    3.67
  -6  -3 -29   23.33    4.98
  -6  -3 -28   69.04    9.26
  -3   6 -28   78.56    9.39
  -6  -3 -28   77.28    9.14
  -6  -3 -27   18.11    4.86
  -3   6 -27   15.44    4.53
  -6  -3 -27   12.69    3.86
  -3   6 -26    0.73    1.35
  -6  -3 -26    5.29    2.91
  -3   6 -25   18.37    4.25
  -6  -3 -25   22.32    4.87
  -3   6 -24   46.18    6.82
  -6  -3 -24   38.61    6.23
  -3   6 -23    9.57    3.32
  -3   6 -23    9.51    2.29
  -6  -3 -23   13.97    3.92
  -3   6 -22    0.47    1.25
  -3   6 -22    1.57    1.17
  -6  -3 -22    0.68    1.38
  -3   6 -21   14.60    3.86
  -3   6 -21   11.66    2.63
  -6  -3 -21   12.01    3.64
  -3   6 -20  103.20    9.41
  -3   6 -20   95.16    7.41
  -6  -3 -20   93.50    9.56
  -3   6 -19  105.34    9.33
  -3   6 -19  102.36    7.83
  -6  -3 -19  108.51   10.18
  -3   6 -18    8.84    3.13
  -3   6 -18    7.64    2.24
  -6  -3 -18    8.22    3.26
  -3   6 -17   25.67    4.64
  -3   6 -17   22.46    4.03
  -6  -3 -17   50.57    7.02
  -3   6 -16  578.94   21.12
  -3   6 -16  597.17   20.43
  -6  -3 -16  551.89   23.16
  -3   6 -15   44.40    5.81
  -3   6 -15   47.97    5.73
  -6  -3 -15   76.73    8.51
  -3   6 -15   48.94    5.95
  -3   6 -14   50.17    5.72
  -3   6 -14   50.80    5.84
  -6  -3 -14   64.46    7.76
  -3   6 -14   52.90    6.00
  -3   6 -13   42.03    5.23
  -3   6 -13   37.80    4.99
  -6  -3 -13   49.01    6.72
  -3   6 -13   35.73    4.77
  -3   6 -12  121.87    8.50
  -3   6 -12  126.70    9.32
  -3   6 -12  119.78    8.48
  -6  -3 -12   99.57    9.47
  -3   6 -11   13.11    2.76
  -3   6 -11    9.68    2.79
  -6  -3 -11   21.88    4.56
  -3   6 -11   13.79    3.00
  -3   6 -10    6.70    2.06
  -3   6 -10    9.41    2.81
  -6  -3 -10   11.07    3.21
  -3   6 -10    9.46    2.31
  -3   6  -9   12.89    2.75
  -3   6  -9   16.78    3.57
  -6  -3  -9   19.59    4.33
  -3   6  -9   11.91    2.44
  -3   6  -8   84.48    6.33
  -3   6  -8   85.70    7.86
  -3   6  -8   75.48    6.00
  -6  -3  -8   77.36    8.20
  -3   6  -7   13.39    2.48
  -3   6  -7   13.50    3.12
  -6  -3  -7    9.61    3.01
  -3   6  -7    8.22    1.93
  -3   6  -6    5.19    1.64
  -3   6  -6    5.34    2.16
  -6  -3  -6    7.49    2.58
  -3   6  -6    4.53    1.50
  -3   6  -5   42.80    4.07
  -3   6  -5   46.98    5.97
  -3   6  -5   41.13    4.05
  -6  -3  -5   52.27    6.71
  -3   6  -4  122.54    9.69
  -3   6  -4  128.27    6.84
  -6  -3  -4  102.45    9.37
  -3   6  -4  124.56    6.79
  -3   6  -3   50.83    6.24
  -3   6  -3   52.70    4.23
  -6  -3  -3   65.67    7.55
  -3   6  -3   53.52    4.25
  -3   6  -2    1.56    0.94
  -3   6  -2    3.72    2.19
  -6  -3  -2    3.09    2.01
  -3   6  -2    2.38    1.00
  -3   6  -1  124.03   10.00
  -3   6  -1  122.83    5.93
  -6  -3  -1  156.32   11.42
  -3   6  -1  124.83    6.02
  -3   6   0  406.40   18.27
  -3   6   0  403.31   10.73
   3  -6   0  406.38   17.09
  -6  -3   0  343.05   17.32
  -3   6   0  396.68   10.74
  -3   6   1  112.24    9.72
  -3   6   1  123.20    5.28
  -6  -3   1  148.93   11.17
   3  -6   1  126.78    9.19
  -3   6   1  117.45    5.25
  -3   6   2    7.59    3.01
  -3   6   2    2.38    0.83
   3  -6   2    3.33    1.60
  -3   6   2    4.02    1.00
  -6  -3   2    5.63    2.50
  -3   6   3   48.79    6.35
  -3   6   3   50.83    2.82
   3  -6   3   45.02    5.29
  -6  -3   3   64.24    7.34
  -3   6   3   51.49    2.87
  -3   6   4  115.44    9.86
  -3   6   4  108.54    3.69
   3  -6   4  119.46    8.54
  -6  -3   4   98.07    8.96
  -3   6   4  113.35    3.80
  -3   6   5   41.27    5.95
   3  -6   5   37.74    4.77
  -6  -3   5   32.67    5.28
  -3   6   6    4.92    2.31
   3  -6   6    4.45    1.73
  -6  -3   6    9.99    3.06
  -3   6   7   11.20    3.23
   3  -6   7    7.58    2.12
  -6  -3   7    9.49    3.03
  -3   6   8   92.54    8.97
  -6  -3   8   81.73    8.21
   3  -6   8   84.44    6.69
  -3   6   9   13.29    3.59
   3  -6   9   13.65    2.69
  -6  -3   9   14.07    3.52
  -3   6  10    9.08    3.30
   3  -6  10    5.27    1.74
  -6  -3  10    8.21    2.69
  -3   6  11   15.78    4.14
  -6  -3  11   22.69    4.54
   3  -6  11   14.04    2.53
  -3   6  12  126.11   10.83
  -6  -3  12  111.46    9.69
   3  -6  12  116.63    7.23
  -3   6  13   44.37    6.57
   3  -6  13   43.54    4.23
  -6  -3  13   42.05    5.99
  -3   6  14   73.91    8.34
   3  -6  14   51.85    4.45
  -6  -3  14   71.54    7.75
  -3   6  15   60.86    7.94
  -6  -3  15   84.77    8.62
   3  -6  15   48.05    4.19
  -3   6  16  594.71   24.70
  -6  -3  16  517.38   21.84
   3  -6  16  572.27   14.61
  -3   6  17   28.78    5.54
  -6  -3  17   42.86    6.21
  -3   6  18    5.59    2.63
  -6  -3  18    5.59    2.49
  -3   6  19  114.02   10.88
  -6  -3  19  104.44    9.59
  -3   6  20   99.73   10.27
  -6  -3  20   81.99    8.57
  -3   6  21   11.21    3.85
  -6  -3  21   13.14    3.49
  -3   6  22    0.39    1.15
  -6  -3  22    1.16    1.07
  -3   6  23   15.46    4.17
  -6  -3  23   14.82    3.77
  -3   6  24   52.45    7.56
  -6  -3  24   36.55    5.91
  -3   6  25   18.78    4.77
  -6  -3  25   22.02    4.68
  -3   6  26    3.35    2.98
  -6  -3  26    2.96    1.94
  -3   6  27   15.08    4.22
  -6  -3  27   20.32    4.69
  -3   6  28   81.80    9.88
  -6  -3  28   68.90    8.19
  -3   6  29   15.17    4.49
  -6  -3  29   23.78    5.28
  -3   6  30    4.46    2.47
  -6  -3  30    7.46    3.01
  -3   6  31   28.70    6.20
  -6  -3  31   20.50    4.48
  -3   6  32   66.35    9.06
  -6  -3  32   60.58    7.90
  -3   6  33   20.65    5.48
  -6  -3  33   25.16    5.04
  -3   6  34    2.40    1.91
  -6  -3  34    3.50    2.92
  -3   6  35   13.80    4.63
  -3   6  36   55.92    8.54
  -3   6  37    2.46    2.78
  -6  -4 -34   -1.84    2.50
  -6  -4 -34    5.06    2.51
  -6  -4 -33   19.54    5.66
  -6  -4 -33   23.10    5.66
  -6  -4 -32   69.22    9.47
  -4   6 -32   52.20    8.59
  -6  -4 -32   65.45    9.17
  -6  -4 -31   14.36    4.92
  -4   6 -31   24.53    5.92
  -6  -4 -31   16.44    4.98
  -6  -4 -30   -0.14    1.31
  -4   6 -30   -0.08    1.28
  -6  -4 -30    2.22    1.87
  -6  -4 -29   -1.45    1.83
  -4   6 -29   -0.12    1.82
  -6  -4 -29    3.86    2.66
  -6  -4 -28   95.83   10.82
  -4   6 -28   96.52   10.75
  -6  -4 -28   98.49   10.86
  -6  -4 -27   -1.26    1.80
  -4   6 -27    3.05    2.79
  -6  -4 -27    1.65    2.39
  -4   6 -26    6.19    2.95
  -6  -4 -26    2.85    2.44
  -4   6 -25    5.12    2.86
  -6  -4 -25   12.16    4.37
  -4   6 -24   58.48    7.78
  -6  -4 -24   61.59    8.33
  -4   6 -23   19.06    4.59
  -6  -4 -23   17.72    4.44
  -4   6 -22   -1.01    1.17
  -4   6 -22    0.59    0.66
  -6  -4 -22    1.97    1.92
  -4   6 -21   64.55    7.85
  -4   6 -21   76.94    6.83
  -6  -4 -21   59.85    8.18
  -4   6 -20  105.00    9.81
  -4   6 -20  106.20    8.29
  -6  -4 -20  120.11   11.19
  -4   6 -19   42.27    6.12
  -4   6 -19   39.21    5.06
  -6  -4 -19   25.34    5.31
  -4   6 -18    4.85    2.35
  -4   6 -18    0.42    0.74
  -6  -4 -18    1.22    2.20
  -4   6 -17   16.52    3.92
  -4   6 -17   15.24    3.30
  -6  -4 -17   11.37    3.83
  -4   6 -16  177.45   11.92
  -4   6 -16  170.23   10.95
  -6  -4 -16  178.90   13.54
  -4   6 -15   48.07    6.17
  -4   6 -15   52.11    6.10
  -6  -4 -15   42.03    6.59
  -4   6 -14   21.58    4.22
  -4   6 -14   18.40    3.75
  -6  -4 -14   14.75    4.19
  -4   6 -13   70.60    7.07
  -4   6 -13   60.84    6.73
  -4   6 -13   60.85    6.58
  -6  -4 -13   46.09    6.77
  -4   6 -12  239.85   13.00
  -4   6 -12  226.87   13.19
  -6  -4 -12  260.14   16.17
  -4   6 -12  229.50   12.65
  -4   6 -11   86.73    7.48
  -4   6 -11   77.34    7.71
  -6  -4 -11   77.25    8.76
  -4   6 -11   86.14    7.47
  -4   6 -10   17.52    3.51
  -4   6 -10   17.10    3.78
  -6  -4 -10   21.98    4.82
  -4   6 -10   16.61    3.35
  -4   6  -9   21.47    3.59
  -4   6  -9   27.06    4.69
  -4   6  -9   29.23    4.19
  -6  -4  -9   21.40    4.57
  -4   6  -8   59.13    5.85
  -4   6  -8   55.47    6.69
  -6  -4  -8   66.07    8.02
  -4   6  -8   59.15    5.78
  -4   6  -7   12.81    2.63
  -4   6  -7   12.78    3.52
  -6  -4  -7    6.59    2.76
  -4   6  -7   10.69    2.49
  -4   6  -6    0.90    0.83
  -4   6  -6    0.25    1.17
  -4   6  -6    2.50    1.29
  -6  -4  -6    2.54    2.17
  -4   6  -5   42.29    4.56
  -4   6  -5   44.05    6.05
  -6  -4  -5   28.30    5.31
  -4   6  -5   40.69    4.49
  -4   6  -4  194.91    9.64
  -4   6  -4  174.49   12.06
  -4   6  -4  186.92    9.54
  -6  -4  -4  223.39   14.36
  -4   6  -3   54.01    4.87
  -4   6  -3   47.50    6.31
  -6  -4  -3   45.60    6.50
  -4   6  -3   51.37    4.82
  -4   6  -2   37.86    3.98
  -4   6  -2   35.43    5.48
  -6  -4  -2   37.44    5.80
  -4   6  -2   36.12    3.90
  -4   6  -1   45.15    4.22
  -4   6  -1   48.93    6.57
  -6  -4  -1   32.29    5.48
  -4   6  -1   38.09    3.92
  -4   6   0  148.00   11.39
  -4   6   0  159.76    7.80
  -6  -4   0  178.33   12.71
  -4   6   0  150.84    7.61
  -4   6   1   45.33    3.99
  -4   6   1   42.33    6.15
  -6  -4   1   36.71    5.92
  -4   6   1   44.94    4.02
  -4   6   2   27.48    3.02
  -4   6   2   33.77    5.61
  -6  -4   2   30.78    5.27
  -4   6   2   28.93    3.08
  -4   6   3   52.30    7.13
  -4   6   3   55.25    4.18
  -6  -4   3   57.37    7.21
  -4   6   3   51.77    4.02
  -4   6   4  200.41   13.60
  -4   6   4  205.78    8.02
  -6  -4   4  226.74   14.22
   4  -6   4  178.38   11.13
  -4   6   4  192.95    7.80
  -4   6   5   47.75    6.63
  -4   6   5   41.78    3.41
   4  -6   5   42.73    5.34
  -6  -4   5   34.90    5.71
  -4   6   5   39.02    3.32
  -4   6   6    7.54    3.10
   4  -6   6    2.61    1.51
  -6  -4   6    0.81    1.20
  -4   6   7   14.64    3.95
   4  -6   7    8.08    2.34
  -6  -4   7    7.67    3.09
  -4   6   8   68.43    8.14
  -4   6   8   55.77    3.67
   4  -6   8   58.06    5.96
  -6  -4   8   65.98    7.59
  -4   6   9   18.89    2.08
  -4   6   9   24.77    4.94
   4  -6   9   22.08    3.62
  -6  -4   9   15.82    3.88
  -4   6  10   17.22    4.40
   4  -6  10   14.61    2.94
  -6  -4  10   24.56    4.80
  -4   6  11   89.04    9.45
  -6  -4  11   64.33    7.64
   4  -6  11   83.35    6.66
  -4   6  12  238.84   15.71
   4  -6  12  216.93   10.71
  -6  -4  12  264.55   15.47
  -4   6  13   65.03    8.21
   4  -6  13   59.89    5.46
  -6  -4  13   49.59    6.74
  -4   6  13   61.47    3.73
  -4   6  14   25.70    5.31
  -6  -4  14    9.43    2.99
  -4   6  14   19.34    2.13
  -4   6  15   58.51    7.85
  -6  -4  15   49.10    6.63
  -4   6  16  161.17   13.07
  -6  -4  16  169.21   12.49
  -6  -4  17   10.55    3.20
  -4   6  17   17.05    4.29
  -6  -4  18    1.28    1.43
  -4   6  18    0.27    1.56
  -6  -4  19   39.93    6.30
  -4   6  19   48.05    7.44
  -4   6  20  107.63   11.02
  -6  -4  20  133.81   11.12
  -4   6  21   83.88    9.81
  -6  -4  21   58.81    7.40
  -4   6  22    3.61    2.71
  -6  -4  22    1.54    1.78
  -4   6  23   22.76    5.35
  -6  -4  23   16.59    4.30
  -4   6  24   65.54    8.90
  -6  -4  24   58.34    7.43
  -4   6  25    9.99    3.70
  -6  -4  25   12.24    3.88
  -4   6  26    6.95    3.52
  -6  -4  26    7.14    2.75
  -4   6  27   -0.17    1.94
  -6  -4  27   -1.30    1.58
  -4   6  28   90.42   10.72
  -6  -4  28   91.54    9.45
  -4   6  29   -2.04    2.56
  -6  -4  29    3.95    2.47
  -4   6  30   -0.77    1.70
  -6  -4  30    1.20    1.78
  -4   6  31   13.45    4.18
  -6  -4  31   12.07    3.76
  -4   6  32   67.96    9.63
  -4   6  33   25.87    6.13
  -6  -5 -33   21.39    6.01
  -6  -5 -32    6.93    3.31
  -6  -5 -31   23.67    5.85
  -6  -5 -30   62.12    8.98
  -5   6 -30   72.37   10.16
  -5   6 -29   31.58    6.82
  -6  -5 -29   40.09    7.28
  -5   6 -28    2.58    2.74
  -6  -5 -28    1.85    2.25
  -6  -5 -28    6.15    3.59
  -5   6 -27   18.04    4.96
  -6  -5 -27   17.71    4.48
  -6  -5 -27   29.87    6.54
  -5   6 -26   52.63    8.13
  -6  -5 -26   43.74    7.47
  -5   6 -25   27.58    5.75
  -6  -5 -25   41.35    7.29
  -5   6 -24    1.34    2.18
  -6  -5 -24    9.49    3.77
  -5   6 -23   12.79    4.06
  -6  -5 -23   18.10    4.90
  -5   6 -22   21.25    4.90
  -6  -5 -22   19.13    4.80
  -5   6 -21    2.96    2.35
  -6  -5 -21    3.94    2.92
  -5   6 -20    1.07    1.43
  -5   6 -20    0.12    0.78
  -6  -5 -20    3.87    2.76
  -5   6 -19   25.66    5.25
  -5   6 -19   24.93    4.30
  -6  -5 -19   28.98    5.84
  -5   6 -18   61.54    7.70
  -5   6 -18   58.15    6.63
  -6  -5 -18   50.19    7.64
  -5   6 -17   12.08    3.38
  -5   6 -17   11.92    3.28
  -6  -5 -17   22.81    5.29
  -5   6 -16    7.18    2.74
  -5   6 -16    7.05    2.50
  -6  -5 -16    9.87    3.33
  -5   6 -15   39.93    6.05
  -5   6 -15   38.95    5.64
  -6  -5 -15   51.97    7.69
  -5   6 -14  135.72   10.68
  -5   6 -14  121.31    9.87
  -6  -5 -14  113.45   11.09
  -5   6 -13   47.99    6.24
  -5   6 -13   52.28    6.53
  -6  -5 -13   53.92    7.71
  -5   6 -12    9.36    2.87
  -5   6 -12    5.04    2.32
  -6  -5 -12   11.53    3.90
  -5   6 -11   19.70    4.05
  -5   6 -11   22.66    4.47
  -6  -5 -11   31.45    6.05
  -5   6 -10   62.55    6.76
  -5   6 -10   51.34    6.52
  -6  -5 -10   45.41    6.97
  -5   6  -9   77.51    7.32
  -5   6  -9   76.65    8.20
  -6  -5  -9   82.43    9.33
  -5   6  -8    2.49    1.30
  -5   6  -8    1.03    1.76
  -6  -5  -8    4.24    2.52
  -5   6  -7   41.24    5.21
  -5   6  -7   38.74    6.03
  -6  -5  -7   56.41    7.67
  -5   6  -7   41.81    5.17
  -5   6  -6   34.54    4.73
  -5   6  -6   34.22    5.58
  -6  -5  -6   37.38    6.48
  -5   6  -6   40.67    5.12
  -5   6  -5   42.84    5.16
  -5   6  -5   33.97    5.65
  -6  -5  -5   49.85    7.10
  -5   6  -5   39.73    4.94
  -5   6  -4    2.44    1.67
  -5   6  -4    2.08    1.95
  -6  -5  -4    7.11    2.83
  -5   6  -4    2.93    1.81
  -5   6  -3  126.35    8.51
  -5   6  -3  128.28   11.00
  -5   6  -3  122.23    8.38
  -6  -5  -3  136.90   11.76
  -5   6  -2  146.59    8.95
  -5   6  -2  143.69   11.82
  -5   6  -2  136.34    8.72
  -6  -5  -2  109.98   10.65
  -5   6  -1   22.99    3.47
  -5   6  -1   32.34    5.74
  -6  -5  -1   33.49    5.88
  -5   6  -1   30.03    4.00
  -5   6   0   10.61    3.52
  -6  -5   0   15.42    4.15
  -5   6   1   27.83    5.35
  -6  -5   1   38.80    6.23
  -5   6   2  144.03   11.88
  -6  -5   2  112.52   10.50
  -5   6   3  123.85   11.19
  -6  -5   3  140.55   11.76
  -5   6   4    8.49    3.43
  -6  -5   4    8.62    3.28
  -5   6   5   43.98    6.57
  -6  -5   5   44.73    6.65
  -5   6   6   41.19    6.60
  -6  -5   6   36.14    6.07
  -5   6   7   53.23    7.52
  -6  -5   7   59.14    7.57
  -5   6   8    2.29    1.72
  -6  -5   8    6.14    2.78
  -5   6   9   80.90    9.30
  -6  -5   9   81.08    8.93
  -5   6  10   60.27    8.01
  -6  -5  10   45.68    6.71
  -5   6  11   19.43    4.77
  -6  -5  11   28.71    5.17
  -5   6  12    4.05    2.49
  -6  -5  12    4.81    2.49
  -5   6  13   56.03    8.12
  -6  -5  13   62.51    7.79
  -5   6  14  143.02   12.79
  -6  -5  14  106.08   10.19
  -5   6  15   48.68    7.54
  -6  -5  15   43.31    6.44
  -5   6  16    2.67    2.52
  -6  -5  16    7.03    2.83
  -5   6  17   13.56    4.01
  -6  -5  17   16.11    4.25
  -5   6  18   53.20    7.96
  -6  -5  18   46.49    6.76
  -5   6  19   22.52    5.20
  -6  -5  19   17.21    4.16
  -5   6  20    1.72    1.33
  -6  -5  20    3.50    1.91
  -5   6  21    6.98    3.85
  -6  -5  21    3.15    2.22
  -5   6  22   23.51    5.44
  -6  -5  22   19.81    4.42
  -5   6  23   15.53    4.67
  -6  -5  23   13.77    3.99
  -5   6  24    5.46    3.31
  -6  -5  24   11.46    4.38
  -5   6  25   25.30    5.95
  -6  -5  25   40.70    6.40
  -5   6  26   54.07    8.64
  -6  -5  26   41.20    6.38
  -5   6  27   21.37    5.28
  -6  -5  27   23.44    4.81
  -6  -5  28    1.05    1.84
  -6   6 -27   10.93    4.63
  -6   6 -26   51.02    8.18
  -6  -6 -26   41.93    7.01
  -6   6 -25   10.77    3.92
  -6  -6 -25    8.45    3.82
  -6   6 -24    5.39    3.46
  -6   6 -23   13.57    4.26
  -6   6 -22   38.64    6.79
  -6   6 -21   14.07    4.45
  -6  -6 -21    7.90    3.79
  -6   6 -20    0.58    2.09
  -6  -6 -20   -0.29    1.91
  -6   6 -19   10.63    3.80
  -6  -6 -19   10.58    4.30
  -6   6 -18   49.00    7.33
  -6   6 -18   65.54    7.45
  -6  -6 -18   60.91    9.06
  -6   6 -17   10.19    3.55
  -6   6 -17    7.02    2.38
  -6  -6 -17    8.36    3.51
  -6   6 -16    1.46    1.51
  -6   6 -16    0.39    0.97
  -6  -6 -16    6.51    3.50
  -6   6 -15    8.09    2.80
  -6   6 -15    6.53    2.75
  -6  -6 -15    5.73    3.06
  -6   6 -14   76.28    8.47
  -6   6 -14   71.63    8.13
  -6  -6 -14   72.37    9.60
  -6   6 -13    6.29    2.70
  -6   6 -13    2.55    1.70
  -6  -6 -13    7.36    3.68
  -6   6 -12    2.67    2.05
  -6   6 -12   -0.01    1.18
  -6  -6 -12    2.22    2.31
  -6   6 -11    9.19    2.93
  -6   6 -11    6.19    2.56
  -6  -6 -11    3.78    2.36
  -6   6 -10   39.36    5.82
  -6   6 -10   40.07    6.35
  -6  -6 -10   45.08    7.38
  -6   6  -9   24.99    4.67
  -6   6  -9   30.05    5.54
  -6  -6  -9   32.42    6.26
  -6   6  -8   24.79    4.59
  -6   6  -8   25.52    5.10
  -6  -6  -8   27.90    5.74
  -6   6  -7   48.82    6.23
  -6   6  -7   53.09    7.41
  -6  -6  -7   43.58    6.95
  -6   6  -6   48.76    6.12
  -6   6  -6   48.98    7.13
  -6  -6  -6   66.09    8.80
  -6   6  -5   25.39    4.34
  -6   6  -5   21.00    4.66
  -6  -6  -5   15.28    4.50
  -6   6  -4   -0.58    1.20
  -6  -6  -4    4.17    2.54
  -6   6  -3   31.63    5.84
  -6  -6  -3   29.30    5.93
  -6   6  -2   94.46    9.93
  -6  -6  -2  111.94   11.18
  -6   6  -1   16.81    4.35
  -6  -6  -1   18.64    4.51
  -6   6   0    1.17    1.68
  -6  -6   0   -0.11    1.67
  -6   6   1   23.91    5.22
  -6  -6   1   21.69    4.98
  -6   6   2  103.25   10.65
  -6  -6   2  108.60   10.79
  -6   6   3   25.32    5.29
  -6  -6   3   21.98    5.07
  -6   6   4    1.35    1.36
  -6  -6   4    0.35    1.34
  -6   6   5   22.52    5.30
  -6  -6   5   18.24    4.65
  -6   6   6   44.01    7.34
  -6  -6   6   57.31    8.00
  -6   6   7   46.59    7.40
  -6  -6   7   33.94    6.03
  -6   6   8   27.21    5.76
  -6  -6   8   30.69    5.72
  -6   6   9   33.09    6.30
  -6  -6   9   32.14    6.15
  -6   6  10   37.19    6.73
  -6  -6  10   51.03    7.29
  -6   6  11    4.34    2.78
  -6  -6  11    4.03    2.75
  -6   6  12   -0.98    1.77
  -6  -6  12    0.27    1.65
  -6   6  13    7.08    3.27
  -6  -6  13    9.93    3.52
  -6   6  14   75.96    9.80
  -6  -6  14   74.80    8.81
  -6  -6  15    6.40    2.78
  -6   6  15   14.98    4.57
  -6  -6  16    1.22    1.54
  -6   6  16    0.92    1.58
  -6  -6  17    7.21    2.86
  -6   6  17   10.45    3.86
  -6   6  18   64.82    9.34
  -6  -6  18   55.51    7.59
  -6   6  19   11.68    4.32
  -6  -6  19    2.69    2.22
  -6   6  20    0.80    1.65
  -6  -6  20    2.50    2.10
  -6  -6  21    9.58    3.45
  -6  -6  22   42.26    6.64
  -6  -6  23   13.86    4.05
  -6  -6  24    5.74    2.88
  -7   6 -23   40.73    7.53
  -7   6 -22    1.97    2.59
  -7   6 -21   40.60    7.48
  -7   6 -20    6.06    3.44
  -7   6 -19   15.33    4.17
  -7   6 -18    0.24    1.69
  -7   6 -17   22.81    5.25
  -7   6 -16    9.12    3.74
  -7   6 -16   16.38    4.35
  -7   6 -15   15.66    4.36
  -7   6 -15   13.87    3.87
  -7   6 -14    5.12    2.65
  -7   6 -14    3.03    1.83
  -7   6 -13   19.82    4.76
  -7   6 -13   17.54    4.57
  -7   6 -12    3.76    2.21
  -7   6 -12    3.54    1.86
  -6  -7 -12    0.21    1.57
  -7   6 -11   45.20    6.79
  -7   6 -11   46.44    7.34
  -7   6 -11   39.99    5.94
  -6  -7 -11   52.58    8.49
  -7   6 -10    4.16    2.16
  -7   6 -10    3.79    2.67
  -7   6 -10    2.21    1.73
  -6  -7 -10    5.02    3.09
  -7   6  -9   22.93    4.85
  -7   6  -9   15.45    4.22
  -7   6  -9   22.77    4.86
  -6  -7  -9   18.89    4.94
  -7   6  -8    7.39    2.55
  -7   6  -8   18.24    4.57
  -7   6  -8   12.64    3.43
  -6  -7  -8    5.40    3.08
  -7   6  -7   35.87    5.81
  -7   6  -7   29.60    5.89
  -7   6  -7   27.77    5.34
  -6  -7  -7   32.33    6.42
  -7   6  -6    1.69    1.68
  -7   6  -6    4.60    2.74
  -6  -7  -6   -1.15    2.02
  -7   6  -5   32.33    6.24
  -7   6  -5   29.89    5.59
  -6  -7  -5   39.75    7.13
  -7   6  -4   17.98    4.72
  -7   6  -4   18.62    4.69
  -6  -7  -4   13.95    4.42
  -7   6  -3   18.86    4.93
  -7   6  -3   17.89    4.42
  -6  -7  -3   13.14    4.33
  -7   6  -2    0.66    1.76
  -7   6  -2    0.11    1.66
  -6  -7  -2    4.85    2.79
  -7   6  -1   29.66    6.28
  -7   6  -1   32.13    5.96
  -6  -7  -1   34.94    6.70
  -7   6   0   37.58    6.81
  -7   6   0   34.53    6.06
  -6  -7   0   26.08    5.91
  -7   6   1   29.98    6.09
  -7   6   1   34.04    6.02
  -6  -7   1   41.36    7.21
  -7   6   2    2.34    2.31
  -7   6   2   -1.58    1.25
  -7   6   3   17.02    4.78
  -7   6   3   12.39    3.95
  -6  -7   3   17.68    4.45
  -7   6   4   17.71    4.93
  -7   6   4   18.06    4.92
  -6  -7   4   11.79    4.08
  -7   6   5   39.14    7.02
  -7   6   5   39.94    7.00
  -6  -7   5   28.99    5.89
  -7   6   6    3.46    2.89
  -7   6   6    7.51    3.65
  -6  -7   6    6.47    2.83
  -7   6   7   24.69    5.88
  -7   6   7   29.92    6.09
  -6  -7   7   28.18    5.83
  -7   6   8   13.65    4.53
  -7   6   8   17.24    4.65
  -6  -7   8    7.62    3.21
  -7   6   9   17.15    4.82
  -6  -7   9   21.72    5.28
  -7   6  10    7.40    3.49
  -6  -7  10    6.85    3.47
  -7   6  11   48.44    8.01
  -6  -7  11   45.77    7.41
  -7   6  12   10.51    3.98
  -6  -7  12    7.32    3.10
  -6  -7  13   25.04    5.63
  -6  -7  14    9.34    3.74
  -6  -7  15   11.93    3.57
  -6  -7  16    8.01    3.47
  -6  -7  17   21.46    5.09
  -6  -7  18    0.14    1.61
  -6  -7  19   15.19    4.24
  -6  -7  20   -0.74    1.36
  -6  -7  21   41.76    6.90
  -7   5 -24   40.86    7.33
  -7   5 -23   23.23    5.87
  -7   5 -22    0.54    1.90
  -7   5 -21   24.37    5.90
  -7   5 -20   17.77    4.96
  -7   5 -19   23.19    5.40
  -7   5 -18    2.24    2.34
  -7   5 -18    4.99    2.31
  -5  -7 -18    0.74    1.39
  -7   5 -17    5.61    3.03
  -7   5 -17    5.49    2.25
  -5  -7 -17   12.89    4.56
  -7   5 -16   55.40    7.94
  -7   5 -16   49.12    6.66
  -5  -7 -16   40.11    7.42
  -7   5 -15   22.66    4.45
  -7   5 -15   19.92    4.83
  -7   5 -15   20.38    4.10
  -5  -7 -15   26.26    5.75
  -7   5 -14   12.58    3.79
  -7   5 -14   10.51    3.22
  -7   5 -14   13.26    3.63
  -5  -7 -14   14.52    4.42
  -7   5 -13   16.14    4.21
  -7   5 -13   17.37    4.46
  -7   5 -13   19.89    4.05
  -5  -7 -13   15.47    4.60
  -7   5 -12   44.67    6.85
  -7   5 -12   46.32    6.20
  -5  -7 -12   35.59    6.79
  -7   5 -11   22.33    4.92
  -7   5 -11   21.42    4.40
  -5  -7 -11   21.24    5.36
  -7   5 -10   10.48    3.65
  -7   5 -10    3.45    1.99
  -5  -7 -10    8.57    3.33
  -7   5  -9   19.91    4.73
  -7   5  -9   21.65    4.55
  -5  -7  -9   27.91    5.66
  -7   5  -8   27.22    5.44
  -7   5  -8   25.04    4.97
  -5  -7  -8   18.66    4.93
  -7   5  -7   20.97    4.75
  -7   5  -7   22.40    4.51
  -5  -7  -7   28.83    5.84
  -7   5  -6    8.10    3.23
  -7   5  -6    7.23    2.59
  -5  -7  -6    7.96    2.81
  -7   5  -5   11.33    3.57
  -5  -7  -5   15.07    4.27
  -7   5  -4   49.97    6.90
  -5  -7  -4   39.30    6.90
  -7   5  -3   42.69    6.49
  -5  -7  -3   44.75    7.00
  -7   5  -2   10.74    3.42
  -5  -7  -2    7.00    3.08
  -7   5  -1   20.73    4.73
  -5  -7  -1   28.53    5.80
  -7   5   0   57.76    7.84
  -5  -7   0   35.07    6.23
  -7   5   1   19.46    4.74
  -5  -7   1   25.60    5.32
  -7   5   2    7.99    3.28
  -5  -7   2   12.90    3.70
  -7   5   3   54.02    7.52
  -5  -7   3   47.36    7.11
  -7   5   4   50.90    7.49
  -5  -7   4   44.70    6.96
  -7   5   5    4.91    2.85
  -5  -7   5   10.13    3.45
   5   7   6   14.56    4.46
  -7   5   6    4.71    3.01
  -5  -7   6    8.96    3.28
   5   7   7   26.96    5.51
  -7   5   7   19.54    4.98
  -5  -7   7   23.03    5.02
   5   7   8   29.01    5.83
  -7   5   8   33.23    6.25
  -5  -7   8   17.34    4.09
   5   7   9   34.23    6.46
  -7   5   9   22.80    5.37
  -5  -7   9   14.78    3.93
   5   7  10   13.55    4.29
  -7   5  10    1.45    1.63
  -5  -7  10    6.70    2.56
   5   7  11   22.90    5.40
  -7   5  11   21.40    5.07
  -5  -7  11   27.11    5.33
   5   7  12   38.06    6.84
  -7   5  12   50.61    7.80
  -5  -7  12   36.45    6.13
   5   7  13   23.27    5.46
  -7   5  13   21.92    5.69
  -7   5  13   16.01    4.81
  -5  -7  13   18.32    4.27
   5   7  14   20.36    4.99
  -7   5  14    9.85    4.14
  -7   5  14    6.83    3.41
  -5  -7  14   11.48    3.46
   5   7  15   35.09    6.89
  -7   5  15   35.62    6.83
  -7   5  15   30.61    6.38
  -5  -7  15   32.75    5.69
   5   7  16   49.72    7.85
  -7   5  16   51.22    8.19
  -7   5  16   52.58    8.24
  -5  -7  16   46.21    6.92
   5   7  17   11.18    3.71
  -7   5  17    5.52    3.13
  -7   5  17    3.99    2.73
  -5  -7  17    6.90    2.94
   5   7  18    5.48    3.02
  -7   5  18    2.43    1.95
  -5  -7  18    1.22    1.84
  -7   5  18    4.09    3.02
   5   7  19   25.31    5.88
  -7   5  19   36.92    7.29
  -5  -7  19   33.43    5.58
  -7   5  19   42.72    7.79
   5   7  20   18.37    5.03
  -5  -7  20   17.93    4.23
   5   7  21   26.22    5.80
  -5  -7  21   22.37    4.78
   5   7  22    7.12    3.87
  -5  -7  22    4.29    2.44
   5   7  23   26.43    6.03
  -5  -7  23   16.79    4.89
   5   7  24   37.13    7.17
  -5  -7  24   33.47    6.90
   5   7  25    9.17    3.79
  -5  -7  25    6.56    3.04
   5   7  26    2.90    2.50
   5   7  27   19.53    5.32
  -7   4 -26   33.26    6.94
  -7   4 -25   49.69    8.36
  -7   4 -24   24.52    5.98
  -7   4 -23   26.79    6.06
  -7   4 -22    6.57    3.15
  -7   4 -21   20.34    5.09
  -7   4 -20    7.64    2.46
  -7   4 -20    8.87    3.78
  -7   4 -19   74.84    9.47
  -7   4 -19   71.26    7.66
  -7   4 -18   29.64    4.62
  -7   4 -18   31.32    5.85
  -7   4 -17   23.07    4.13
  -7   4 -17   25.71    5.34
  -7   4 -16   21.98    4.22
  -7   4 -15   32.52    4.95
  -7   4 -14   48.98    6.25
  -7   4 -13   53.87    6.50
  -7   4 -12   10.50    3.21
  -7   4 -11   14.62    3.54
  -7   4 -10   28.82    4.96
  -7   4  -9   71.58    7.84
  -7   4  -8   27.45    5.01
  -7   4  -7   40.91    6.00
   4   7  -6   13.47    4.05
  -7   4  -6   13.10    3.62
   4   7  -5   29.97    5.81
  -7   4  -5   49.85    6.76
  -4  -7  -5   41.64    6.65
   4   7  -4    7.09    3.24
  -7   4  -4    9.58    3.49
  -4  -7  -4    5.37    2.78
  -7   4  -3   93.33    9.37
  -4  -7  -3  104.75   10.16
   4   7  -3  111.18   10.73
   4   7  -2   24.59    5.18
  -7   4  -2   34.33    5.66
  -4  -7  -2   31.73    5.70
  -4  -7  -1   67.87    6.92
  -7   4  -1   63.22    7.85
   4   7  -1   64.67    8.28
  -4  -7  -1   73.09    8.43
   4   7   0   40.41    6.68
  -7   4   0   53.26    7.09
  -4  -7   0   46.94    6.76
  -7   4   1   44.85    6.54
   4   7   1   71.35    8.66
  -4  -7   1   59.64    7.58
   4   7   2   24.50    5.44
  -7   4   2   29.03    5.45
  -4  -7   2   20.88    4.40
  -7   4   3  101.84   10.09
  -4  -7   3  119.26   10.58
   4   7   3  110.21   11.07
   4   7   4    5.02    3.12
  -7   4   4   12.47    3.97
  -4  -7   4    2.98    2.00
   4   7   5   37.84    6.37
  -7   4   5   42.09    6.41
  -4  -7   5   34.53    5.60
   4   7   6   13.82    3.76
  -7   4   6   11.87    3.85
  -4  -7   6   13.21    3.62
   4   7   7   55.31    7.81
  -7   4   7   43.80    6.91
  -4  -7   7   48.22    6.59
   4   7   8   21.75    5.36
  -7   4   8   30.42    5.82
  -4  -7   8   19.88    4.47
   4   7   9   87.71    9.91
  -7   4   9   71.24    8.92
  -4  -7   9   77.47    8.34
   4   7  10   28.64    5.51
  -7   4  10   30.80    6.06
  -4  -7  10   27.41    5.00
   4   7  11   12.27    3.85
  -7   4  11   15.59    4.35
  -4  -7  11   17.68    3.98
   4   7  12    4.66    2.75
  -7   4  12    5.39    2.88
  -4  -7  12    7.78    2.79
   4   7  13   52.12    7.67
  -7   4  13   44.39    7.00
  -4  -7  13   55.41    6.86
   4   7  14   45.35    7.19
  -7   4  14   45.60    7.31
  -4  -7  14   45.25    6.17
   4   7  15   46.10    7.27
  -7   4  15   34.08    6.44
  -4  -7  15   35.19    5.63
   4   7  16    9.00    3.50
  -7   4  16   18.20    5.14
  -4  -7  16   11.46    3.34
   4   7  17   33.87    6.27
  -7   4  17   28.20    6.30
  -4  -7  17   28.51    4.92
   4   7  18   34.04    6.25
  -7   4  18   35.95    6.85
  -4  -7  18   22.36    4.92
  -4  -7  18   31.14    5.07
   4   7  19   87.73   10.20
  -4  -7  19   78.42    7.88
  -7   4  19   70.85    9.66
  -4  -7  19   67.54    8.57
   4   7  20    6.16    2.77
  -7   4  20    7.57    3.78
  -4  -7  20    5.49    2.29
  -4  -7  20    4.11    2.09
   4   7  21   18.92    5.01
  -7   4  21   21.59    5.82
  -4  -7  21   18.74    3.95
  -4  -7  21   15.22    4.43
   4   7  22    6.76    3.14
  -7   4  22    9.71    3.94
  -4  -7  22    9.52    3.66
   4   7  23   33.24    6.61
  -7   4  23   30.85    6.53
  -4  -7  23   31.03    6.36
   4   7  24   18.02    4.84
  -4  -7  24   14.39    4.87
   4   7  25   45.02    7.44
  -4  -7  25   52.81    8.23
   4   7  26   26.01    5.89
  -4  -7  26   32.90    6.46
   4   7  27    3.15    2.60
  -4  -7  27    2.98    1.86
   4   7  28    5.17    3.35
  -4  -7  28    5.77    3.25
   4   7  29   18.98    5.04
   4   7  30   11.98    4.29
   4   7  31   24.36    5.62
   4   7  32   16.53    5.25
  -7   3 -27   22.64    5.99
  -7   3 -26  126.79   13.26
  -7   3 -25   16.41    4.87
  -7   3 -24    6.01    3.12
  -7   3 -23    1.20    1.26
  -7   3 -22   32.22    6.40
  -7   3 -21    9.43    2.83
  -7   3 -21    7.00    3.25
  -7   3 -20    2.56    1.48
  -7   3 -19    2.89    1.88
  -7   3 -18   96.67    8.46
  -7   3 -17   17.39    3.76
  -7   3 -16    2.54    1.23
  -7   3 -15    5.16    2.30
  -7   3 -14  131.69   10.19
   3   7 -13   28.73    5.40
  -7   3 -13   19.11    4.23
   3   7 -12    5.33    2.26
  -7   3 -12    8.29    2.39
   3   7 -11   23.72    4.98
  -7   3 -11   15.78    3.68
  -7   3 -10  175.43   12.00
   3   7 -10  179.24   13.01
   3   7  -9   29.85    5.45
  -7   3  -9   15.68    3.73
   3   7  -8    2.01    1.91
  -7   3  -8    8.57    2.83
   3   7  -7   10.01    3.41
  -7   3  -7    6.46    2.93
   3   7  -6  137.20   11.48
  -7   3  -6  140.41   10.88
   3   7  -5   26.07    5.16
  -7   3  -5   15.43    3.89
   3   7  -4   13.86    3.58
  -7   3  -4   10.64    3.21
  -3  -7  -4   10.15    2.12
   3   7  -3   57.69    7.49
  -7   3  -3   61.89    7.36
  -3  -7  -3   68.53    5.85
   3   7  -2  132.74   11.39
  -7   3  -2  152.94   11.57
  -3  -7  -2  127.80    8.07
   3   7  -1   34.28    5.77
  -7   3  -1   29.53    5.36
  -3  -7  -1   21.03    3.21
   3   7   0   38.17    6.19
  -7   3   0   29.22    5.24
  -3  -7   0   28.77    3.86
   3   7   1   30.57    5.69
  -3  -7   1   31.10    4.20
  -7   3   1   25.15    5.02
   3   7   2  135.21   11.50
  -3  -7   2  122.91    8.44
  -7   3   2  142.23   11.51
  -3  -7   2  129.91   10.62
   3   7   3   71.73    8.44
  -3  -7   3   55.98    5.84
  -7   3   3   59.86    7.51
  -3  -7   3   58.84    7.06
   3   7   4   11.35    3.64
  -3  -7   4   13.71    3.06
  -7   3   4   18.02    4.28
  -3  -7   4   13.00    3.35
   3   7   5   23.53    4.98
  -3  -7   5   21.81    3.70
  -7   3   5   17.76    4.33
  -3  -7   5   26.78    4.66
   3   7   6  124.56   10.63
  -3  -7   6  117.94    8.82
  -7   3   6  131.73   11.30
  -3  -7   6  120.75    9.94
   3   7   7   10.37    3.73
  -3  -7   7    5.25    1.73
  -7   3   7    6.48    2.76
  -3  -7   7    9.10    2.82
   3   7   8    4.33    2.20
  -3  -7   8    5.18    2.14
  -7   3   8    5.63    2.58
  -3  -7   8    3.28    1.83
   3   7   9   22.58    4.77
  -7   3   9   19.72    4.51
  -3  -7   9   24.48    4.49
   3   7  10  180.64   13.64
  -7   3  10  194.47   14.11
  -3  -7  10  167.91   11.39
   3   7  11   26.26    5.32
  -7   3  11   15.74    4.14
  -3  -7  11   19.58    3.90
   3   7  12    8.07    3.33
  -7   3  12    3.51    2.00
  -3  -7  12    5.02    2.10
  -3  -7  12    3.96    2.12
   3   7  13   18.56    4.58
  -7   3  13   22.16    5.10
  -3  -7  13   29.31    4.58
  -3  -7  13   28.08    5.07
   3   7  14  134.06   12.01
  -7   3  14  149.93   12.87
  -3  -7  14  130.37   10.52
  -3  -7  14  124.64    9.50
   3   7  15   17.37    4.74
  -7   3  15    8.56    3.87
  -3  -7  15   13.11    2.94
  -3  -7  15    9.69    2.98
   3   7  16    6.18    2.79
  -7   3  16    7.83    2.96
  -3  -7  16    6.54    2.51
  -3  -7  16    3.41    1.69
   3   7  17   18.46    4.58
  -7   3  17   20.99    5.16
  -3  -7  17   24.83    4.24
  -3  -7  17   22.64    4.55
   3   7  18   73.05    9.03
  -7   3  18   91.02   10.55
  -3  -7  18   83.50    7.55
  -3  -7  18   90.55    9.26
   3   7  19    7.66    3.47
  -7   3  19    0.39    1.30
  -3  -7  19    8.22    3.01
  -3  -7  19    6.13    2.25
   3   7  20   -1.00    1.36
  -7   3  20    1.14    1.36
  -3  -7  20    0.06    1.38
  -3  -7  20   -1.35    1.60
   3   7  21    1.94    1.77
  -7   3  21    8.84    3.66
  -3  -7  21   10.35    2.74
  -3  -7  21   10.98    3.72
   3   7  22   27.33    5.72
  -7   3  22   30.82    6.15
  -3  -7  22   27.53    5.70
   3   7  23    2.82    2.05
  -7   3  23    6.71    3.30
  -3  -7  23   10.94    3.76
   3   7  24    6.98    3.68
  -7   3  24    6.88    3.57
  -3  -7  24    6.53    2.96
   3   7  25   21.15    5.21
  -7   3  25   16.72    4.76
  -3  -7  25   25.16    5.66
   3   7  26  110.38   11.56
  -7   3  26  133.69   13.66
  -3  -7  26  114.47   11.89
   3   7  27   21.50    5.16
  -7   3  27   18.19    4.80
  -3  -7  27   19.51    5.21
   3   7  28    5.55    3.09
  -3  -7  28    0.07    1.81
   3   7  29   10.18    3.76
  -3  -7  29   13.72    4.56
   3   7  30   55.58    8.22
  -3  -7  30   52.95    8.68
   3   7  31    0.32    1.97
   3   7  32   -4.28    3.40
  -7   3  32   -0.23    1.74
   3   7  33   14.22    4.28
  -7   3  33   15.47    4.92
   3   7  34   23.00    6.11
  -7   2 -28   27.90    6.57
  -7   2 -27   18.18    5.37
  -7   2 -26   36.86    7.12
  -7   2 -25   15.82    4.76
  -7   2 -24    7.59    2.58
  -7   2 -24    9.58    3.84
  -7   2 -23   42.49    5.67
  -7   2 -23   53.14    8.26
  -7   2 -22   70.36    7.20
  -7   2 -21   68.23    7.19
  -7   2 -20   16.98    3.81
  -7   2 -19   29.23    4.88
   2   7 -18   29.38    4.97
  -7   2 -18   44.41    5.86
  -7   2 -17   70.39    7.34
   2   7 -17   73.51    7.85
  -7   2 -16   54.40    6.47
   2   7 -16   65.34    7.53
  -7   2 -15   90.07    8.39
   2   7 -15   83.56    8.51
   2   7 -14   21.42    4.47
  -7   2 -14   37.12    5.44
  -2  -7 -14   28.32    2.64
   2   7 -13    4.38    2.19
  -7   2 -13   13.54    3.46
  -2  -7 -13    4.35    1.00
   2   7 -12   96.61    9.08
  -7   2 -12   81.28    8.09
  -2  -7 -12   80.48    4.46
   2   7 -11  135.88   10.86
  -7   2 -11  124.61   10.06
  -2  -7 -11  128.73    5.69
   2   7 -10   75.84    8.21
  -7   2 -10  105.50    9.18
   2   7  -9   64.68    7.65
  -7   2  -9   72.19    7.62
  -2  -7  -9   64.31    3.98
   2   7  -8   69.24    7.85
  -7   2  -8   48.36    6.32
  -2  -7  -8   57.28    3.83
   2   7  -7  121.25   10.38
  -7   2  -7  106.07    9.36
  -2  -7  -7  109.52    5.49
   2   7  -6  106.55    9.76
  -7   2  -6  138.07   10.73
  -2  -7  -6  111.68    5.69
   2   7  -5  145.00   11.42
  -7   2  -5  136.44   10.78
  -2  -7  -5  152.20    6.85
   2   7  -4   41.23    6.13
  -7   2  -4   30.68    5.25
  -2  -7  -4   43.74    3.70
   2   7  -3   19.64    4.34
  -7   2  -3   31.05    5.24
  -2  -7  -3   23.45    2.78
   2   7  -2   69.47    8.03
  -7   2  -2   73.66    7.97
  -2  -7  -2   61.97    4.67
   2   7  -1   68.70    7.87
  -7   2  -1   58.66    7.18
  -2  -7  -1   60.10    4.70
   2   7   0   49.53    6.68
  -7   2   0   43.71    6.09
  -2  -7   0   39.33    3.90
   2   7   1   73.28    8.21
  -7   2   1   57.64    7.10
  -2  -7   1   66.27    5.22
   2   7   2   58.57    7.44
  -2  -7   2   65.53    5.39
  -7   2   2   80.90    8.50
   2   7   3   40.15    6.19
  -2  -7   3   35.02    4.12
  -7   2   3   40.80    6.12
  -2  -7   3   33.14    3.88
   2   7   4   46.22    6.59
  -2  -7   4   40.21    4.39
  -7   2   4   27.94    5.10
  -2  -7   4   37.38    4.34
   2   7   5  135.50   11.39
  -2  -7   5  128.59    8.11
  -7   2   5  125.63   10.86
  -2  -7   5  137.82    8.37
   2   7   6  119.22   10.63
  -2  -7   6  105.44    7.54
  -7   2   6  133.29   11.17
  -2  -7   6  115.58    7.86
   2   7   7  128.26   11.18
  -2  -7   7  117.63    8.24
  -7   2   7  122.76   10.77
  -2  -7   7  123.13    8.32
   2   7   8   77.17    8.63
  -2  -7   8   62.51    6.10
  -7   2   8   53.04    7.19
  -2  -7   8   61.79    6.64
  -2  -7   8   69.20    6.32
   2   7   9   64.98    8.02
  -2  -7   9   61.76    6.14
  -7   2   9   66.26    7.99
  -2  -7   9   60.93    6.51
  -2  -7   9   60.19    6.03
   2   7  10   92.09    9.54
  -2  -7  10   80.60    7.25
  -7   2  10  104.34   10.18
  -2  -7  10   77.71    7.21
  -2  -7  10   72.27    6.86
   2   7  11  137.81   11.69
  -2  -7  11  112.41    8.85
  -7   2  11  128.76   11.37
  -2  -7  11  125.25    9.09
  -2  -7  11  126.74    9.18
   2   7  12   96.23    9.86
  -2  -7  12   88.52    7.85
  -7   2  12   96.58    9.88
  -2  -7  12   94.92    7.80
  -2  -7  12   99.76    8.33
   2   7  13    7.69    2.91
  -7   2  13    5.93    2.54
  -2  -7  13    5.53    2.25
  -2  -7  13    5.24    2.11
   2   7  14   33.41    5.91
  -7   2  14   36.44    6.20
  -2  -7  14   27.01    4.16
  -2  -7  14   23.13    4.18
   2   7  15   90.46    9.75
  -7   2  15   93.51    9.96
  -2  -7  15   89.91    7.36
  -2  -7  15   83.09    7.98
   2   7  16   62.03    8.12
  -7   2  16   56.66    7.83
  -2  -7  16   58.40    6.93
  -2  -7  16   64.58    6.18
   2   7  17   83.16    9.42
  -7   2  17   86.62    9.80
  -2  -7  17   82.31    8.32
  -2  -7  17   82.16    6.87
   2   7  18   31.64    5.82
  -7   2  18   49.43    7.52
  -2  -7  18   30.05    4.17
  -2  -7  18   28.50    5.01
   2   7  19   20.29    4.69
  -7   2  19   15.93    4.24
  -2  -7  19   17.90    3.11
  -2  -7  19   19.51    4.21
   2   7  20   16.09    4.27
  -7   2  20   11.55    3.95
  -2  -7  20   14.34    3.53
  -2  -7  20   14.50    2.76
   2   7  21   76.53    9.05
  -7   2  21   67.75    9.01
  -2  -7  21   76.21    8.70
   2   7  22   52.08    7.82
  -7   2  22   65.52    8.78
  -2  -7  22   46.36    6.90
   2   7  23   49.59    7.63
  -7   2  23   50.87    7.71
  -2  -7  23   58.55    7.81
   2   7  24   14.22    4.84
  -7   2  24    8.73    3.68
  -2  -7  24   12.66    3.79
   2   7  25   11.76    3.85
  -7   2  25   17.71    4.97
  -2  -7  25   15.32    4.23
   2   7  26   29.39    5.90
  -7   2  26   39.89    7.33
  -2  -7  26   30.22    6.06
   2   7  27   20.43    4.87
  -7   2  27   20.35    5.33
  -2  -7  27   27.46    5.82
   2   7  28   31.90    6.25
  -7   2  28   27.58    6.00
  -2  -7  28   31.71    6.23
   2   7  29   23.32    5.45
  -7   2  29   22.12    5.63
  -2  -7  29   20.14    5.36
   2   7  30   31.67    5.99
  -7   2  30   32.65    6.83
  -2  -7  30   28.38    6.24
   2   7  31   19.66    4.85
  -2  -7  31   21.29    5.26
   2   7  32   26.25    5.75
  -2  -7  32   22.05    5.45
   2   7  33   57.84    8.30
   2   7  34    8.73    3.83
  -7   2  34   11.75    4.32
   2   7  35   11.13    4.27
  -7   1 -29    3.50    3.02
  -7   1 -28   89.67   11.11
  -7   1 -27   33.91    5.18
  -7   1 -27   28.00    6.32
  -7   1 -26   -0.92    0.90
  -7   1 -26    0.86    2.39
  -7   1 -25   13.56    3.45
  -7   1 -25   16.83    5.13
  -7   1 -24  114.17    9.51
  -7   1 -23   39.88    5.69
   1   7 -22    2.37    1.03
  -7   1 -22    4.85    2.29
   1   7 -21   28.03    4.78
  -7   1 -21   32.42    5.11
  -7   1 -20  139.47   10.46
   1   7 -20  145.31   10.53
   1   7 -19    0.68    1.41
  -7   1 -19    2.20    1.76
   1   7 -18    6.06    2.28
  -7   1 -18    6.60    2.22
   1   7 -17    9.99    3.06
  -7   1 -17   13.86    3.64
   1   7 -16  163.24   11.41
  -7   1 -16  161.44   11.36
   1   7 -15    6.79    2.41
  -7   1 -15    7.77    2.96
   1   7 -14    5.34    1.83
  -7   1 -14    9.21    2.93
   1   7 -13   49.96    6.53
  -7   1 -13   60.31    6.88
   1   7 -12  172.08   11.83
  -7   1 -12  170.94   11.69
   1   7 -11    1.91    2.00
  -7   1 -11   10.33    3.07
   1   7 -10   22.83    4.30
  -7   1 -10   23.15    4.31
   1   7  -9    9.14    3.13
  -7   1  -9    5.93    2.20
   1   7  -8  153.53   11.23
  -7   1  -8  135.52   10.58
   1   7  -7   14.08    3.53
  -7   1  -7   17.75    3.91
   1   7  -6    2.98    2.32
  -7   1  -6    1.76    1.59
   1   7  -5   19.69    4.33
  -7   1  -5   33.06    5.23
   1   7  -4  213.23   13.56
  -7   1  -4  204.39   13.01
  -1  -7  -4  175.58    4.25
   1   7  -3    5.71    2.72
  -1  -7  -3    2.18    0.58
  -7   1  -3    3.14    2.22
  -1  -7  -3    4.13    0.79
   1   7  -2   15.33    3.87
  -1  -7  -2   15.92    1.69
  -7   1  -2   18.92    4.14
  -1  -7  -2   15.89    1.69
   1   7  -1    2.53    1.43
  -1  -7  -1    2.39    1.06
  -7   1  -1    3.19    2.21
  -1  -7  -1    2.88    0.92
   1   7   0  310.03   16.60
  -1  -7   0  298.49    9.16
  -7   1   0  320.94   16.78
  -1  -7   0  299.49    9.07
   1   7   1    2.49    2.15
  -1  -7   1    3.01    1.09
  -7   1   1    3.83    2.44
  -1  -7   1    3.08    1.09
   1   7   2   20.03    4.49
  -1  -7   2   13.15    2.16
  -7   1   2   11.27    3.13
  -1  -7   2   11.42    1.90
   1   7   3    3.41    2.32
  -1  -7   3    4.92    1.52
  -7   1   3    2.16    1.64
  -1  -7   3    5.21    1.60
   1   7   4  189.51   13.06
  -1  -7   4  192.97    8.73
  -7   1   4  207.43   13.55
  -1  -7   4  197.32    8.71
   1   7   5   16.58    4.03
  -1  -7   5   20.39    3.04
  -7   1   5   27.84    5.10
  -1  -7   5   23.07    3.06
   1   7   6    1.53    1.73
  -1  -7   6    1.68    0.98
  -7   1   6    1.94    1.80
  -1  -7   6    0.88    0.71
   1   7   7   14.96    3.96
  -1  -7   7   12.26    2.49
  -7   1   7   22.67    4.71
  -1  -7   7   12.80    2.66
   1   7   8  156.30   12.07
  -1  -7   8  153.42    8.89
  -7   1   8  170.66   12.66
  -1  -7   8  157.25    8.84
   1   7   9    5.97    2.97
  -1  -7   9    9.68    2.60
  -7   1   9    7.42    3.04
  -1  -7   9    5.70    1.92
   1   7  10   23.23    4.84
  -1  -7  10   23.45    3.67
  -7   1  10   21.56    4.66
  -1  -7  10   26.68    3.90
   1   7  11    9.59    3.47
  -1  -7  11    5.12    2.04
  -7   1  11   10.39    3.21
  -1  -7  11    4.17    1.80
   1   7  12  198.14   13.79
  -1  -7  12  186.83   10.83
  -7   1  12  183.06   13.41
  -1  -7  12  192.20   10.95
  -1  -7  12  195.22   10.55
   1   7  13   64.53    8.02
  -1  -7  13   58.15    6.12
  -7   1  13   65.02    8.17
  -1  -7  13   51.37    5.82
  -1  -7  13   51.07    5.31
   1   7  14   10.16    3.25
  -1  -7  14    3.99    1.77
  -7   1  14   11.85    3.58
  -1  -7  14    3.60    1.76
  -1  -7  14    5.13    1.96
   1   7  15    4.05    2.59
  -7   1  15    8.67    3.23
  -1  -7  15    7.67    2.63
  -1  -7  15    7.32    2.09
   1   7  16  155.46   12.49
  -7   1  16  172.71   13.41
  -1  -7  16  157.77   10.88
  -1  -7  16  154.56    8.76
   1   7  17   13.47    3.84
  -7   1  17   16.04    4.02
  -1  -7  17   10.76    2.42
  -1  -7  17   12.77    3.41
   1   7  18    4.67    2.43
  -7   1  18    1.67    1.65
  -1  -7  18    3.63    1.57
  -1  -7  18    7.28    2.74
   1   7  19   -1.16    1.98
  -7   1  19   -0.10    1.50
  -1  -7  19    1.61    1.09
  -1  -7  19    2.67    2.28
   1   7  20  139.05   12.09
  -7   1  20  146.45   12.63
  -1  -7  20  151.68   11.54
   1   7  21   21.77    4.99
  -7   1  21   23.06    5.23
  -1  -7  21   19.50    4.11
   1   7  22    4.62    2.99
  -7   1  22    8.09    3.48
  -1  -7  22    4.33    2.27
   1   7  23   30.52    5.97
  -7   1  23   40.47    6.93
  -1  -7  23   27.69    5.26
   1   7  24  129.85   12.06
  -7   1  24  111.29   11.51
  -1  -7  24  126.97   11.34
   1   7  25   10.30    3.60
  -7   1  25   17.51    4.89
  -1  -7  25    4.67    2.28
   1   7  26    2.53    2.66
  -7   1  26    2.21    1.86
  -1  -7  26    4.11    2.94
   1   7  27   24.74    5.42
  -7   1  27   34.44    6.71
  -1  -7  27   22.33    5.01
   1   7  28   99.14   10.73
  -7   1  28  103.37   11.30
  -1  -7  28   96.47   10.58
   1   7  29    6.75    2.76
  -7   1  29    4.43    2.17
  -1  -7  29    8.11    3.60
   1   7  30    3.64    2.66
  -7   1  30    5.21    3.19
  -1  -7  30    2.54    1.75
   1   7  31    0.03    1.94
  -7   1  31    0.67    2.51
  -1  -7  31    2.07    2.07
   1   7  32   63.05    8.86
  -7   1  32   67.94    9.71
  -1  -7  32   67.84    9.71
   1   7  33    4.51    3.07
  -1  -7  33    4.97    3.30
   1   7  34    4.53    2.78
   1   7  35    3.06    1.97
   1   7  36   42.94    7.62
   0   7 -34    8.43    3.75
   0   7 -33   22.42    5.85
   0   7 -32   27.65    5.90
   0   7 -31   15.88    4.78
   0   7 -30   16.34    4.58
   0   7 -29   23.86    5.57
  -7   0 -29   29.09    6.60
  -7   0 -29   25.12    4.78
   0   7 -28   16.19    4.66
  -7   0 -28   19.14    5.02
  -7   0 -28   19.62    4.25
  -7   0 -27   10.78    4.20
   0   7 -27    5.25    2.19
  -7   0 -27    5.45    2.44
   0   7 -26   26.26    5.56
  -7   0 -26   21.98    4.49
   0   7 -25   35.33    6.13
  -7   0 -25   31.83    5.24
   0   7 -24   81.50    8.98
  -7   0 -24   88.35    8.89
   0   7 -24   75.98    7.09
   0   7 -23   84.26    9.08
  -7   0 -23   82.67    8.47
   0   7 -23   73.76    7.02
   0   7 -22   10.52    2.66
  -7   0 -22    6.66    2.97
   0   7 -22   14.40    3.93
   0   7 -21   48.75    5.88
  -7   0 -21   43.05    6.18
   0   7 -21   47.30    6.50
   0   7 -20   84.53    7.89
  -7   0 -20  109.99    9.70
   0   7 -19   92.93    8.21
  -7   0 -19   89.09    8.79
   0   7 -18    8.05    2.74
  -7   0 -18    7.11    3.03
   0   7 -17    8.00    2.56
  -7   0 -17    7.00    2.72
   0   7 -16  116.80    9.40
  -7   0 -16  131.69   10.49
   0   7 -15   15.07    3.56
  -7   0 -15    1.91    1.72
   0   7 -14   77.32    7.79
  -7   0 -14   73.98    7.87
   0   7 -13   36.88    5.49
  -7   0 -13   42.55    5.97
   0   7 -12   13.01    3.32
  -7   0 -12   24.59    4.59
   0   7 -11   21.72    4.20
  -7   0 -11   29.80    5.18
   0   7 -10    3.71    1.96
  -7   0 -10    1.44    1.62
   0   7  -9  141.52   10.58
  -7   0  -9  134.97   10.68
   0   7  -8  137.75   10.48
  -7   0  -8  167.28   11.90
   0   7  -7   70.81    7.58
  -7   0  -7   84.59    8.41
   0   7  -6   22.89    4.54
  -7   0  -6   15.07    3.55
   0   7  -5   63.72    7.24
  -7   0  -5   66.95    7.48
   0   7  -4   66.05    7.45
  -7   0  -4   90.05    8.74
   0   7  -3  152.93   11.31
  -7   0  -3  173.32   12.18
   0   7  -2   46.19    6.18
  -7   0  -2   41.92    6.07
   0   7  -1   12.14    3.38
  -7   0  -1   16.62    3.93
   0   7   0   61.57    7.26
  -7   0   0   64.61    7.42
   0   7   1   18.19    4.25
  -7   0   1   18.15    3.86
   0   7   2   41.97    6.05
  -7   0   2   34.42    5.57
   0   7   3  166.71   12.15
  -7   0   3  163.65   12.06
   0   7   4   58.64    7.34
  -7   0   4   85.60    8.66
   0   7   5   62.53    7.36
  -7   0   5   68.86    7.85
   0  -7   5   58.30    4.34
   0   7   6   23.19    4.71
   0  -7   6   22.59    2.84
  -7   0   6   15.38    3.89
   0  -7   6   20.69    2.73
   0   7   7   73.40    8.26
   0  -7   7   68.46    5.24
  -7   0   7   60.92    7.57
   0  -7   7   72.68    5.35
   0   7   8  136.34   11.26
   0  -7   8  136.61    7.78
  -7   0   8  180.35   12.84
   0  -7   8  145.95    7.98
   0   7   9  132.57   11.19
   0  -7   9  126.58    7.76
  -7   0   9  126.23   10.78
   0  -7   9  143.58    8.17
   0   7  10    8.36    3.28
   0  -7  10    4.65    1.54
  -7   0  10    0.69    1.60
   0  -7  10    6.65    1.83
   0   7  11   29.92    5.29
   0  -7  11   30.56    4.01
  -7   0  11   31.67    5.50
   0  -7  11   24.11    3.57
   0   7  12   23.56    4.99
   0  -7  12   15.99    3.08
  -7   0  12   25.75    5.01
   0  -7  12   13.18    2.86
   0   7  13   41.66    6.41
   0  -7  13   36.90    4.77
  -7   0  13   41.14    6.26
   0  -7  13   36.35    4.70
   0   7  14   72.37    8.51
   0  -7  14   66.12    6.52
  -7   0  14   71.87    8.39
   0  -7  14   73.30    5.97
   0  -7  14   67.84    6.49
   0   7  15   22.64    5.09
   0  -7  15   27.71    4.44
   0  -7  15   21.93    3.23
  -7   0  15   16.36    4.42
   0  -7  15   23.18    4.04
   0  -7  15   22.51    3.20
   0   7  16  135.74   11.66
   0  -7  16  124.74    9.32
  -7   0  16  143.94   12.05
   0  -7  16  127.72    7.29
   0  -7  16  120.48    9.22
   0   7  17   12.69    3.82
  -7   0  17    7.79    3.23
   0  -7  17    8.04    2.74
   0  -7  17    7.00    1.62
   0   7  18    7.05    3.03
  -7   0  18    2.90    1.95
   0  -7  18    6.03    2.49
   0  -7  18    6.02    1.78
   0   7  19   99.80   10.27
  -7   0  19   90.85    9.79
   0  -7  19   93.67    8.68
   0   7  20   92.35    9.93
  -7   0  20  106.83   10.58
   0  -7  20   79.13    8.14
   0   7  21   54.09    7.72
  -7   0  21   43.98    6.85
   0  -7  21   51.21    6.80
   0   7  22   13.29    4.02
  -7   0  22    7.16    3.18
   0  -7  22   14.85    3.99
   0   7  23   85.16    9.79
  -7   0  23   70.28    8.81
   0  -7  23   67.09    7.98
   0   7  24   78.30    9.34
  -7   0  24   84.43    9.78
   0  -7  24   75.36    8.58
   0   7  25   30.65    6.15
  -7   0  25   31.06    6.35
   0  -7  25   31.63    5.77
   0   7  26   29.97    5.86
  -7   0  26   20.74    4.95
   0  -7  26   29.52    5.73
   0   7  27    1.40    1.52
  -7   0  27    4.42    2.85
   0  -7  27    9.03    3.65
   0   7  28   15.45    4.56
  -7   0  28   19.06    4.91
   0  -7  28   16.32    4.27
   0   7  29   21.48    5.01
  -7   0  29   24.04    5.57
   0  -7  29   18.59    4.66
   0   7  30   15.96    4.43
  -7   0  30    7.79    3.40
   0  -7  30   18.07    4.92
   0   7  31   22.81    5.31
  -7   0  31   22.29    5.70
   0  -7  31   21.79    5.51
   0   7  32   26.81    6.05
  -7   0  32   37.82    6.86
   0  -7  32   29.94    6.47
   0   7  33   16.30    4.36
  -7   0  33   24.11    5.68
   0  -7  33   25.79    6.12
   0   7  34   -0.18    2.06
  -7   0  34    2.06    3.33
   0  -7  34    9.19    3.89
   0   7  35   28.67    6.08
   0   7  36   17.31    5.28
  -1   7 -34   44.86    7.85
  -1   7 -33    8.18    3.37
  -1   7 -32   -1.42    2.06
  -1   7 -31   18.08    5.16
  -7  -1 -31   20.91    4.71
  -7  -1 -30   67.49   10.00
  -1   7 -30   67.73    9.31
  -7  -1 -30   71.85    8.49
  -1   7 -29   16.12    4.52
  -7  -1 -29   27.95    6.32
  -7  -1 -29   24.16    4.89
  -1   7 -28    7.17    3.13
  -7  -1 -28   12.45    4.36
  -7  -1 -28    4.31    2.23
  -1   7 -27    8.90    3.51
  -7  -1 -27   10.05    3.25
  -1   7 -26  138.02   12.08
  -7  -1 -26  127.94   11.24
  -1   7 -25   23.80    5.08
  -7  -1 -25   34.39    6.16
  -1   7 -24    4.20    2.63
  -7  -1 -24   -0.84    1.87
  -1   7 -23   15.76    3.95
  -1   7 -23   13.44    3.05
  -7  -1 -23   22.47    4.81
  -1   7 -22   98.89    8.03
  -7  -1 -22   73.54    8.26
  -1   7 -22   82.00    8.56
  -1   7 -21   48.13    5.71
  -1   7 -21   40.90    6.04
  -7  -1 -21   47.50    6.83
  -1   7 -20    5.40    2.52
  -1   7 -20    3.16    1.84
  -7  -1 -20   10.11    3.23
  -1   7 -19   26.69    4.65
  -1   7 -19   20.38    3.78
  -7  -1 -19   37.81    5.99
  -1   7 -18  156.30   10.60
  -1   7 -18  155.51   10.82
  -7  -1 -18  137.42   11.19
  -1   7 -17   11.55    3.18
  -1   7 -17   12.69    3.13
  -7  -1 -17   17.34    4.49
  -1   7 -16   32.13    4.68
  -1   7 -16   26.64    4.41
  -7  -1 -16   19.57    4.35
  -1   7 -15   39.24    5.49
  -7  -1 -15   53.25    6.96
  -1   7 -15   45.57    5.43
  -1   7 -14  105.02    8.92
  -7  -1 -14   86.80    9.03
  -1   7 -14  113.85    8.38
  -1   7 -13   76.46    7.60
  -1   7 -13   78.41    6.73
  -7  -1 -13   92.35    9.07
  -1   7 -12    9.57    2.45
  -1   7 -12    7.93    2.58
  -7  -1 -12    6.48    2.45
  -1   7 -11   23.24    3.49
  -1   7 -11   24.26    4.47
  -7  -1 -11   36.60    5.76
  -1   7 -10  177.90   11.85
  -7  -1 -10  164.77   12.08
  -1   7 -10  172.70    9.23
  -1   7  -9  108.11    9.31
  -7  -1  -9  133.08   10.76
  -1   7  -8   30.91    5.01
  -7  -1  -8   18.98    4.15
  -1   7  -7   18.05    4.00
  -7  -1  -7   29.60    5.08
  -1   7  -6  186.65   12.35
  -7  -1  -6  186.37   12.88
  -1   7  -5   47.02    6.25
  -7  -1  -5   46.14    6.42
  -1   7  -4   16.81    3.82
  -7  -1  -4   21.53    4.44
  -1   7  -3   74.87    7.98
  -7  -1  -3  103.20    9.51
  -1   7  -2  188.69   12.65
  -7  -1  -2  162.84   12.04
  -1   7  -1   13.80    3.54
  -7  -1  -1   14.76    3.96
  -1   7   0    9.21    3.27
  -7  -1   0    8.33    2.98
  -1   7   1   15.76    4.09
  -7  -1   1   23.54    4.75
  -1   7   2  196.07   13.20
  -7  -1   2  171.75   12.42
  -1   7   3   91.20    9.07
  -7  -1   3  101.17    9.53
   1  -7   3   82.34    7.66
  -1   7   4   17.64    4.12
   1  -7   4   20.07    3.83
  -7  -1   4   24.62    4.79
  -1   7   5   59.10    7.36
  -7  -1   5   44.28    6.30
   1  -7   5   59.40    6.29
  -1   7   6  158.53   12.13
  -7  -1   6  172.09   12.53
   1  -7   6  167.60   10.33
  -1   7   7   20.63    4.63
  -7  -1   7   16.22    3.81
   1  -7   7   19.92    3.59
  -1   7   8   26.88    5.17
  -7  -1   8   26.65    5.03
   1  -7   8   27.72    4.16
  -1   7   9  119.58   10.69
  -7  -1   9  144.42   11.56
   1  -7   9  108.49    7.90
  -1   7  10  178.62   13.04
   1  -7  10  169.00    9.71
  -7  -1  10  158.21   12.20
  -1   7  11   24.63    5.14
   1  -7  11   22.31    3.39
  -7  -1  11   26.38    4.90
  -1   7  12    7.98    3.05
   1  -7  12   11.00    2.52
  -7  -1  12   12.89    3.78
  -1   7  13   63.26    8.07
   1  -7  13   70.35    5.76
  -7  -1  13   92.01    9.39
  -1   7  14  113.51   10.70
   1  -7  14  116.25    7.18
  -7  -1  14  102.03   10.12
  -1   7  15   38.29    6.39
  -7  -1  15   48.75    6.99
  -1   7  16   19.09    4.52
  -7  -1  16   22.41    4.64
  -1   7  17   13.87    4.27
  -7  -1  17   20.03    4.58
  -1   7  18  156.25   12.98
  -7  -1  18  147.02   12.35
  -1   7  19   30.36    5.92
  -7  -1  19   35.86    6.09
  -1   7  20    9.40    3.55
  -7  -1  20    9.01    3.66
  -1   7  21   55.96    7.92
  -7  -1  21   64.49    8.35
  -1   7  22   88.98   10.07
  -7  -1  22   73.70    8.94
  -1   7  23   17.36    4.63
  -7  -1  23   13.93    4.16
  -1   7  24    3.87    2.66
  -7  -1  24    0.64    1.42
  -1   7  25   32.92    6.50
  -7  -1  25   44.53    7.42
  -1   7  26  135.30   12.61
  -7  -1  26  116.60   11.51
  -1   7  27    9.31    3.88
  -7  -1  27    7.03    2.95
  -1   7  28   10.32    3.96
  -7  -1  28   11.33    3.96
  -1   7  29   17.18    4.84
  -7  -1  29   23.78    5.48
  -1   7  30   66.75    8.96
  -7  -1  30   55.02    8.30
  -1   7  31   18.35    5.14
  -7  -1  31   17.88    4.59
  -1   7  32    1.47    1.85
  -7  -1  32    2.99    2.49
  -1   7  33    7.40    3.70
  -7  -1  33   14.39    4.55
  -1   7  34   50.69    8.11
  -7  -1  34   41.88    7.43
  -1   7  35   28.45    6.37
  -7  -1  35   38.33    7.06
  -7  -1  36    8.53    3.57
  -2   7 -33   33.54    7.02
  -7  -2 -33   40.75    6.94
  -2   7 -32    1.30    2.30
  -7  -2 -32    2.89    2.85
  -2   7 -31   17.80    5.16
  -7  -2 -31   11.76    3.71
  -2   7 -30   49.36    8.15
  -7  -2 -30   39.60    6.57
  -7  -2 -29   15.31    4.94
  -2   7 -29   16.48    4.81
  -7  -2 -29   13.59    4.09
  -2   7 -28    1.43    1.33
  -7  -2 -28    0.86    2.09
  -2   7 -27   16.74    4.46
  -7  -2 -27   17.20    4.42
  -2   7 -26   51.56    7.48
  -7  -2 -26   53.02    7.69
  -2   7 -25   31.55    5.69
  -7  -2 -25   26.14    5.40
  -2   7 -24   12.48    3.61
  -7  -2 -24    8.89    3.19
  -7  -2 -23  109.46   10.69
  -2   7 -23  120.25   10.82
  -2   7 -22   75.34    7.03
  -7  -2 -22   83.98    9.41
  -2   7 -22   76.96    8.44
  -2   7 -21   75.24    7.15
  -2   7 -21   75.00    8.21
  -7  -2 -21   70.40    8.64
  -2   7 -20    4.97    2.55
  -2   7 -20    1.95    1.50
  -7  -2 -20    7.04    3.03
  -2   7 -19   47.22    6.19
  -2   7 -19   48.48    5.87
  -7  -2 -19   36.90    6.10
  -2   7 -18   69.30    7.00
  -2   7 -18   74.58    7.79
  -7  -2 -18   83.12    9.08
  -2   7 -17   12.36    3.11
  -2   7 -17   18.71    3.81
  -7  -2 -17   11.49    3.68
  -2   7 -16    3.78    1.77
  -2   7 -16    6.06    2.21
  -7  -2 -16    6.40    2.59
  -2   7 -15   32.69    4.75
  -2   7 -15   28.09    4.59
  -7  -2 -15   24.07    5.06
  -2   7 -14   40.51    5.06
  -2   7 -14   34.69    5.18
  -7  -2 -14   43.34    6.53
  -2   7 -13   79.87    7.94
  -2   7 -13   82.59    7.04
  -7  -2 -13   76.65    8.66
  -2   7 -12    7.89    2.33
  -2   7 -12    4.96    2.29
  -7  -2 -12   10.24    3.35
  -2   7 -11  157.45   11.29
  -7  -2 -11  139.55   11.49
  -2   7 -11  165.28    9.38
  -2   7 -10  149.45   10.96
  -7  -2 -10  172.27   12.81
  -2   7 -10  150.29    8.63
  -2   7  -9   56.21    6.73
  -2   7  -9   59.27    5.19
  -7  -2  -9   62.33    7.65
  -2   7  -8    2.95    1.24
  -2   7  -8   -0.74    1.59
  -7  -2  -8   -0.38    1.06
  -2   7  -7   43.85    4.05
  -2   7  -7   40.59    5.91
  -7  -2  -7   33.38    5.71
  -2   7  -6   54.02    6.71
  -7  -2  -6   74.29    8.28
  -2   7  -6   61.69    4.59
  -2   7  -5   92.78    8.79
  -2   7  -5   90.88    5.28
  -7  -2  -5   98.06    9.48
  -2   7  -4    5.37    1.31
  -2   7  -4    5.92    2.58
  -7  -2  -4    9.59    3.47
  -2   7  -3   38.88    5.79
  -7  -2  -3   42.26    6.26
  -2   7  -2   49.29    6.55
  -7  -2  -2   51.18    7.05
  -2   7  -1    7.04    2.47
  -7  -2  -1    4.83    2.16
  -2   7   0    3.00    1.91
  -7  -2   0    2.95    2.05
  -2   7   1    6.79    2.62
  -7  -2   1    6.16    2.64
  -2   7   2   49.18    6.84
  -7  -2   2   53.54    7.11
  -2   7   3   31.64    5.39
  -7  -2   3   39.04    5.97
  -2   7   4    6.82    2.71
   2  -7   4    5.31    1.96
  -7  -2   4    4.85    2.36
  -2   7   5  108.99   10.16
   2  -7   5   93.62    7.92
  -7  -2   5   90.60    9.24
  -2   7   6   74.47    8.53
   2  -7   6   59.08    6.21
  -7  -2   6   68.42    8.09
  -2   7   7   36.54    6.01
   2  -7   7   40.07    4.86
  -7  -2   7   36.99    5.94
  -2   7   8    4.43    2.71
   2  -7   8    2.94    1.67
  -7  -2   8    3.32    2.42
  -2   7   9   73.40    8.50
   2  -7   9   56.07    5.70
  -7  -2   9   57.07    7.38
  -2   7  10  157.32   12.48
   2  -7  10  145.81    9.03
  -7  -2  10  169.48   12.72
  -2   7  11  147.08   12.20
  -7  -2  11  125.22   11.00
   2  -7  11  145.42    8.74
  -2   7  12    7.19    3.23
  -7  -2  12   11.21    3.58
   2  -7  12    7.66    2.32
  -2   7  13   90.92    9.76
  -7  -2  13   66.21    8.06
  -2   7  14   34.69    6.04
  -7  -2  14   47.03    6.83
  -2   7  15   19.09    4.77
  -7  -2  15   21.92    4.90
  -2   7  16    5.56    2.56
  -7  -2  16    1.29    1.39
  -2   7  17   25.16    5.39
  -7  -2  17    7.97    2.62
  -2   7  18   97.27   10.28
  -7  -2  18   97.46   10.05
  -2   7  19   51.38    7.68
  -7  -2  19   44.97    6.85
  -2   7  20    5.93    3.27
  -7  -2  20    4.26    2.13
  -2   7  21   66.92    8.85
  -7  -2  21   77.94    9.13
  -2   7  22   74.64    9.22
  -7  -2  22   85.92    9.71
  -2   7  23  124.04   12.05
  -7  -2  23  119.27   11.36
  -2   7  24    9.13    3.69
  -7  -2  24    8.70    3.11
  -2   7  25   30.75    6.30
  -7  -2  25   24.06    5.28
  -2   7  26   49.32    7.87
  -7  -2  26   56.95    8.04
  -2   7  27   18.13    5.16
  -7  -2  27   13.84    4.09
  -2   7  28    5.87    3.19
  -7  -2  28    1.21    1.97
  -2   7  29   20.52    5.10
  -7  -2  29   18.13    4.62
  -2   7  30   53.38    8.34
  -7  -2  30   50.93    7.84
  -2   7  31   15.58    4.88
  -7  -2  31   16.25    4.67
  -2   7  32    1.04    2.42
  -7  -2  32    0.94    1.93
  -2   7  33   33.68    6.81
  -7  -2  33   39.41    7.24
  -7  -2  34   26.88    5.93
  -7  -2  35    9.15    3.77
  -7  -3 -34    8.60    3.63
  -7  -3 -33   46.86    7.75
  -3   7 -32   16.76    5.17
  -7  -3 -32    4.32    2.58
  -3   7 -31   17.11    4.97
  -7  -3 -31   27.87    5.89
  -3   7 -30    7.90    3.69
  -7  -3 -30    5.34    2.76
  -3   7 -29   23.93    5.75
  -7  -3 -29   35.76    7.08
  -7  -3 -29   32.84    6.40
  -3   7 -28   14.35    4.38
  -7  -3 -28   13.95    4.46
  -3   7 -27   33.66    6.19
  -7  -3 -27   36.16    6.71
  -3   7 -26   16.70    4.45
  -7  -3 -26    8.60    3.18
  -3   7 -25   15.41    4.41
  -7  -3 -25   25.61    5.60
  -3   7 -24   31.78    5.85
  -7  -3 -24   19.72    4.61
  -3   7 -23   48.89    7.01
  -7  -3 -23   43.95    7.19
  -3   7 -22   11.64    3.38
  -7  -3 -22   16.72    4.39
  -3   7 -21   55.04    7.08
  -3   7 -21   49.65    5.78
  -7  -3 -21   53.82    7.80
  -3   7 -20   15.45    3.89
  -3   7 -20   15.58    3.37
  -7  -3 -20   13.36    4.12
  -3   7 -19   53.47    6.75
  -3   7 -19   55.62    6.40
  -7  -3 -19   54.80    7.78
  -3   7 -18   84.40    8.29
  -3   7 -18   83.10    7.87
  -7  -3 -18   66.68    8.47
  -3   7 -17  105.27    9.02
  -3   7 -17   94.85    8.47
  -7  -3 -17  116.53   11.20
  -3   7 -16   15.81    3.58
  -3   7 -16   25.97    4.53
  -7  -3 -16   16.12    4.62
  -3   7 -15   99.04    8.50
  -3   7 -15   98.44    8.83
  -7  -3 -15  110.64   10.83
  -3   7 -14   21.84    3.90
  -3   7 -14   18.14    3.91
  -7  -3 -14   10.84    3.35
  -3   7 -13   67.59    7.49
  -3   7 -13   58.96    6.19
  -7  -3 -13   72.21    8.75
  -3   7 -12   56.03    5.82
  -3   7 -12   46.46    6.24
  -7  -3 -12   44.98    6.92
  -3   7 -11   12.00    2.78
  -3   7 -11   14.97    3.67
  -7  -3 -11   13.32    3.93
  -3   7 -10    4.58    1.71
  -3   7 -10    4.75    2.37
  -7  -3 -10    7.15    3.05
  -3   7  -9   35.80    4.22
  -3   7  -9   29.97    5.12
  -7  -3  -9   31.35    5.74
  -3   7  -8   35.57    4.13
  -3   7  -8   37.79    5.72
  -7  -3  -8   27.29    5.18
  -3   7  -7   47.64    6.47
  -3   7  -7   51.24    4.70
  -7  -3  -7   51.48    7.11
  -3   7  -6    4.76    1.63
  -3   7  -6    6.93    2.50
  -7  -3  -6    7.37    2.96
  -3   7  -5  130.78   10.86
  -7  -3  -5  131.96   11.43
  -3   7  -5  134.00    7.03
  -3   7  -4   63.10    7.63
  -7  -3  -4   54.37    7.58
  -3   7  -4   67.21    4.68
  -3   7  -3   53.06    7.02
  -3   7  -3   51.53    3.84
  -7  -3  -3   59.99    7.65
  -3   7  -2   14.76    1.95
  -3   7  -2   17.25    4.17
  -7  -3  -2   13.83    3.79
  -3   7  -1   62.95    7.69
  -3   7  -1   59.65    3.48
  -7  -3  -1   73.72    8.40
  -3   7   0   40.64    2.41
  -3   7   0   43.60    6.47
  -7  -3   0   38.43    6.45
  -3   7   1   68.66    8.07
  -7  -3   1   78.20    8.82
  -3   7   2   14.94    4.03
  -7  -3   2   12.44    3.94
  -3   7   3   58.81    7.60
  -7  -3   3   67.92    8.10
  -3   7   4   81.52    8.93
  -7  -3   4   54.59    7.43
  -3   7   5  133.65   11.51
  -7  -3   5  131.00   11.39
  -3   7   6    7.59    3.53
  -7  -3   6    3.71    2.03
   3  -7   6    5.58    2.28
  -3   7   7   45.01    6.84
   3  -7   7   48.55    5.66
  -7  -3   7   55.88    7.37
  -3   7   8   29.82    5.57
   3  -7   8   32.33    4.56
  -7  -3   8   33.71    5.79
  -3   7   9   27.65    5.40
   3  -7   9   27.73    4.26
  -7  -3   9   28.44    5.40
  -3   7  10    3.32    2.40
  -7  -3  10    6.27    2.77
   3  -7  10    3.70    1.71
  -3   7  11   14.59    4.09
  -7  -3  11   16.28    4.20
  -3   7  12   49.08    7.22
  -7  -3  12   35.97    6.02
  -3   7  13   58.90    8.12
  -7  -3  13   63.64    8.23
  -3   7  14   22.71    5.15
  -7  -3  14   10.33    3.56
  -3   7  15  114.28   11.32
  -7  -3  15  111.99   10.78
  -3   7  16   23.36    5.34
  -7  -3  16    8.39    3.26
  -3   7  17  102.35   10.85
  -7  -3  17  108.40   10.67
  -3   7  18   83.12    9.92
  -7  -3  18   69.35    8.49
  -3   7  19   48.46    7.72
  -7  -3  19   54.01    7.70
  -3   7  20   18.98    5.05
  -7  -3  20    8.97    3.18
  -3   7  21   50.86    7.85
  -7  -3  21   41.19    6.63
  -3   7  22   10.95    3.81
  -7  -3  22   15.90    4.37
  -3   7  23   49.87    8.01
  -7  -3  23   53.69    7.68
  -3   7  24   39.89    7.04
  -7  -3  24   29.51    5.70
  -3   7  25   18.58    4.94
  -7  -3  25   22.73    5.36
  -3   7  26   13.57    4.20
  -7  -3  26    9.41    3.53
  -3   7  27   34.19    6.79
  -7  -3  27   33.99    6.06
  -3   7  28   17.84    4.88
  -7  -3  28    6.14    2.82
  -3   7  29   32.98    6.68
  -7  -3  29   27.31    5.48
  -7  -3  30    7.19    3.38
  -7  -3  31   26.21    5.48
  -7  -3  32    7.90    2.68
  -7  -3  33   43.72    7.01
  -4   7 -30   18.68    5.26
  -4   7 -29   17.45    5.14
  -4   7 -28    8.50    3.69
  -7  -4 -28    7.59    3.56
  -4   7 -27    7.21    3.23
  -7  -4 -27    4.66    2.85
  -4   7 -26   14.47    4.18
  -7  -4 -26   21.94    5.80
  -4   7 -25   10.47    3.51
  -7  -4 -25    4.34    3.13
  -4   7 -24   25.58    5.44
  -7  -4 -24   35.31    6.71
  -4   7 -23    9.96    3.44
  -7  -4 -23    6.87    3.58
  -4   7 -22    4.31    2.80
  -7  -4 -22    6.08    2.78
  -4   7 -21   33.68    5.81
  -7  -4 -21   40.23    6.99
  -4   7 -20   34.06    5.76
  -4   7 -20   27.61    4.60
  -7  -4 -20   35.34    6.60
  -4   7 -19   36.57    5.80
  -4   7 -19   33.84    5.24
  -7  -4 -19   31.53    6.32
  -4   7 -18   58.42    7.23
  -4   7 -18   49.47    6.35
  -7  -4 -18   53.85    8.09
  -4   7 -17   29.59    4.95
  -4   7 -17   37.20    5.47
  -7  -4 -17   27.87    5.78
  -4   7 -16    5.69    2.62
  -4   7 -16    7.21    2.49
  -7  -4 -16    9.75    3.63
  -4   7 -15    8.39    2.65
  -4   7 -15   13.90    3.51
  -7  -4 -15   18.03    4.77
  -4   7 -14   16.31    3.51
  -4   7 -14   12.77    3.37
  -7  -4 -14   20.59    4.84
  -4   7 -13   43.04    5.54
  -4   7 -13   38.22    5.84
  -7  -4 -13   32.72    6.17
  -4   7 -12   19.03    3.65
  -4   7 -12   18.86    4.17
  -7  -4 -12   26.71    5.86
  -4   7 -11   22.33    3.83
  -4   7 -11   16.43    3.85
  -7  -4 -11   18.68    4.68
  -4   7 -10   24.05    3.94
  -4   7 -10   19.65    4.46
  -7  -4 -10   26.32    5.49
  -4   7  -9   47.43    5.29
  -4   7  -9   40.38    6.18
  -7  -4  -9   33.03    6.00
  -4   7  -8   62.16    5.96
  -4   7  -8   61.19    7.53
  -7  -4  -8   78.46    9.25
  -4   7  -7   57.55    5.44
  -4   7  -7   51.61    7.07
  -7  -4  -7   50.13    7.52
  -4   7  -6   12.94    2.57
  -4   7  -6   10.18    3.06
  -7  -4  -6   11.52    3.69
  -4   7  -5   49.15    4.73
  -4   7  -5   54.66    7.25
  -7  -4  -5   39.17    6.50
  -4   7  -4   83.03    8.93
  -4   7  -4   83.98    6.00
  -7  -4  -4   90.47    9.84
  -4   7  -3   26.51    3.27
  -4   7  -3   27.34    5.39
  -7  -4  -3   23.53    5.12
  -4   7  -2  109.22   10.37
  -4   7  -2  114.43    6.51
  -7  -4  -2  115.05   11.11
  -4   7  -1   35.86    6.07
  -7  -4  -1   45.28    7.04
  -4   7   0   33.05    6.03
  -7  -4   0   36.53    6.52
  -4   7   1   38.69    6.51
  -7  -4   1   47.20    7.18
  -4   7   2  109.86   10.68
  -7  -4   2  121.20   11.25
  -4   7   3   43.95    6.88
  -7  -4   3   22.69    5.23
  -4   7   4   84.30    9.55
  -7  -4   4   92.35    9.82
  -4   7   5   41.12    6.82
  -7  -4   5   34.80    6.15
  -4   7   6   13.82    3.98
  -7  -4   6   20.80    4.85
  -4   7   7   74.18    9.01
  -7  -4   7   54.85    7.58
  -4   7   8   61.23    8.20
  -7  -4   8   72.32    8.74
  -4   7   9   39.50    6.74
  -7  -4   9   27.33    5.48
  -4   7  10   27.70    5.67
  -7  -4  10   25.57    5.44
  -4   7  11   25.57    5.38
  -7  -4  11   29.13    5.75
  -4   7  12   23.27    5.48
  -7  -4  12   27.18    5.34
  -4   7  13   42.54    7.05
  -7  -4  13   32.67    5.87
  -4   7  14   16.54    4.69
  -7  -4  14   21.27    4.71
  -4   7  15   15.95    4.37
  -7  -4  15   12.24    3.83
  -4   7  16    6.73    2.77
  -7  -4  16    6.28    3.26
  -4   7  17   28.44    5.91
  -7  -4  17   35.60    6.29
  -4   7  18   50.27    7.95
  -7  -4  18   46.11    7.04
  -4   7  19   38.66    6.89
  -7  -4  19   27.44    5.54
  -4   7  20   25.46    5.84
  -7  -4  20   33.14    5.97
  -4   7  21   40.13    7.30
  -7  -4  21   30.34    5.76
  -4   7  22    1.09    1.80
  -7  -4  22    5.35    2.77
  -4   7  23   13.68    4.49
  -7  -4  23    7.05    3.16
  -4   7  24   24.76    5.86
  -7  -4  24   30.52    5.91
  -4   7  25    9.94    4.08
  -7  -4  25    2.14    1.34
  -7  -4  26   15.08    4.53
  -7  -4  27    2.68    2.08
  -7  -4  28    6.65    3.41
  -7  -4  29   15.84    4.61
  -7  -4  30   20.29    5.30
  -5   7 -28    8.37    3.74
  -5   7 -27   16.18    4.50
  -5   7 -26    5.49    3.11
  -5   7 -25   27.03    5.77
  -5   7 -24    4.90    2.60
  -5   7 -23   14.92    4.27
  -5   7 -22    5.29    3.08
  -5   7 -21    7.53    3.15
  -7  -5 -21    7.91    3.49
  -5   7 -20    6.43    2.74
  -7  -5 -20    5.21    3.65
  -5   7 -19   66.42    8.13
  -7  -5 -19   71.36    9.70
  -5   7 -18    2.47    1.93
  -5   7 -18    4.73    2.40
  -7  -5 -18   -0.14    1.60
  -5   7 -17   42.45    6.23
  -5   7 -17   40.32    6.05
  -7  -5 -17   48.67    7.83
  -5   7 -16   18.86    4.35
  -5   7 -16   18.16    4.27
  -7  -5 -16    9.78    3.81
  -5   7 -15   46.07    6.47
  -5   7 -15   39.20    6.14
  -7  -5 -15   47.77    7.85
  -5   7 -14    3.65    2.17
  -5   7 -14    7.15    3.28
  -7  -5 -14    3.41    2.92
  -5   7 -13   56.89    6.84
  -5   7 -13   50.16    6.85
  -7  -5 -13   57.06    8.38
  -5   7 -12    7.52    2.54
  -5   7 -12    4.64    2.75
  -7  -5 -12    4.59    2.69
  -5   7 -11   10.33    2.87
  -5   7 -11   13.85    4.10
  -7  -5 -11   11.26    3.66
  -5   7 -10    0.80    0.79
  -5   7 -10   -1.60    1.79
  -7  -5 -10    3.35    2.64
  -5   7  -9   63.09    6.55
  -5   7  -9   63.57    8.12
  -7  -5  -9   71.83    9.13
  -5   7  -8    3.22    1.71
  -5   7  -8   10.26    3.75
  -7  -5  -8   12.97    4.06
  -5   7  -7   41.08    5.11
  -5   7  -7   38.46    6.45
  -7  -5  -7   47.06    7.48
  -5   7  -6    5.19    1.75
  -5   7  -6    6.92    3.28
  -7  -5  -6   12.62    4.32
  -5   7  -5   46.33    7.01
  -7  -5  -5   43.37    7.22
  -5   7  -4    1.95    1.47
  -7  -5  -4    5.12    2.80
  -5   7  -3   57.45    7.93
  -7  -5  -3   70.27    9.08
  -5   7  -2    5.66    2.75
  -7  -5  -2    3.78    2.52
  -5   7  -1   79.26    9.34
  -7  -5  -1   90.13   10.24
  -5   7   0   54.57    7.73
  -7  -5   0   37.64    6.64
  -5   7   1   83.72    9.70
  -7  -5   1   81.73    9.58
  -5   7   2    3.86    2.30
  -7  -5   2    0.86    1.75
  -5   7   3   64.67    8.60
  -7  -5   3   64.59    8.55
  -5   7   4    4.40    2.55
  -7  -5   4    4.87    2.91
  -5   7   5   27.35    5.51
  -7  -5   5   27.43    5.75
  -5   7   6    5.74    2.68
  -7  -5   6    2.36    1.92
  -5   7   7   43.80    6.98
  -7  -5   7   41.09    6.83
  -5   7   8    7.07    3.48
  -7  -5   8    8.65    3.19
  -5   7   9   66.01    8.94
  -7  -5   9   70.01    8.82
  -5   7  10    4.36    2.86
  -7  -5  10    0.69    1.22
  -5   7  11   14.61    4.34
  -7  -5  11   21.47    5.07
  -5   7  12    3.68    1.93
  -7  -5  12    3.44    2.43
  -5   7  13   45.40    7.80
  -7  -5  13   52.78    7.95
  -5   7  14    1.62    1.98
  -7  -5  14   -0.12    1.20
  -5   7  15   59.82    8.79
  -7  -5  15   57.85    8.11
  -5   7  16   27.48    6.57
  -7  -5  16   10.22    3.76
  -5   7  17   41.40    7.62
  -7  -5  17   48.97    7.49
  -5   7  18    6.08    3.38
  -7  -5  18    2.97    2.19
  -5   7  19   79.30   10.60
  -7  -5  19   64.77    8.57
  -7  -5  20    7.68    3.34
  -7  -5  21    5.96    2.71
  -7  -5  22    6.09    2.90
  -7  -5  23   16.65    4.60
  -7  -5  24    6.79    3.07
  -7  -5  25   25.15    5.57
  -7  -5  26    4.06    2.74
  -7  -5  27   15.38    4.70
  -6   7 -24   20.88    5.44
  -6   7 -23   10.37    4.48
  -6   7 -22    8.70    3.45
  -6   7 -21   21.37    5.21
  -6   7 -20   29.35    5.64
  -6   7 -19   26.96    5.50
  -6   7 -18   10.37    3.75
  -6   7 -17    9.04    3.58
  -6   7 -16   40.01    6.32
  -6   7 -16   35.70    6.10
  -6   7 -15   18.46    4.65
  -6   7 -14    0.29    1.57
  -6   7 -13    6.56    2.95
  -6   7 -12   63.09    8.21
  -7  -6 -12   65.68    9.58
  -6   7 -11   13.17    4.16
  -7  -6 -11   15.62    4.96
  -6   7 -10   12.79    4.04
  -7  -6 -10   13.37    4.45
  -6   7  -9   10.74    3.51
  -7  -6  -9    8.17    4.12
  -6   7  -8   27.65    5.81
  -7  -6  -8   24.23    5.56
  -6   7  -7   16.05    4.31
  -7  -6  -7    9.30    3.57
  -6   7  -6   14.98    4.27
  -7  -6  -6   14.07    4.66
  -6   7  -5   20.27    5.07
  -7  -6  -5   24.49    5.86
  -6   7  -4   73.82    9.32
  -7  -6  -4   76.45    9.80
  -6   7  -3   15.69    4.52
  -7  -6  -3   20.62    5.20
  -6   7  -2   10.83    3.76
  -7  -6  -2    4.93    3.03
  -6   7  -1    9.20    3.86
  -7  -6  -1   11.04    3.96
  -6   7   0   51.15    8.04
  -7  -6   0   54.37    8.40
  -6   7   1    8.41    3.53
  -7  -6   1   10.09    3.87
  -6   7   2    9.98    3.88
  -7  -6   2    6.63    2.95
  -6   7   3   13.10    4.38
  -7  -6   3   17.24    4.68
  -6   7   4   75.64    9.69
  -7  -6   4   75.44    9.67
  -6   7   5   30.97    6.46
  -7  -6   5   22.32    5.30
  -6   7   6   14.74    4.39
  -7  -6   6   15.67    4.60
  -6   7   7    9.81    3.43
  -7  -6   7   24.93    5.57
  -6   7   8   26.29    6.01
  -7  -6   8   24.35    5.73
  -6   7   9    7.74    3.44
  -7  -6   9    8.97    3.52
  -6   7  10   13.98    4.46
  -7  -6  10   13.37    4.53
  -6   7  11    9.02    3.83
  -7  -6  11   10.76    3.81
  -7  -6  12   56.36    8.19
  -6   7  12   59.80    9.06
  -7  -6  13   10.38    3.83
  -7  -6  14    3.29    2.01
  -7  -6  15    7.70    3.30
  -7  -6  16   36.58    6.78
  -7  -6  17    9.15    3.81
  -7  -6  18   10.50    4.02
  -7  -6  19   26.20    5.75
  -7  -6  20   30.55    6.18
  -7  -6  21   16.78    4.63
  -7  -6  22   11.51    4.05
  -7  -6  23    2.22    1.59
  -7  -6  24   22.88    5.54
  -7   7 -14   12.71    4.28
  -7   7 -13   17.88    4.91
  -7   7 -12    3.73    2.09
  -7   7 -11   25.25    5.57
  -7   7 -10    6.26    2.79
  -7   7  -9   18.20    4.59
  -7   7  -8    3.18    2.51
  -7   7  -7   15.20    4.28
  -7   7  -6    5.02    2.93
  -7   7  -5   16.35    4.96
  -7   7  -4    8.57    3.72
  -7   7  -3   21.54    5.38
  -7   7  -2   16.18    4.76
  -7   7  -1   16.84    5.13
  -7   7   0   13.04    4.52
  -7   7   1   34.94    7.42
  -7  -7   4   10.47    4.09
  -7  -7   5   31.45    6.61
  -7  -7   6    3.32    2.60
  -7  -7   7   13.70    4.17
  -7  -7   8   16.77    4.89
  -7  -7   9   15.85    4.78
  -7  -7  10    1.70    2.29
  -7  -7  11   28.24    6.00
  -7  -7  12    5.53    2.72
  -7  -7  13   26.39    6.12
  -7  -7  14    8.20    3.63
  -7  -7  15   27.60    6.11
  -7  -7  16   22.48    5.53
  -7  -7  17   25.35    6.02
  -7  -7  18    6.26    3.31
  -8   6 -16   23.49    5.58
  -8   6 -15    9.13    3.84
  -8   6 -14    3.17    2.14
  -8   6 -13    5.83    3.27
  -8   6 -13    7.17    2.70
  -8   6 -12   13.22    4.02
  -8   6 -12   11.18    3.95
  -8   6 -11   21.93    5.42
  -8   6 -11   17.15    4.72
  -8   6 -10   13.55    4.08
  -8   6 -10   14.39    4.29
  -8   6  -9   18.43    4.53
  -8   6  -9   19.18    5.11
  -8   6  -8   14.79    4.38
  -8   6  -8   21.22    5.14
  -8   6  -7   13.76    4.13
  -8   6  -7   22.07    5.35
  -8   6  -6    9.34    3.81
  -8   6  -6    4.04    2.27
  -8   6  -5   11.58    4.07
  -8   6  -5   11.23    3.78
  -8   6  -4   20.84    5.27
  -8   6  -4   22.44    5.28
  -8   6  -3    8.02    3.86
  -8   6  -3    6.28    3.07
  -8   6  -2    3.66    2.65
  -8   6  -2    3.26    2.24
  -8   6  -1    6.24    3.55
  -8   6  -1    1.90    2.02
  -8   6   0   24.34    5.72
  -8   6   1    5.77    2.87
  -8   6   2    3.47    1.80
  -6  -8   2   -0.27    1.40
  -8   6   3    5.85    3.08
  -6  -8   3    4.57    2.73
  -8   6   4   25.20    6.07
  -6  -8   4   18.41    4.70
  -8   6   5   16.67    5.08
  -6  -8   5    9.81    3.88
  -8   6   6    2.46    2.90
  -6  -8   6    4.14    2.97
  -6  -8   7   18.53    5.08
  -6  -8   8   14.51    4.46
  -6  -8   9   13.88    4.69
  -6  -8  10    7.53    3.74
  -6  -8  11   11.52    3.89
  -6  -8  12   13.93    4.13
  -6  -8  13    4.77    2.75
  -6  -8  14    0.10    1.42
  -6  -8  15   10.50    3.82
  -6  -8  16   18.45    4.99
  -8   5 -19    8.96    4.14
  -8   5 -18    3.13    2.61
  -8   5 -17    4.08    2.90
  -8   5 -16   50.13    7.28
  -8   5 -16   61.92    9.09
  -8   5 -15   -0.96    1.61
  -8   5 -15    3.42    2.74
  -8   5 -14    3.61    2.25
  -8   5 -14    4.04    2.83
  -8   5 -13    5.40    2.72
  -8   5 -12   51.27    7.71
  -8   5 -12   53.88    7.34
  -8   5 -11    4.05    2.61
  -8   5 -11    2.72    2.22
  -8   5 -10   11.06    3.98
  -8   5 -10    4.73    2.07
  -5  -8 -10   10.16    3.96
  -8   5  -9    0.44    2.11
  -5  -8  -9    1.34    1.73
  -8   5  -8   64.43    8.22
  -5  -8  -8   56.44    8.79
  -8   5  -7    7.37    2.76
  -5  -8  -7    7.77    3.59
  -8   5  -6    5.01    2.57
  -5  -8  -6    0.95    1.31
  -8   5  -5   11.79    3.83
  -5  -8  -5   10.25    3.92
  -8   5  -4   48.59    7.46
  -5  -8  -4   55.66    8.45
  -8   5  -3    4.07    2.46
  -5  -8  -3    8.34    3.30
  -8   5  -2    3.28    2.59
  -5  -8  -2    0.48    1.88
  -8   5  -1    1.17    2.40
  -5  -8  -1    3.64    3.28
  -8   5   0  124.67   12.28
  -5  -8   0  120.95   12.12
  -8   5   1    4.10    3.05
  -5  -8   1    5.23    3.12
  -8   5   2    2.85    2.67
  -5  -8   2    1.50    2.16
  -8   5   3    5.17    2.76
  -5  -8   3   10.35    3.63
   5   8   4   50.28    8.11
  -8   5   4   49.25    7.99
  -5  -8   4   49.99    7.71
   5   8   5    5.33    2.63
  -8   5   5   15.04    4.56
  -5  -8   5    9.27    3.56
   5   8   6    0.39    1.55
  -8   5   6    2.26    1.28
  -5  -8   6    4.03    2.65
   5   8   7    5.37    3.20
  -8   5   7   10.51    4.07
  -5  -8   7    5.97    3.25
   5   8   8   59.67    9.18
  -8   5   8   61.36    8.93
  -5  -8   8   58.06    8.22
   5   8   9    0.06    2.41
  -8   5   9    1.41    1.58
  -5  -8   9    0.88    1.83
  -8   5  10    6.81    3.22
  -5  -8  10    6.82    3.16
  -8   5  11    9.82    4.39
  -5  -8  11    3.73    2.68
  -5  -8  12   57.83    8.00
  -5  -8  13   -0.07    1.53
  -5  -8  14    3.06    1.96
  -5  -8  15    0.91    1.84
  -5  -8  16   58.57    7.81
  -5  -8  17    2.44    1.61
  -5  -8  17    5.35    3.01
  -5  -8  18    1.73    1.39
  -5  -8  19    2.54    2.66
  -5  -8  20   36.31    6.99
  -5  -8  21    0.22    1.37
  -5  -8  22    7.89    3.92
  -8   4 -20   22.52    5.77
  -8   4 -19    6.60    3.97
  -8   4 -16    6.01    2.94
  -8   4 -15   13.19    3.99
  -8   4 -14   13.72    3.95
  -8   4 -13    6.11    2.82
  -8   4 -12   17.62    4.33
  -8   4 -11   48.40    6.98
  -8   4 -10   10.62    3.47
  -8   4  -9   21.34    4.84
  -8   4  -8    6.76    2.87
   4   8  -7   29.09    6.06
  -8   4  -7   35.47    6.12
   4   8  -6   49.13    7.91
  -8   4  -6   29.61    5.62
  -8   4  -5   76.99    8.95
  -4  -8  -5   86.83   10.12
   4   8  -5   81.00   10.05
  -8   4  -4   76.83    9.02
  -4  -8  -4   85.10    9.97
   4   8  -4   79.53    9.72
   4   8  -3   33.00    6.50
  -8   4  -3   48.17    7.35
  -4  -8  -3   41.56    6.88
   4   8  -2    9.26    3.96
  -8   4  -2    9.75    3.67
  -4  -8  -2    6.83    3.12
   4   8  -1   -1.96    2.15
  -8   4  -1    2.49    2.17
  -4  -8  -1    4.89    2.73
   4   8   0    3.16    2.54
  -8   4   0   -0.39    2.12
  -4  -8   0    2.10    2.05
   4   8   1    2.61    2.28
  -8   4   1    0.31    1.84
  -4  -8   1   -1.12    1.63
   4   8   2    9.13    3.69
  -8   4   2    7.87    3.50
  -4  -8   2    8.47    3.19
   4   8   3   45.80    7.59
  -8   4   3   53.19    7.83
  -4  -8   3   34.75    6.39
   4   8   4   83.97   10.24
  -8   4   4   93.13   10.43
  -4  -8   4   71.61    8.81
   4   8   5   96.78   11.12
  -8   4   5   98.29   10.84
  -4  -8   5   77.90    9.02
   4   8   6   54.22    8.55
  -8   4   6   30.35    6.48
  -4  -8   6   49.38    7.19
   4   8   7   41.71    7.39
  -8   4   7   42.23    7.18
  -4  -8   7   32.08    5.75
   4   8   8    8.52    3.16
  -8   4   8   14.46    4.43
  -4  -8   8    7.88    3.17
   4   8   9   14.50    4.74
  -8   4   9   27.10    5.87
  -4  -8   9   16.13    4.06
   4   8  10   19.85    5.23
  -8   4  10   13.57    4.76
  -4  -8  10   19.03    4.32
   4   8  11   38.65    6.95
  -8   4  11   37.72    7.07
  -4  -8  11   31.76    5.72
   4   8  12   15.11    4.76
  -8   4  12   18.70    5.29
  -4  -8  12   14.43    3.68
  -4  -8  12   18.76    4.51
   4   8  13    5.52    2.85
  -8   4  13    8.92    3.76
  -4  -8  13    7.22    3.06
  -4  -8  13    4.77    2.52
   4   8  14   14.82    4.68
  -8   4  14    9.37    3.91
  -4  -8  14   15.82    3.94
  -4  -8  14   12.34    3.75
   4   8  15   10.99    3.98
  -8   4  15    4.78    2.37
  -4  -8  15    6.60    2.53
  -4  -8  15    9.17    2.88
   4   8  16    0.33    1.51
  -8   4  16    4.38    3.02
  -4  -8  16    0.15    0.87
  -4  -8  16    3.15    2.15
   4   8  17   21.65    5.67
  -4  -8  17   26.29    4.98
  -4  -8  17   29.02    5.62
   4   8  18   13.56    4.50
  -4  -8  18    9.29    3.43
   4   8  19    6.39    3.96
  -4  -8  19    4.36    1.99
  -4  -8  20   20.64    4.80
  -4  -8  21   61.76    8.74
  -4  -8  22   14.72    4.34
  -4  -8  23   16.97    5.07
  -4  -8  24    8.96    4.04
  -4  -8  25   13.66    4.53
  -8   3 -22   64.13    9.51
  -8   3 -19   16.10    3.95
  -8   3 -18   38.48    5.84
  -8   3 -17    7.77    3.25
  -8   3 -16    2.53    1.28
  -8   3 -15    3.07    1.69
   3   8 -14   50.76    7.41
  -8   3 -14   39.01    6.02
   3   8 -13   19.95    4.68
  -8   3 -13   26.01    5.04
   3   8 -12    2.39    2.56
  -8   3 -12    5.70    2.62
   3   8 -11   12.36    3.48
  -8   3 -11   11.05    3.28
  -8   3 -10   62.45    7.76
   3   8 -10   82.92    9.52
   3   8  -9   14.12    4.21
  -8   3  -9   18.58    4.27
   3   8  -8    2.87    1.83
  -8   3  -8   -1.86    1.80
   3   8  -7   16.80    4.34
  -8   3  -7   21.30    4.73
   3   8  -6   37.54    6.46
  -8   3  -6   33.63    5.81
   3   8  -5    2.50    2.05
  -8   3  -5    6.60    2.97
   3   8  -4    0.81    1.24
  -8   3  -4    0.30    1.10
   3   8  -3   18.52    4.92
  -8   3  -3   13.73    3.96
   3   8  -2   90.52   10.24
  -8   3  -2   88.65    9.58
   3   8  -1   14.85    4.34
  -8   3  -1   28.36    5.68
   3   8   0   27.97    5.96
  -8   3   0   30.51    5.59
   3   8   1   20.07    4.89
  -8   3   1   26.24    5.42
   3   8   2  110.77   11.26
  -8   3   2  100.62   10.44
  -3  -8   2   90.09    9.39
   3   8   3   11.53    4.07
  -8   3   3   15.25    4.38
  -3  -8   3   10.13    2.99
   3   8   4    6.88    3.40
  -8   3   4    3.72    2.78
  -3  -8   4    2.03    1.83
   3   8   5    3.61    2.47
  -8   3   5    1.45    2.28
  -3  -8   5    6.64    2.64
  -3  -8   5    2.33    1.57
   3   8   6   36.10    6.59
  -8   3   6   30.85    5.89
  -3  -8   6   31.46    5.55
  -3  -8   6   36.70    4.86
   3   8   7   21.26    5.11
  -8   3   7   21.70    5.16
  -3  -8   7   17.41    4.14
  -3  -8   7   24.22    4.19
   3   8   8    3.23    2.54
  -8   3   8    5.79    3.11
  -3  -8   8    3.70    2.41
  -3  -8   8    1.38    1.59
   3   8   9   10.87    3.50
  -8   3   9   29.40    6.09
  -3  -8   9   18.91    3.73
  -3  -8   9   18.42    4.20
   3   8  10   88.16   10.24
  -8   3  10   71.63    9.18
  -3  -8  10   72.59    8.06
  -3  -8  10   67.63    7.28
   3   8  11    6.59    2.71
  -8   3  11   11.18    4.27
  -3  -8  11   10.05    2.95
  -3  -8  11   12.36    3.41
   3   8  12   10.38    3.29
  -8   3  12   11.03    4.17
  -3  -8  12    8.64    2.65
  -3  -8  12   10.58    2.95
   3   8  13   24.98    5.48
  -8   3  13   26.23    5.96
  -3  -8  13   18.11    3.96
  -3  -8  13   18.38    4.01
   3   8  14   49.86    7.94
  -8   3  14   41.61    7.10
  -3  -8  14   39.52    5.83
  -3  -8  14   46.24    6.16
   3   8  15    4.38    2.79
  -8   3  15    0.94    1.88
  -3  -8  15    2.75    1.47
  -3  -8  15    1.52    1.18
   3   8  16    5.61    3.14
  -8   3  16    2.75    2.45
  -3  -8  16    2.81    1.15
  -3  -8  16    1.26    1.21
   3   8  17    5.29    3.08
  -8   3  17    2.98    2.56
  -3  -8  17    5.69    2.48
  -3  -8  17   -0.27    1.20
   3   8  18   51.65    8.13
  -8   3  18   41.73    7.60
  -3  -8  18   45.72    6.81
   3   8  19   14.25    4.68
  -8   3  19   16.19    4.65
  -3  -8  19    5.94    2.61
   3   8  20    4.05    2.71
  -3  -8  20    1.12    1.62
   3   8  21    7.97    3.88
  -3  -8  21    6.38    2.81
   3   8  22   71.97    9.74
  -3  -8  22   65.24    8.52
   3   8  23    7.25    3.41
  -3  -8  23    9.81    3.23
   3   8  24    7.02    3.32
  -3  -8  24    6.82    3.22
  -3  -8  25    1.32    1.83
  -3  -8  26   20.49    5.13
  -3  -8  27    6.15    3.31
  -3  -8  28   10.06    4.00
  -8   2 -22   26.93    4.85
  -8   2 -21   15.50    3.80
  -8   2 -20   19.48    4.41
  -8   2 -19   61.52    7.67
   2   8 -19   64.85    7.97
   2   8 -18   25.73    5.11
  -8   2 -18   28.67    5.25
  -8   2 -17   44.19    6.44
   2   8 -17   49.93    7.09
   2   8 -16    7.55    3.19
  -8   2 -16    4.22    2.40
   2   8 -15   40.95    6.38
  -8   2 -15   41.91    6.26
   2   8 -14    7.71    2.96
  -8   2 -14    3.84    1.95
   2   8 -13   57.63    7.67
  -8   2 -13   66.38    7.91
   2   8 -12   14.52    4.24
  -8   2 -12   12.41    3.56
   2   8 -11    6.60    2.78
  -8   2 -11    7.59    3.14
   2   8 -10   26.21    5.14
  -8   2 -10   27.90    5.27
   2   8  -9   23.24    5.08
  -8   2  -9   27.57    5.22
   2   8  -8   11.12    3.54
  -8   2  -8   15.46    4.19
   2   8  -7   88.38    9.60
  -8   2  -7   71.04    8.32
   2   8  -6   29.78    5.72
  -8   2  -6   37.51    6.16
   2   8  -5   17.65    4.24
  -8   2  -5   20.18    4.79
   2   8  -4   13.68    4.02
  -8   2  -4   11.26    4.15
   2   8  -3   82.73    9.36
  -8   2  -3   83.24    9.26
   2   8  -2   24.10    5.23
  -8   2  -2   22.65    4.88
   2   8  -1   30.84    5.75
  -8   2  -1   47.07    7.10
   2   8   0    0.52    1.37
  -8   2   0    3.80    2.69
   2   8   1   43.76    6.89
  -8   2   1   36.03    6.30
  -2  -8   1   32.66    3.58
   2   8   2   26.51    5.46
  -8   2   2   19.63    4.69
  -2  -8   2   26.38    3.42
   2   8   3   81.66    9.47
  -8   2   3   87.54    9.71
  -2  -8   3   96.35    6.64
   2   8   4   15.57    4.52
  -8   2   4    5.38    2.60
  -2  -8   4   16.58    2.97
   2   8   5   25.35    5.34
  -8   2   5   21.16    5.04
  -2  -8   5   21.04    3.30
   2   8   6   32.49    5.98
  -8   2   6   41.68    6.71
  -2  -8   6   41.02    4.76
   2   8   7   73.18    9.25
  -8   2   7   80.05    9.58
  -2  -8   7   91.82    7.26
  -2  -8   7   74.57    7.92
   2   8   8    4.93    2.48
  -8   2   8   14.43    4.26
  -2  -8   8    7.68    2.48
  -2  -8   8    9.17    2.64
   2   8   9   32.66    6.15
  -8   2   9   26.03    5.45
  -2  -8   9   27.01    4.77
  -2  -8   9   27.77    4.24
   2   8  10   31.19    5.92
  -8   2  10   17.04    4.55
  -2  -8  10   16.58    3.65
  -2  -8  10   29.72    4.57
   2   8  11    6.16    2.38
  -8   2  11   12.02    3.74
  -2  -8  11   12.02    2.86
  -2  -8  11   11.07    2.83
   2   8  12   16.40    4.50
  -8   2  12   10.93    3.86
  -2  -8  12   18.44    3.79
  -2  -8  12   27.02    4.77
   2   8  13   68.52    8.95
  -8   2  13   65.70    8.89
  -2  -8  13   60.66    6.62
  -2  -8  13   57.81    6.56
   2   8  14   10.40    3.80
  -8   2  14    8.65    3.70
  -2  -8  14    7.28    2.50
  -2  -8  14   13.65    3.39
   2   8  15   46.03    7.59
  -8   2  15   58.10    8.35
  -2  -8  15   54.02    6.08
  -2  -8  15   47.07    6.18
   2   8  16    7.06    3.47
  -8   2  16   10.37    4.03
  -2  -8  16    6.88    2.65
  -2  -8  16    6.60    2.60
   2   8  17   63.09    8.87
  -8   2  17   48.96    7.96
  -2  -8  17   49.37    6.55
   2   8  18   28.61    6.16
  -8   2  18   26.99    6.03
  -2  -8  18   24.48    4.82
   2   8  19   80.92   10.19
  -8   2  19   92.99   11.22
  -2  -8  19   75.94    8.51
   2   8  20   11.15    4.45
  -8   2  20    5.72    3.15
  -2  -8  20   11.15    3.51
   2   8  21   20.65    5.30
  -8   2  21   22.51    5.49
  -2  -8  21   15.15    4.05
   2   8  22   21.97    5.43
  -8   2  22   39.03    7.36
  -2  -8  22   22.23    5.18
   2   8  23   57.96    8.83
  -2  -8  23   67.15    8.69
   2   8  24    3.58    2.58
  -2  -8  24    5.50    2.83
   2   8  25   57.18    8.78
  -2  -8  25   44.41    7.40
   2   8  26   19.52    5.31
  -2  -8  26   13.08    4.09
  -2  -8  27    5.67    3.06
  -2  -8  28   -0.75    2.54
  -2  -8  29   13.21    4.30
  -2  -8  30   11.34    4.13
  -8   1 -24   13.11    3.96
  -8   1 -23   22.06    4.77
   1   8 -22   -0.62    1.15
  -8   1 -22    3.25    1.96
   1   8 -21   17.34    4.20
  -8   1 -21   18.79    4.10
   1   8 -20    4.89    2.58
  -8   1 -20    4.00    2.12
   1   8 -19    3.31    1.92
  -8   1 -19    7.59    3.14
   1   8 -18    6.30    2.59
  -8   1 -18    8.04    3.49
   1   8 -17   23.99    4.64
  -8   1 -17   31.48    5.43
   1   8 -16   38.01    5.99
  -8   1 -16   28.92    5.38
   1   8 -15   19.24    4.39
  -8   1 -15   22.87    4.83
   1   8 -14   23.42    4.79
  -8   1 -14   20.75    4.75
   1   8 -13   36.36    5.96
  -8   1 -13   40.46    6.26
   1   8 -12   32.52    5.60
  -8   1 -12   16.06    4.12
   1   8 -11   43.50    6.53
  -8   1 -11   46.83    6.74
   1   8 -10   21.47    4.67
  -8   1 -10   20.12    4.26
   1   8  -9   74.97    8.62
  -8   1  -9   73.88    8.45
   1   8  -8   44.60    6.60
  -8   1  -8   31.66    5.70
   1   8  -7   54.53    7.39
  -8   1  -7   47.70    6.81
   1   8  -6    9.70    3.30
  -8   1  -6    7.41    2.78
   1   8  -5   77.70    8.80
  -8   1  -5   84.73    9.21
   1   8  -4   52.16    7.29
  -8   1  -4   34.51    6.21
   1   8  -3   56.85    7.65
  -8   1  -3   53.89    7.31
   1   8  -2    8.59    3.31
  -8   1  -2    6.19    2.48
   1   8  -1   36.06    6.32
  -8   1  -1   37.29    6.21
   1   8   0   55.85    7.75
  -8   1   0   47.85    7.04
   1   8   1   30.79    5.67
  -8   1   1   41.29    6.66
   1   8   2    7.71    3.17
  -8   1   2   10.12    3.46
   1   8   3   54.62    7.68
  -8   1   3   64.91    8.20
   1   8   4   44.75    6.92
  -8   1   4   38.64    6.58
  -1  -8   4   50.13    4.23
   1   8   5   86.69    9.60
  -8   1   5   88.47    9.72
  -1  -8   5   74.53    5.41
   1   8   6   13.12    3.92
  -8   1   6   18.08    4.57
  -1  -8   6   12.20    2.38
   1   8   7   61.33    8.26
  -8   1   7   57.22    7.96
  -1  -8   7   50.64    4.89
   1   8   8   32.82    5.98
  -8   1   8   31.15    6.03
  -1  -8   8   36.04    4.25
   1   8   9   70.13    8.71
  -8   1   9   72.81    9.00
  -1  -8   9   74.49    6.36
   1   8  10   30.77    6.06
  -8   1  10   23.30    5.25
  -1  -8  10   29.68    4.18
   1   8  11   45.47    7.17
  -8   1  11   59.07    8.19
  -1  -8  11   39.22    4.91
   1   8  12   26.93    5.56
  -8   1  12   19.40    4.80
  -1  -8  12   26.91    4.21
  -1  -8  12   27.42    4.37
   1   8  13   52.59    7.73
  -8   1  13   53.01    7.85
  -1  -8  13   44.31    5.49
  -1  -8  13   45.78    5.54
   1   8  14   26.86    5.71
  -8   1  14   24.82    5.54
  -1  -8  14   20.61    3.86
  -1  -8  14   23.39    3.94
   1   8  15   30.35    6.21
  -8   1  15   27.90    5.95
  -1  -8  15   26.35    4.54
  -1  -8  15   26.97    4.14
   1   8  16   41.92    6.93
  -8   1  16   32.51    6.34
  -1  -8  16   36.41    5.24
   1   8  17   27.99    5.91
  -8   1  17   28.43    5.92
  -1  -8  17   26.04    4.70
   1   8  18    9.48    3.82
  -8   1  18   12.31    3.91
  -1  -8  18    8.40    2.39
   1   8  19    7.03    3.20
  -8   1  19    9.10    3.51
  -1  -8  19    6.20    2.37
   1   8  20    3.58    2.65
  -8   1  20    3.14    2.45
  -1  -8  20    2.84    1.88
   1   8  21   12.07    4.02
  -8   1  21   19.53    5.15
  -1  -8  21   15.19    3.82
   1   8  22   -0.53    1.23
  -8   1  22    2.89    2.38
  -1  -8  22    2.06    1.74
   1   8  23   21.91    5.38
  -8   1  23   24.36    5.94
  -1  -8  23   22.34    4.86
   1   8  24   12.63    4.08
  -8   1  24   15.42    5.22
  -1  -8  24   19.47    4.74
   1   8  25   37.07    6.95
  -8   1  25   32.43    6.91
  -1  -8  25   31.20    6.09
   1   8  26   16.94    5.02
  -1  -8  26   23.13    5.22
   1   8  27   37.06    6.99
  -1  -8  27   33.16    6.40
  -1  -8  28   14.01    4.56
  -1  -8  29   25.67    5.77
  -1  -8  30    7.87    3.81
  -1  -8  31    5.38    3.15
  -8   0 -27   38.11    6.32
  -8   0 -26   16.88    4.44
  -8   0 -25   16.27    4.21
  -8   0 -24    7.36    3.44
  -8   0 -23   49.75    7.15
   0   8 -22   11.41    3.15
  -8   0 -22   19.39    4.60
   0   8 -21   48.45    6.60
  -8   0 -21   42.37    6.63
   0   8 -20   20.12    4.22
  -8   0 -20   25.71    5.22
   0   8 -19   38.21    5.90
  -8   0 -19   29.32    5.43
   0   8 -18   12.92    3.82
  -8   0 -18   20.72    4.83
   0   8 -17   46.00    6.44
  -8   0 -17   39.04    6.24
   0   8 -16   14.54    3.60
  -8   0 -16   12.09    3.75
   0   8 -15   31.23    5.42
  -8   0 -15   36.93    6.23
   0   8 -14   17.44    4.21
  -8   0 -14   18.88    4.51
   0   8 -13   31.39    5.39
  -8   0 -13   33.05    5.94
   0   8 -12    8.59    2.86
  -8   0 -12   11.49    3.57
   0   8 -11   78.68    8.65
  -8   0 -11   81.56    9.04
   0   8 -10   37.95    6.22
  -8   0 -10   55.10    7.42
   0   8  -9   91.94    9.39
  -8   0  -9   81.49    9.07
   0   8  -8   17.22    4.21
  -8   0  -8   31.22    5.74
   0   8  -7   65.63    7.99
  -8   0  -7   66.56    8.21
   0   8  -6   32.09    5.64
  -8   0  -6   54.51    7.42
   0   8  -5  129.20   11.32
  -8   0  -5  130.17   11.40
   0   8  -4   17.17    4.24
  -8   0  -4   19.00    4.33
   0   8  -3   48.83    7.10
  -8   0  -3   44.81    6.71
   0   8  -2   38.72    6.10
  -8   0  -2   46.73    6.83
   0   8  -1   28.88    5.43
  -8   0  -1   34.02    6.03
   0   8   0   28.03    5.43
  -8   0   0   15.76    4.05
   0   8   1   33.67    5.82
  -8   0   1   36.32    6.25
   0   8   2   33.02    5.99
  -8   0   2   44.76    6.85
   0   8   3   62.03    8.16
  -8   0   3   45.61    6.90
   0   8   4   15.85    4.23
  -8   0   4   24.13    5.01
   0   8   5  111.70   10.95
  -8   0   5  113.35   11.06
   0   8   6   33.81    6.20
  -8   0   6   54.25    7.68
   0   8   7   84.53    9.66
  -8   0   7   64.96    8.35
   0   8   8   20.79    5.39
  -8   0   8   19.07    4.75
   0   8   9   76.31    9.12
  -8   0   9   78.11    9.28
   0   8  10   45.25    7.25
  -8   0  10   62.91    8.55
   0   8  11   98.51   10.56
  -8   0  11   82.17    9.81
   0   8  12   13.61    4.25
  -8   0  12    4.90    2.51
   0   8  13   25.23    5.45
  -8   0  13   42.37    7.02
   0   8  14   21.69    4.89
  -8   0  14   26.33    5.39
   0  -8  14   13.69    3.09
   0   8  15   23.52    5.34
  -8   0  15   21.48    5.19
   0  -8  15   27.62    3.81
   0  -8  15   28.54    4.57
   0   8  16   11.80    3.96
  -8   0  16   15.33    4.32
   0  -8  16   17.56    3.80
   0   8  17   45.94    7.38
  -8   0  17   44.10    7.22
   0  -8  17   54.64    6.51
   0   8  18   19.40    5.13
  -8   0  18   28.67    5.80
   0  -8  18   16.50    3.96
   0   8  19   48.29    7.70
  -8   0  19   33.63    6.59
   0  -8  19   35.25    5.71
   0   8  20   26.25    5.88
  -8   0  20   28.65    5.94
   0  -8  20   26.18    5.21
   0   8  21   44.24    7.50
  -8   0  21   50.82    8.17
   0  -8  21   52.35    7.04
   0   8  22   17.66    4.88
  -8   0  22   18.39    5.07
   0  -8  22   12.85    4.11
   0   8  23   61.19    9.03
  -8   0  23   48.71    8.05
   0  -8  23   49.47    7.03
   0   8  24    4.40    2.62
  -8   0  24    7.28    3.39
   0  -8  24    5.42    2.92
   0   8  25   23.08    5.93
  -8   0  25   16.61    4.74
   0  -8  25   18.12    4.64
   0   8  26   15.18    4.67
  -8   0  26   15.73    4.55
   0  -8  26   14.94    4.35
   0   8  27   38.45    7.32
   0  -8  27   39.55    7.01
  -1   8 -31   22.64    5.98
  -1   8 -30    2.30    2.03
  -1   8 -29   14.28    4.43
  -8  -1 -29   17.16    4.56
  -1   8 -28   20.01    5.07
  -8  -1 -28    9.13    3.54
  -1   8 -27   15.20    4.10
  -8  -1 -27   20.14    4.64
  -1   8 -26    6.90    3.05
  -8  -1 -26    4.36    2.61
  -1   8 -25   32.12    6.19
  -8  -1 -25   30.06    5.70
  -1   8 -24   22.01    5.05
  -8  -1 -24   17.90    4.67
  -1   8 -23   40.61    6.35
  -8  -1 -23   44.02    7.14
  -1   8 -22    8.33    3.44
  -8  -1 -22    5.29    2.49
  -1   8 -21    7.50    2.54
  -1   8 -21   11.47    3.47
  -8  -1 -21   19.32    4.72
  -1   8 -20   36.87    5.84
  -1   8 -20   40.35    5.87
  -8  -1 -20   37.04    6.18
  -1   8 -19   43.31    6.32
  -1   8 -19   45.52    6.22
  -8  -1 -19   48.77    7.31
  -1   8 -18   -1.22    1.79
  -8  -1 -18    4.69    2.62
  -1   8 -17   22.83    4.64
  -8  -1 -17   21.80    5.04
  -1   8 -16    8.69    2.94
  -8  -1 -16   12.13    3.88
  -1   8 -15   25.13    4.71
  -8  -1 -15   28.35    5.45
  -1   8 -14    4.16    2.38
  -8  -1 -14    3.57    2.54
  -1   8 -13  113.25   10.22
  -8  -1 -13  132.19   11.88
  -1   8 -12   72.35    8.23
  -8  -1 -12   68.67    8.48
  -1   8 -11   20.55    4.50
  -8  -1 -11   26.65    5.55
  -1   8 -10   13.88    3.78
  -8  -1 -10   10.70    3.60
  -1   8  -9   24.97    4.81
  -8  -1  -9   41.72    6.59
  -1   8  -8   28.45    5.07
  -8  -1  -8   29.08    5.68
  -1   8  -7   74.17    8.48
  -8  -1  -7   80.01    9.18
  -1   8  -6    7.48    3.12
  -8  -1  -6   12.52    3.78
  -1   8  -5   44.66    6.87
  -8  -1  -5   35.92    6.17
  -1   8  -4   33.08    5.57
  -8  -1  -4   24.76    5.30
  -1   8  -3   46.75    6.93
  -8  -1  -3   64.85    8.19
  -1   8  -2    2.12    2.09
  -8  -1  -2    4.83    2.75
  -1   8  -1   44.78    6.81
  -8  -1  -1   50.74    7.35
  -1   8   0  164.44   12.98
  -8  -1   0  143.38   12.20
  -1   8   1   52.14    7.31
  -8  -1   1   56.17    7.60
  -1   8   2    2.68    2.42
  -8  -1   2    3.04    2.35
  -1   8   3   45.54    6.96
  -8  -1   3   59.55    7.89
  -1   8   4   32.48    6.06
  -8  -1   4   18.79    4.41
  -1   8   5   36.55    6.23
  -8  -1   5   41.59    6.71
  -1   8   6   13.25    3.91
  -8  -1   6    9.42    3.58
  -1   8   7   87.19    9.80
  -8  -1   7   90.05    9.86
  -1   8   8   28.16    5.68
  -8  -1   8   30.21    5.74
  -1   8   9   27.84    5.57
  -8  -1   9   38.78    6.72
  -1   8  10   16.27    4.59
  -8  -1  10   10.82    3.81
  -1   8  11   23.74    5.43
  -8  -1  11   27.36    5.50
  -1   8  12   89.25   10.29
  -8  -1  12   63.95    8.65
  -1   8  13  114.52   11.53
  -8  -1  13  124.61   11.83
  -1   8  14    4.81    3.10
  -8  -1  14    7.39    3.25
  -1   8  15   23.43    5.55
  -8  -1  15   29.89    6.08
  -1   8  16   12.06    3.80
  -8  -1  16    4.75    2.86
  -1   8  17   23.55    5.51
  -8  -1  17   26.22    5.60
  -1   8  18    1.25    2.20
  -8  -1  18    8.41    3.47
  -1   8  19   52.73    7.99
  -8  -1  19   58.02    8.36
  -1   8  20   42.96    7.39
  -8  -1  20   32.97    6.62
  -1   8  21   17.55    4.92
  -8  -1  21   11.57    4.03
  -1   8  22    4.35    2.31
  -8  -1  22    7.05    3.87
  -1   8  23   43.13    7.52
  -8  -1  23   43.98    7.75
  -1   8  24   28.25    6.18
  -8  -1  24   21.39    5.26
  -1   8  25   24.95    5.97
  -8  -1  25   27.64    6.06
  -1   8  26    4.43    3.25
  -8  -1  26    3.87    2.84
  -8  -1  27   22.39    5.58
  -2   8 -30    0.73    1.89
  -8  -2 -30    0.64    2.23
  -2   8 -29    7.57    3.83
  -8  -2 -29    4.76    3.20
  -2   8 -28   40.68    7.30
  -8  -2 -28   42.97    7.13
  -2   8 -27   17.84    4.73
  -8  -2 -27   19.39    5.01
  -2   8 -26    7.39    3.34
  -8  -2 -26    3.62    2.75
  -2   8 -25   11.48    3.93
  -8  -2 -25   16.23    4.99
  -2   8 -24   22.95    5.12
  -8  -2 -24   27.44    5.62
  -2   8 -23   21.32    4.92
  -8  -2 -23   16.46    4.45
  -2   8 -22   12.74    3.50
  -8  -2 -22   15.12    4.52
  -2   8 -21    7.35    2.56
  -8  -2 -21   11.67    4.17
  -2   8 -20   42.87    6.10
  -2   8 -20   41.51    5.99
  -8  -2 -20   47.59    7.40
  -2   8 -19   80.27    8.21
  -2   8 -19   73.42    7.84
  -8  -2 -19   71.14    9.15
  -2   8 -18   10.26    3.12
  -2   8 -18   14.76    3.78
  -8  -2 -18   18.24    4.65
  -2   8 -17   27.65    4.67
  -2   8 -17   29.74    5.40
  -8  -2 -17   14.18    4.49
  -2   8 -16  216.76   14.01
  -2   8 -16  215.21   12.47
  -8  -2 -16  225.58   16.00
  -2   8 -15   12.56    2.96
  -2   8 -15   15.94    4.12
  -8  -2 -15   16.00    4.34
  -2   8 -14    1.62    1.85
  -8  -2 -14    1.56    1.95
  -2   8 -13   42.20    6.41
  -8  -2 -13   41.14    6.77
  -2   8 -12    0.54    1.06
  -8  -2 -12    4.15    2.70
  -2   8 -11    2.31    1.54
  -8  -2 -11    2.87    1.80
  -2   8 -10    8.61    3.21
  -8  -2 -10    7.43    3.15
  -2   8  -9   40.54    6.20
  -8  -2  -9   31.66    5.94
  -2   8  -8   58.26    7.72
  -8  -2  -8   82.41    9.51
  -2   8  -7   15.59    4.10
  -8  -2  -7    8.64    3.54
  -2   8  -6    4.64    2.31
  -8  -2  -6   11.42    3.61
  -2   8  -5   44.56    6.73
  -8  -2  -5   43.68    6.89
  -2   8  -4   34.15    5.99
  -8  -2  -4   58.12    8.03
  -2   8  -3   41.25    6.45
  -8  -2  -3   22.96    5.30
  -2   8  -2    4.04    2.57
  -8  -2  -2    0.91    2.12
  -2   8  -1   12.47    3.78
  -8  -2  -1   16.76    4.42
  -2   8   0  108.02   10.61
  -8  -2   0  103.11   10.69
  -2   8   1   19.01    4.63
  -8  -2   1   18.95    4.76
  -2   8   2    4.21    2.23
  -8  -2   2    3.40    2.85
  -2   8   3   36.78    6.31
  -8  -2   3   31.97    5.98
  -2   8   4   35.49    6.20
  -8  -2   4   62.45    8.36
  -2   8   5   53.07    7.78
  -8  -2   5   38.66    6.50
  -2   8   6    9.05    3.66
  -8  -2   6   12.62    3.70
  -2   8   7    9.17    3.64
  -8  -2   7   10.46    3.84
  -2   8   8   61.87    8.48
  -8  -2   8   71.23    8.97
  -2   8   9   45.12    7.35
  -8  -2   9   30.42    6.18
  -2   8  10    7.39    3.04
  -8  -2  10    5.86    2.51
  -2   8  11    0.68    2.07
  -8  -2  11   -1.10    1.78
  -2   8  12    8.07    3.30
  -8  -2  12    4.10    1.85
  -2   8  13   34.86    6.38
  -8  -2  13   31.45    6.00
  -2   8  14    3.27    2.52
  -8  -2  14    0.02    1.25
  -2   8  15   14.77    4.65
  -8  -2  15   16.74    4.71
  -2   8  16  214.77   16.51
  -8  -2  16  242.70   16.95
  -2   8  17   39.30    7.21
  -8  -2  17   20.19    5.04
  -2   8  18   18.95    5.47
  -8  -2  18   19.04    5.06
  -2   8  19   71.88    9.64
  -8  -2  19   61.29    8.68
  -2   8  20   40.19    7.29
  -8  -2  20   39.59    6.84
  -2   8  21    6.16    3.59
  -8  -2  21    6.69    3.16
  -2   8  22   12.74    4.35
  -8  -2  22   12.74    4.42
  -2   8  23   17.22    4.96
  -8  -2  23   16.62    4.55
  -2   8  24   31.98    6.76
  -8  -2  24   32.76    6.57
  -8  -2  25   11.33    3.66
  -8  -2  26    2.74    2.08
  -8  -2  27   17.46    5.06
  -8  -3 -26   25.89    6.12
  -8  -3 -25   30.20    6.33
  -8  -3 -24   12.91    4.31
  -8  -3 -23   25.05    5.69
  -8  -3 -22    4.06    3.01
  -8  -3 -21   19.60    5.28
  -8  -3 -20   18.51    5.12
  -3   8 -19   43.51    6.00
  -8  -3 -19   50.64    7.88
  -3   8 -18   39.72    5.92
  -8  -3 -18   30.13    6.17
  -3   8 -17    5.35    2.03
  -8  -3 -17    9.76    3.81
  -3   8 -16    7.27    2.86
  -8  -3 -16    8.48    3.42
  -3   8 -15   20.40    4.55
  -8  -3 -15   26.83    5.95
  -3   8 -14   70.84    8.24
  -8  -3 -14   61.85    8.73
  -3   8 -13   80.10    8.84
  -8  -3 -13   87.84   10.36
  -3   8 -12   12.34    3.66
  -8  -3 -12   35.42    6.59
  -3   8 -11   66.19    8.09
  -8  -3 -11   62.83    8.70
  -3   8 -10   51.21    7.18
  -8  -3 -10   42.89    7.10
  -3   8  -9   46.43    6.91
  -8  -3  -9   45.73    7.42
  -3   8  -8    9.95    3.50
  -8  -3  -8    8.43    3.51
  -3   8  -7   41.63    6.54
  -8  -3  -7   31.04    6.02
  -3   8  -6   30.86    5.79
  -8  -3  -6   22.87    5.49
  -3   8  -5    6.27    2.90
  -8  -3  -5   15.75    4.43
  -3   8  -4    2.90    2.09
  -8  -3  -4    7.69    3.41
  -3   8  -3   51.89    7.62
  -8  -3  -3   70.56    8.95
  -3   8  -2  103.76   10.57
  -8  -3  -2   90.55   10.39
  -3   8  -1   35.06    6.18
  -8  -3  -1   48.75    7.53
  -3   8   0    2.99    2.15
  -8  -3   0    4.18    2.46
  -3   8   1   45.83    7.33
  -8  -3   1   57.03    8.10
  -3   8   2  100.91   10.59
  -8  -3   2   84.43   10.00
  -3   8   3   42.09    6.99
  -8  -3   3   49.14    7.58
  -3   8   4    4.99    2.92
  -8  -3   4    6.88    3.06
  -3   8   5   14.16    4.35
  -8  -3   5   15.66    4.31
  -3   8   6   25.73    5.65
  -8  -3   6   23.03    5.27
  -3   8   7   43.58    7.16
  -8  -3   7   39.38    6.92
  -3   8   8    9.57    3.76
  -8  -3   8   11.06    3.98
  -3   8   9   43.35    7.30
  -8  -3   9   41.75    6.96
  -3   8  10   55.69    8.46
  -8  -3  10   44.99    7.41
  -3   8  11   63.40    8.92
  -8  -3  11   59.90    8.40
  -3   8  12   17.56    5.03
  -8  -3  12   34.97    6.40
  -3   8  13   94.28   10.86
  -8  -3  13  100.62   11.01
  -3   8  14   92.61   10.75
  -8  -3  14   66.42    8.93
  -3   8  15   19.92    5.23
  -8  -3  15   21.06    5.02
  -3   8  16    9.49    3.89
  -8  -3  16    9.08    3.67
  -3   8  17    4.20    2.77
  -8  -3  17    4.38    2.40
  -3   8  18   42.23    7.61
  -8  -3  18   27.92    5.93
  -3   8  19   61.24    8.91
  -8  -3  19   54.10    8.29
  -3   8  20   12.93    4.45
  -8  -3  20   10.87    3.61
  -8  -3  21   21.36    5.05
  -8  -3  22    5.66    3.17
  -8  -3  23   34.70    6.77
  -8  -3  24   10.97    3.84
  -8  -3  25   27.56    6.15
  -8  -3  26   16.74    4.76
  -8  -3  27   15.87    4.68
  -8  -4 -18   50.87    8.22
  -4   8 -17    2.57    2.10
  -8  -4 -17    4.55    2.73
  -4   8 -16    3.76    2.37
  -8  -4 -16    1.39    1.79
  -4   8 -15    7.76    3.05
  -8  -4 -15   14.88    4.49
  -4   8 -14   61.03    7.76
  -8  -4 -14   74.43    9.68
  -4   8 -13   -0.65    1.74
  -8  -4 -13    5.25    3.53
  -4   8 -12    1.43    1.38
  -8  -4 -12   -1.43    1.27
  -4   8 -11   18.06    4.66
  -8  -4 -11   14.12    4.64
  -4   8 -10  102.06   10.43
  -8  -4 -10   98.39   11.18
  -4   8  -9    4.34    2.58
  -8  -4  -9    7.20    3.10
  -4   8  -8   12.48    3.87
  -8  -4  -8   15.20    4.74
  -4   8  -7    1.61    1.87
  -8  -4  -7    5.25    2.88
  -4   8  -6   62.14    8.32
  -8  -4  -6   60.36    8.73
  -4   8  -5   10.31    3.25
  -8  -4  -5    7.22    3.30
  -4   8  -4    8.18    3.23
  -8  -4  -4    5.75    3.29
  -4   8  -3    4.57    2.80
  -8  -4  -3    5.90    2.99
  -4   8  -2   72.28    9.22
  -8  -4  -2   72.27    9.41
  -4   8  -1   13.63    4.55
  -8  -4  -1    9.63    3.16
  -4   8   0    4.61    2.93
  -8  -4   0    2.36    2.76
  -4   8   1   11.52    4.02
  -8  -4   1    9.12    3.63
  -4   8   2   70.76    9.17
  -8  -4   2   72.94    9.40
  -4   8   3    4.77    2.89
  -8  -4   3   10.92    4.14
  -4   8   4    8.68    3.57
  -8  -4   4    5.62    2.70
  -4   8   5    9.18    3.64
  -8  -4   5    4.71    2.69
  -4   8   6   68.95    9.28
  -8  -4   6   57.00    8.44
  -4   8   7    3.84    2.64
  -8  -4   7    4.91    3.18
  -4   8   8   13.54    4.02
  -8  -4   8   17.04    4.68
  -4   8   9    4.39    3.42
  -8  -4   9    4.81    2.87
  -4   8  10  116.32   12.20
  -8  -4  10  113.77   11.92
  -4   8  11   16.78    4.75
  -8  -4  11   14.22    4.32
  -4   8  12    0.19    1.72
  -8  -4  12   -0.55    1.54
  -4   8  13    7.01    4.04
  -8  -4  13    3.47    2.49
  -4   8  14   78.75   10.30
  -8  -4  14   63.81    9.00
  -4   8  15   12.21    4.18
  -8  -4  15   16.67    4.78
  -8  -4  16    3.25    2.67
  -8  -4  17    3.06    2.40
  -8  -4  18   50.60    7.98
  -8  -4  19    0.01    1.45
  -8  -4  20    7.92    3.36
  -8  -4  21    7.07    3.49
  -8  -4  22   48.18    7.80
  -8  -4  23    4.07    2.36
  -8  -4  24    3.98    2.79
  -5   8 -15   27.24    5.37
  -5   8 -14   11.51    4.01
  -5   8 -13    8.14    3.05
  -5   8 -12   23.15    5.31
  -5   8 -11   17.47    4.57
  -5   8 -10    1.52    1.89
  -5   8  -9    5.88    2.61
  -5   8  -8    1.06    1.83
  -8  -5  -8   -3.71    2.43
  -5   8  -7   15.80    4.70
  -8  -5  -7   13.38    4.52
  -5   8  -6   12.99    4.28
  -8  -5  -6   16.25    4.38
  -5   8  -5   20.77    5.13
  -8  -5  -5   27.21    6.15
  -5   8  -4   28.98    6.09
  -8  -5  -4   20.82    5.07
  -5   8  -3   15.15    4.81
  -8  -5  -3   11.01    4.19
  -5   8  -2   31.24    6.23
  -8  -5  -2   40.48    7.37
  -5   8  -1   19.94    5.28
  -8  -5  -1   21.44    5.87
  -5   8   0   23.64    6.07
  -8  -5   0   15.07    4.60
  -5   8   1   27.45    5.96
  -8  -5   1   16.63    4.88
  -5   8   2   36.83    7.18
  -8  -5   2   43.04    7.47
  -5   8   3   16.22    4.91
  -8  -5   3   19.83    5.25
  -5   8   4   29.70    6.38
  -8  -5   4   25.04    5.78
  -5   8   5   18.97    5.09
  -8  -5   5   22.57    5.65
  -5   8   6   15.56    4.82
  -8  -5   6   21.85    5.46
  -5   8   7   14.23    4.36
  -8  -5   7    7.78    3.66
  -5   8   8    7.06    3.22
  -8  -5   8    2.51    2.15
  -5   8   9   10.25    4.01
  -8  -5   9    9.44    3.78
  -8  -5  10   10.54    3.97
  -8  -5  11   25.74    6.23
  -8  -5  12   13.88    4.53
  -8  -5  13    9.50    4.11
  -8  -5  14   13.71    4.37
  -8  -5  15   30.65    6.40
  -8  -5  16   19.88    5.05
  -8  -5  17   17.08    4.84
  -8  -5  18   10.13    3.85
  -6   8 -13    1.50    2.08
  -6   8 -12   31.07    6.45
  -6   8 -11   -0.90    2.59
  -6   8 -10   -0.90    1.57
  -6   8  -9    4.15    2.92
  -6   8  -8   30.86    6.39
  -6   8  -7    1.96    2.18
  -6   8  -6    4.09    3.06
  -6   8  -5    6.54    3.26
  -6   8  -4   36.93    7.09
  -6   8  -3   -2.26    2.45
  -6   8  -2    2.97    2.45
  -6   8  -1   12.48    4.57
  -6   8   0   53.63    8.64
  -9   5 -12   11.50    4.19
  -9   5 -11   13.15    4.47
  -9   5  -9    5.48    2.94
  -9   5  -8    3.57    2.73
  -9   5  -7   10.36    3.49
  -9   5  -6    0.56    1.93
  -9   5  -5    6.30    3.21
  -9   5  -4    8.39    3.08
  -9   5  -3   11.77    4.06
  -9   5  -2   23.21    6.03
  -9   5  -1   30.59    6.68
  -9   5   0    6.46    3.37
  -5  -9   4    3.81    2.42
  -5  -9   5    6.65    2.79
  -5  -9   6   -1.99    2.46
  -5  -9   7    9.00    3.71
  -5  -9   8    7.86    3.66
  -5  -9   9   12.67    4.72
  -5  -9  10   24.62    5.96
  -5  -9  11   18.45    5.14
  -5  -9  12   10.25    3.71
  -9   4 -13   17.46    4.99
  -9   4 -12    6.06    3.11
  -9   4 -11   26.69    5.63
  -9   4 -10   10.07    3.89
  -9   4  -9   15.55    4.15
  -9   4  -8    2.12    2.28
  -9   4  -7   26.21    5.60
  -9   4  -6    5.19    3.43
  -9   4  -5   29.00    5.77
  -4  -9  -5   35.66    6.85
  -9   4  -4    5.96    3.02
  -4  -9  -4    3.61    2.42
  -9   4  -3    6.52    3.19
  -4  -9  -3   10.15    3.53
  -9   4  -2   17.46    4.92
  -4  -9  -2   11.30    4.41
  -9   4  -1   14.99    3.99
  -4  -9  -1   20.57    5.08
  -9   4   0    1.35    1.83
  -4  -9   0    0.61    1.38
  -9   4   1   23.53    5.86
  -4  -9   1   20.83    5.11
  -9   4   2   25.41    6.07
  -4  -9   2   16.59    4.77
  -9   4   3    6.04    2.73
  -4  -9   3   13.95    4.05
  -9   4   4    3.14    2.86
  -4  -9   4    1.66    1.91
  -9   4   5   43.64    7.76
  -4  -9   5   37.83    6.73
  -4  -9   6    5.15    2.95
  -4  -9   7   20.44    4.96
  -4  -9   8    0.08    1.16
  -4  -9   9   12.85    4.01
  -4  -9  10   13.08    4.33
  -4  -9  11   25.24    5.42
  -4  -9  12    2.13    2.18
  -9   3 -16   51.62    7.49
  -9   3 -15   30.01    5.68
   3   9 -14    5.27    2.89
  -9   3 -14    6.88    3.11
   3   9 -13    6.12    3.11
  -9   3 -13   -0.47    2.15
   3   9 -12   22.27    5.31
  -9   3 -12   27.08    5.86
   3   9 -11   11.96    4.00
  -9   3 -11   16.69    4.35
   3   9 -10    0.42    1.44
  -9   3 -10    2.57    2.45
   3   9  -9    9.68    3.56
  -9   3  -9    9.14    3.28
   3   9  -8   17.07    4.80
  -9   3  -8   15.08    4.39
   3   9  -7    4.21    3.30
  -9   3  -7    5.26    2.87
   3   9  -6    1.38    1.80
  -9   3  -6    0.59    1.85
   3   9  -5    8.46    4.04
  -9   3  -5   12.53    3.86
   3   9  -4   42.48    7.46
  -9   3  -4   37.12    6.59
   3   9  -3   11.08    3.84
  -9   3  -3   17.75    4.86
   3   9  -2   -1.80    1.82
  -9   3  -2    6.95    3.42
   3   9  -1   34.30    6.96
  -9   3  -1   38.55    6.92
   3   9   0   73.75    9.87
  -9   3   0   88.36   10.47
   3   9   1   34.29    7.01
  -9   3   1   37.50    7.08
  -3  -9   1   37.06    6.52
   3   9   2    6.59    3.55
  -9   3   2    3.60    3.04
  -3  -9   2    0.68    1.28
   3   9   3   21.36    5.79
  -9   3   3   19.52    5.11
  -3  -9   3   19.21    4.71
   3   9   4   37.90    7.23
  -9   3   4   43.11    7.62
  -3  -9   4   35.09    6.24
   3   9   5   16.88    5.04
  -9   3   5   12.88    4.19
  -3  -9   5   11.89    3.74
   3   9   6    0.67    1.44
  -9   3   6    1.57    2.69
  -3  -9   6    0.03    1.45
   3   9   7    4.58    3.02
  -9   3   7    4.86    3.22
  -3  -9   7    6.15    2.85
  -9   3   8   10.85    4.05
  -3  -9   8   15.91    3.97
  -9   3   9   15.52    4.62
  -3  -9   9   10.83    3.26
  -3  -9  10    0.10    1.19
  -3  -9  11   16.53    4.11
  -3  -9  12   24.59    4.76
   2   9 -19   28.10    5.82
  -9   2 -19   22.21    5.10
   2   9 -18    5.85    2.81
  -9   2 -18    2.26    1.65
   2   9 -17    4.95    2.34
  -9   2 -17    4.30    2.38
   2   9 -16   23.24    5.22
  -9   2 -16   24.26    5.48
   2   9 -15   12.17    3.75
  -9   2 -15   10.47    3.28
   2   9 -14    3.52    2.30
  -9   2 -14   10.25    3.53
   2   9 -13   21.79    5.34
  -9   2 -13   17.80    4.62
   2   9 -12   31.90    6.22
  -9   2 -12   48.62    7.56
   2   9 -11    9.92    4.06
  -9   2 -11    8.54    3.24
   2   9 -10   -0.22    2.12
  -9   2 -10    3.36    2.45
   2   9  -9   32.27    6.27
  -9   2  -9   23.06    5.24
   2   9  -8   24.16    5.42
  -9   2  -8   17.83    4.63
   2   9  -7   22.91    5.38
  -9   2  -7   16.53    4.54
   2   9  -6    0.12    1.63
  -9   2  -6    4.57    2.60
   2   9  -5   25.96    5.56
  -9   2  -5   20.13    4.92
   2   9  -4   44.42    7.39
  -9   2  -4   49.61    7.81
   2   9  -3   38.85    6.85
  -9   2  -3   27.92    5.88
   2   9  -2    9.86    4.00
  -9   2  -2    5.95    3.02
   2   9  -1    8.44    3.71
  -9   2  -1   14.63    4.25
   2   9   0   27.36    6.05
  -9   2   0   46.21    7.61
   2   9   1   13.35    4.09
  -9   2   1   19.54    4.99
   2   9   2   -0.21    1.84
  -9   2   2    7.16    3.02
   2   9   3   37.81    6.93
  -9   2   3   40.02    7.04
   2   9   4   35.75    7.00
  -9   2   4   47.66    7.79
   2   9   5   34.04    6.69
  -9   2   5   23.86    5.64
   2   9   6    4.14    3.02
  -9   2   6    1.42    2.44
   2   9   7   19.90    5.19
  -9   2   7   20.62    5.24
  -2  -9   7   13.66    3.61
   2   9   8   17.57    5.11
  -9   2   8   30.22    6.68
  -2  -9   8   21.42    4.62
   2   9   9   27.79    6.21
  -9   2   9   30.72    6.64
  -2  -9   9   30.74    5.44
   2   9  10   -0.60    1.61
  -9   2  10   -0.66    1.60
  -2  -9  10    2.60    1.86
   2   9  11   14.04    4.60
  -9   2  11   11.72    4.34
  -2  -9  11   12.72    3.50
   2   9  12   36.38    7.08
  -9   2  12   51.84    8.40
  -2  -9  12   39.66    6.04
  -9   1 -22   30.94    5.84
   1   9 -21    4.31    2.62
  -9   1 -21    9.52    3.40
   1   9 -20    1.39    1.65
  -9   1 -20    4.44    2.60
   1   9 -19    9.26    3.28
  -9   1 -19   13.47    3.95
   1   9 -18   22.48    4.70
  -9   1 -18   21.50    4.98
   1   9 -17    8.13    3.45
  -9   1 -17   11.02    3.85
   1   9 -16    4.79    3.07
  -9   1 -16    4.74    2.88
   1   9 -15   12.55    3.78
  -9   1 -15   10.23    3.72
   1   9 -14   55.86    8.06
  -9   1 -14   56.79    8.02
   1   9 -13   17.27    4.56
  -9   1 -13   25.75    5.58
   1   9 -12    1.35    1.97
  -9   1 -12    2.59    2.49
   1   9 -11    4.61    2.78
  -9   1 -11    6.24    2.99
   1   9 -10   43.05    7.07
  -9   1 -10   34.20    6.57
   1   9  -9   13.55    4.22
  -9   1  -9   23.78    5.42
   1   9  -8    5.53    2.94
  -9   1  -8    1.89    1.67
   1   9  -7   11.91    4.08
  -9   1  -7   13.11    4.16
   1   9  -6   31.50    6.22
  -9   1  -6   22.40    5.30
   1   9  -5   11.16    4.04
  -9   1  -5    5.74    3.41
   1   9  -4    3.31    2.70
  -9   1  -4    5.44    2.78
   1   9  -3   25.58    5.69
  -9   1  -3   18.31    4.46
   1   9  -2   66.17    9.03
  -9   1  -2   69.06    9.12
   1   9  -1   36.70    6.71
  -9   1  -1   43.63    7.50
   1   9   0    3.70    2.41
  -9   1   0    6.07    2.96
   1   9   1   29.48    6.20
  -9   1   1   37.67    6.84
   1   9   2   64.06    8.99
  -9   1   2   63.09    8.78
   1   9   3   25.80    5.81
  -9   1   3   35.15    6.72
   1   9   4    5.20    3.08
  -9   1   4    5.28    2.85
   1   9   5    2.78    2.13
  -9   1   5    8.05    3.27
   1   9   6   29.42    6.09
  -9   1   6   22.57    5.40
   1   9   7   12.27    4.22
  -9   1   7   10.65    4.07
   1   9   8    2.25    2.41
  -9   1   8   -1.10    1.91
   1   9   9   23.06    5.30
  -9   1   9   22.79    5.60
   1   9  10   35.04    6.58
  -9   1  10   42.27    7.45
   1   9  11    7.03    3.67
  -9   1  11   14.12    4.98
  -1  -9  11    7.33    2.79
   1   9  12    3.72    2.41
  -9   1  12   -1.83    2.31
   1   9  13   14.87    4.16
  -9   1  13   17.20    4.82
   1   9  14   64.13    9.33
  -9   1  14   59.26    8.83
   1   9  15   14.04    4.50
  -9   0 -24    3.77    1.85
  -9   0 -23   20.43    4.66
  -9   0 -22   33.62    6.30
  -9   0 -21    1.42    1.79
   0   9 -20    3.95    2.19
  -9   0 -20    4.92    3.07
   0   9 -19    1.43    1.80
  -9   0 -19    7.68    3.41
   0   9 -18   62.02    8.05
  -9   0 -18   59.34    8.13
   0   9 -17    5.11    2.50
  -9   0 -17    5.47    2.88
   0   9 -16    2.59    1.91
  -9   0 -16    1.16    1.54
   0   9 -15    1.24    1.43
  -9   0 -15    3.04    2.24
   0   9 -14   58.42    8.22
  -9   0 -14   65.87    8.80
   0   9 -13    1.02    1.56
  -9   0 -13    3.59    2.59
   0   9 -12    3.78    2.88
  -9   0 -12    0.54    1.24
   0   9 -11   22.07    4.98
  -9   0 -11   16.65    4.61
   0   9 -10   65.36    8.84
  -9   0 -10   82.05    9.81
   0   9  -9   16.51    4.64
  -9   0  -9   12.81    4.07
   0   9  -8    2.22    1.78
  -9   0  -8   -1.19    1.95
   0   9  -7   18.99    4.84
  -9   0  -7   17.04    4.81
   0   9  -6   78.89    9.56
  -9   0  -6  103.58   10.99
   0   9  -5   22.68    5.01
  -9   0  -5   17.76    4.63
   0   9  -4   10.88    3.69
  -9   0  -4    8.98    3.59
   0   9  -3   10.94    4.07
  -9   0  -3    5.19    2.64
   0   9  -2   80.97    9.68
  -9   0  -2   84.19    9.99
   0   9  -1   18.09    4.79
  -9   0  -1   10.32    3.51
   0   9   0    0.24    1.35
  -9   0   0    1.58    2.00
   0   9   1   20.29    5.00
  -9   0   1   12.74    4.34
   0   9   2   86.38   10.21
  -9   0   2   91.35   10.55
   0   9   3    6.96    3.31
  -9   0   3    4.22    2.98
   0   9   4    7.96    3.03
  -9   0   4    7.36    3.64
   0   9   5   26.10    5.75
  -9   0   5   13.97    4.20
   0   9   6   73.79    9.62
  -9   0   6   92.96   10.84
   0   9   7   13.21    4.28
  -9   0   7   16.23    5.06
   0   9   8    0.31    1.32
  -9   0   8   -1.01    2.18
   0   9   9   16.20    4.98
  -9   0   9    9.19    3.94
   0   9  10   67.83    9.28
  -9   0  10   78.14   10.06
   0   9  11   32.76    7.03
  -9   0  11   21.75    5.91
   0   9  12    1.52    2.02
  -9   0  12    1.91    2.43
   0   9  13   10.97    4.21
  -9   0  13   -0.26    1.33
   0   9  14   77.04   10.29
  -9   0  14   74.33   10.08
   0   9  15    2.18    2.60
  -9   0  15    3.01    2.10
  -9  -1 -25    0.23    1.92
  -9  -1 -24   18.63    4.97
  -9  -1 -23   38.12    7.07
  -9  -1 -22   16.18    4.65
  -9  -1 -21   20.07    5.30
  -9  -1 -20    8.81    3.06
  -1   9 -19    2.63    1.67
  -9  -1 -19    5.21    2.97
  -1   9 -18    2.93    2.45
  -9  -1 -18   10.02    3.97
  -1   9 -17   19.33    4.52
  -9  -1 -17   22.37    5.32
  -1   9 -16   39.55    6.73
  -9  -1 -16   28.31    6.19
  -1   9 -15   39.15    6.85
  -9  -1 -15   46.08    7.61
  -1   9 -14    3.63    2.71
  -9  -1 -14    1.50    2.39
  -1   9 -13    6.48    3.24
  -9  -1 -13    8.17    3.21
  -1   9 -12   40.24    6.49
  -9  -1 -12   38.92    6.94
  -1   9 -11   29.44    5.60
  -9  -1 -11   33.73    6.93
  -1   9 -10   18.65    4.82
  -9  -1 -10   22.96    5.84
  -1   9  -9   24.45    5.19
  -9  -1  -9   28.80    6.08
  -1   9  -8   27.74    5.52
  -9  -1  -8   30.81    6.24
  -1   9  -7   19.24    5.03
  -9  -1  -7   25.47    5.74
  -1   9  -6    8.43    3.14
  -9  -1  -6   11.03    3.66
  -1   9  -5   36.60    6.64
  -9  -1  -5   41.92    7.17
  -1   9  -4   26.91    5.75
  -9  -1  -4   20.93    5.06
  -1   9  -3    8.31    3.44
  -9  -1  -3   14.42    4.23
  -1   9  -2    7.01    3.21
  -9  -1  -2   13.75    4.11
  -1   9  -1    1.45    1.23
  -9  -1  -1    7.22    3.04
  -1   9   0    6.15    2.57
  -9  -1   0   11.49    3.92
  -1   9   1   10.95    4.13
  -9  -1   1    6.10    2.82
  -1   9   2    5.02    3.05
  -9  -1   2    9.77    3.90
  -1   9   3    5.09    3.01
  -9  -1   3   15.35    4.35
  -1   9   4   21.17    5.41
  -9  -1   4   18.58    4.99
  -1   9   5   35.09    6.70
  -9  -1   5   34.20    6.63
  -1   9   6   15.56    4.66
  -9  -1   6   16.50    4.63
  -1   9   7   15.42    4.39
  -9  -1   7   23.82    5.76
  -1   9   8   41.25    7.49
  -9  -1   8   24.70    5.99
  -1   9   9   28.06    6.19
  -9  -1   9   28.40    6.29
  -1   9  10   23.74    5.73
  -9  -1  10   22.33    5.43
  -1   9  11   35.26    7.04
  -9  -1  11   41.48    7.25
  -1   9  12   37.01    6.94
  -9  -1  12   37.53    7.14
  -1   9  13    9.43    4.19
  -9  -1  13   10.67    4.21
  -1   9  14    3.91    3.67
  -9  -1  14    2.86    2.85
  -9  -1  15   28.44    6.35
  -9  -2 -20   63.09    9.27
  -9  -2 -19    6.66    3.75
  -2   9 -18    5.30    2.35
  -9  -2 -18    4.26    2.75
  -2   9 -17    4.14    2.55
  -9  -2 -17    6.07    3.27
  -2   9 -16   26.71    5.86
  -9  -2 -16   39.28    7.24
  -2   9 -15    0.86    1.67
  -9  -2 -15    0.50    1.93
  -2   9 -14   -1.73    1.48
  -9  -2 -14    0.27    1.47
  -2   9 -13   12.03    3.88
  -9  -2 -13   14.60    4.62
  -2   9 -12   72.13    8.86
  -9  -2 -12   75.37    9.91
  -2   9 -11   -0.10    1.76
  -9  -2 -11    2.18    2.95
  -2   9 -10    0.29    1.34
  -9  -2 -10    2.77    2.20
  -2   9  -9   21.83    5.40
  -9  -2  -9   19.85    5.18
  -2   9  -8   44.96    7.39
  -9  -2  -8   56.32    8.54
  -2   9  -7   21.27    5.33
  -9  -2  -7   16.21    4.40
  -2   9  -6    1.44    1.50
  -9  -2  -6    3.34    1.93
  -2   9  -5   23.27    5.31
  -9  -2  -5   22.44    5.76
  -2   9  -4   53.83    8.12
  -9  -2  -4   65.75    9.12
  -2   9  -3    9.23    3.70
  -9  -2  -3    1.60    1.25
  -2   9  -2    7.23    3.31
  -9  -2  -2    9.53    3.81
  -2   9  -1    4.70    2.84
  -9  -2  -1    3.14    2.46
  -2   9   0   47.64    7.59
  -9  -2   0   51.96    8.20
  -2   9   1    6.11    3.34
  -9  -2   1    7.51    3.59
  -2   9   2   14.36    4.15
  -9  -2   2   17.40    4.85
  -2   9   3   16.85    5.07
  -9  -2   3    6.68    3.10
  -2   9   4   58.68    8.66
  -9  -2   4   59.56    8.74
  -2   9   5   19.92    5.25
  -9  -2   5   20.67    5.23
  -2   9   6   -0.46    1.71
  -9  -2   6    9.07    3.99
  -2   9   7   23.69    5.68
  -9  -2   7   16.30    4.66
  -2   9   8   49.71    8.19
  -9  -2   8   47.58    8.00
  -2   9   9   10.97    4.31
  -9  -2   9   12.60    3.98
  -2   9  10    2.95    2.00
  -9  -2  10    2.04    2.39
  -2   9  11    5.04    3.24
  -9  -2  11    0.57    1.58
  -2   9  12   81.56   10.41
  -9  -2  12   71.60    9.74
  -9  -2  13   15.15    4.75
  -3   9 -16   12.15    3.84
  -3   9 -15    9.73    3.57
  -3   9 -14   14.55    4.30
  -3   9 -13   28.06    5.82
  -3   9 -12    2.65    1.68
  -3   9 -11    7.34    3.41
  -3   9 -10    0.95    1.28
  -3   9  -9   27.07    5.98
  -9  -3  -9   30.23    6.78
  -3   9  -8   27.61    5.97
  -9  -3  -8   37.93    7.37
  -3   9  -7   55.67    8.17
  -9  -3  -7   49.83    8.17
  -3   9  -6   11.44    3.71
  -9  -3  -6   10.49    4.33
  -3   9  -5   30.40    6.31
  -9  -3  -5   30.28    6.65
  -3   9  -4   21.27    5.26
  -9  -3  -4   34.20    6.99
  -3   9  -3   54.20    8.36
  -9  -3  -3   50.07    7.97
  -3   9  -2    2.92    2.67
  -9  -3  -2    2.34    2.57
  -3   9  -1   34.09    6.79
  -9  -3  -1   23.48    5.62
  -3   9   0    7.27    3.65
  -9  -3   0    6.70    3.96
  -3   9   1   21.83    5.52
  -9  -3   1   20.66    5.28
  -3   9   2   -1.46    1.83
  -9  -3   2    2.77    2.71
  -3   9   3   57.53    8.67
  -9  -3   3   46.41    7.95
  -3   9   4   32.53    6.75
  -9  -3   4   37.52    7.19
  -3   9   5   28.64    6.54
  -9  -3   5   32.06    6.55
  -3   9   6   10.41    4.23
  -9  -3   6    6.10    3.13
  -3   9   7   69.35    9.73
  -9  -3   7   47.37    7.97
  -3   9   8   21.22    5.46
  -9  -3   8   35.82    7.12
  -4   9 -14   14.55    4.80
  -4   9 -13    9.64    3.84
  -4   9 -12    2.59    2.62
  -4   9 -11    1.25    1.74
  -4   9 -10   26.88    5.78
  -4   9  -9   14.93    4.59
  -4   9  -8    8.63    3.67
  -4   9  -7   13.61    4.52
  -4   9  -6   46.93    8.01
  -4   9  -5   10.79    3.78
  -4   9  -4    0.83    1.45
  -4   9  -3   13.88    4.20
  -4   9  -2   37.23    7.29
  -4   9  -1    6.21    3.64
  -4   9   0   12.49    3.80
  -4   9   1   11.20    4.23
  -4   9   2   32.86    6.96
  -5   9 -12   11.81    4.13
  -5   9 -11   40.52    7.57
  -5   9 -10    4.19    2.93
  -5   9  -9   23.76    5.91
  -5   9  -8    4.08    2.33
  -5   9  -7   31.81    6.68
  -3 -10   1   19.56    5.39
  -3 -10   2    1.02    1.93
  -3 -10   3    5.87    3.14
  -3 -10   4   27.36    5.84
  -3 -10   5    5.56    3.48
  -3 -10   6    6.48    2.89
  -3 -10   7    4.47    2.65
 -10   2 -15   13.83    4.37
 -10   2 -14    7.70    3.41
 -10   2 -13    1.94    1.93
 -10   2 -12   17.83    4.69
  -2 -10   5   16.22    4.34
  -2 -10   6    2.88    1.90
  -2 -10   7   11.54    3.84
   1  10 -16    2.11    2.15
   1  10 -15   13.15    4.33
   1  10 -14   12.67    4.40
   1  10 -13   18.15    4.87
   1  10 -12   -1.31    1.95
   0  10 -16    0.63    2.77
   0  10 -15    9.96    3.77
   0  10 -14   10.10    3.77
   0  10 -13   16.34    4.54
   0  10 -12   19.41    5.39
   0  10 -11   21.35    5.44
   0  10 -10   22.07    5.41
   0  10  -9    9.58    3.91
   0  10  -8   -0.65    1.61
   0  10  -7    7.72    3.17
   0  10  -6   27.71    6.34
  -1  10 -16    6.10    3.25
  -1  10 -15   17.23    4.71
  -1  10 -14    5.40    2.90
  -1  10 -13   31.11    6.25
  -1  10 -12   11.16    4.38
  -1  10 -11    8.93    3.88
  -1  10 -10   -1.41    2.33
  -1  10  -9    8.56    2.90
  -1  10  -8   -1.85    1.43
  -1  10  -7   24.91    5.74
  -1  10  -6    0.02    1.36
  -2  10 -14   28.16    6.33
  -2  10 -13   14.16    4.28
  -2  10 -12    6.41    3.56
  -2  10 -11    6.53    3.46
  -2  10 -10   22.11    5.52
  -2  10  -9   15.82    4.48
  -2  10  -8    9.10    3.79
   0   0   0    0.00    0.00


TITL pvl721_auto in P4(1)
REM P4(1) (#76 in standard setting)
CELL 0.71073   7.854897   7.854897  35.554101  90.0000  90.0000  90.0000
ZERR    4.00   0.000209   0.000209   0.001263   0.0000   0.0000   0.0000
LATT -1
SYMM -x,-y, z+1/2
SYMM -y, x, z+1/4
SYMM  y,-x, z+3/4
SFAC C H N O S Cd
UNIT 80.00 80.00 16.00 32.00 8.00 4.00
REM  CrysAlisPro recorded range (K): Min=170.0; max=170.0; aver:170.0
TEMP -103
TREF
HKLF 4
END
_computing_structure_solution     'SHELXT 2018/2 (Sheldrick, 2018)'
;
_shelx_hkl_checksum   80340

