 
data_pvl730_tP_a
 
_audit_creation_method            'SHELXL-2018/3'
_shelx_SHELXL_version_number      '2018/3'
_chemical_name_systematic         ?
_chemical_name_common             ?
_chemical_melting_point           ?
_chemical_formula_moiety          ?
_chemical_formula_sum
 'C H Cd N O S' 
_chemical_formula_weight          187.49

loop_
 _atom_type_symbol
 _atom_type_description
 _atom_type_scat_dispersion_real
 _atom_type_scat_dispersion_imag
 _atom_type_scat_source
 'C'  'C'   0.0033   0.0016
 'International Tables Vol C Tables 4.2.6.8 and 6.1.1.4'
 'H'  'H'   0.0000   0.0000
 'International Tables Vol C Tables 4.2.6.8 and 6.1.1.4'
 'N'  'N'   0.0061   0.0033
 'International Tables Vol C Tables 4.2.6.8 and 6.1.1.4'
 'O'  'O'   0.0106   0.0060
 'International Tables Vol C Tables 4.2.6.8 and 6.1.1.4'
 'S'  'S'   0.1246   0.1234
 'International Tables Vol C Tables 4.2.6.8 and 6.1.1.4'
 'Cd'  'Cd'  -0.8075   1.2024
 'International Tables Vol C Tables 4.2.6.8 and 6.1.1.4'
 
_space_group_crystal_system       triclinic
_space_group_IT_number            2
_space_group_name_H-M_alt         'P -1'
_space_group_name_Hall            '-P 1'
 
_shelx_space_group_comment
;
The symmetry employed for this shelxl refinement is uniquely defined
by the following loop, which should always be used as a source of
symmetry information in preference to the above space-group names.
They are only intended as comments.
;
 
loop_
 _space_group_symop_operation_xyz
 'x, y, z'
 '-x, -y, -z'
 
_cell_length_a                    10.356(2)
_cell_length_b                    13.336(4)
_cell_length_c                    19.197(4)
_cell_angle_alpha                 83.289(7)
_cell_angle_beta                  78.516(7)
_cell_angle_gamma                 69.287(7)
_cell_volume                      2426.9(11)
_cell_formula_units_Z             23
_cell_measurement_temperature     150(2)
_cell_measurement_reflns_used     ?
_cell_measurement_theta_min       ?
_cell_measurement_theta_max       ?
 
_exptl_crystal_description        ?
_exptl_crystal_colour             ?
_exptl_crystal_density_meas       ?
_exptl_crystal_density_method     ?
_exptl_crystal_density_diffrn     2.950          
_exptl_crystal_F_000              1978
_exptl_transmission_factor_min    ?
_exptl_transmission_factor_max    ?
_exptl_crystal_size_max           ?
_exptl_crystal_size_mid           ?
_exptl_crystal_size_min           ?
_exptl_absorpt_coefficient_mu     5.474
_shelx_estimated_absorpt_T_min    ?
_shelx_estimated_absorpt_T_max    ?
_exptl_absorpt_correction_type    ?
_exptl_absorpt_correction_T_min   ?
_exptl_absorpt_correction_T_max   ?
_exptl_absorpt_process_details    ?
_exptl_absorpt_special_details    ?
_diffrn_ambient_temperature       150(2)
_diffrn_radiation_wavelength      0.71073
_diffrn_radiation_type            MoK\a
_diffrn_source                    ?
_diffrn_measurement_device_type   ?
_diffrn_measurement_method        ?
_diffrn_detector_area_resol_mean  ?
_diffrn_reflns_number             27589
_diffrn_reflns_av_unetI/netI      0.0990
_diffrn_reflns_av_R_equivalents   0.0743
_diffrn_reflns_limit_h_min        -12
_diffrn_reflns_limit_h_max        12
_diffrn_reflns_limit_k_min        -16
_diffrn_reflns_limit_k_max        16
_diffrn_reflns_limit_l_min        -23
_diffrn_reflns_limit_l_max        23
_diffrn_reflns_theta_min          1.635
_diffrn_reflns_theta_max          26.408
_diffrn_reflns_theta_full         25.242
_diffrn_measured_fraction_theta_max   0.976
_diffrn_measured_fraction_theta_full  0.991
_diffrn_reflns_Laue_measured_fraction_max    0.976
_diffrn_reflns_Laue_measured_fraction_full   0.991
_diffrn_reflns_point_group_measured_fraction_max   0.976
_diffrn_reflns_point_group_measured_fraction_full  0.991
_reflns_number_total              9723
_reflns_number_gt                 6877
_reflns_threshold_expression      'I > 2\s(I)'
_reflns_Friedel_coverage          0.000
_reflns_Friedel_fraction_max      .
_reflns_Friedel_fraction_full     .
 
_reflns_special_details
;
 Reflections were merged by SHELXL according to the crystal
 class for the calculation of statistics and refinement.
 
 _reflns_Friedel_fraction is defined as the number of unique
 Friedel pairs measured divided by the number that would be
 possible theoretically, ignoring centric projections and
 systematic absences.
;
 
_computing_data_collection        ?
_computing_cell_refinement        ?
_computing_data_reduction         ?
_computing_structure_solution     'SHELXT 2018/2 (Sheldrick, 2018)'
_computing_structure_refinement 'SHELXL-2018/3 (Sheldrick, 2018)'
_computing_molecular_graphics     ?
_computing_publication_material   ?
_refine_special_details           ?
_refine_ls_structure_factor_coef  Fsqd
_refine_ls_matrix_type            full
_refine_ls_weighting_scheme       calc
_refine_ls_weighting_details
'w=1/[\s^2^(Fo^2^)+(0.1000P)^2^] where P=(Fo^2^+2Fc^2^)/3'
_atom_sites_solution_primary      ?
_atom_sites_solution_secondary    ?
_atom_sites_solution_hydrogens    .
_refine_ls_hydrogen_treatment     undef
_refine_ls_extinction_method      none
_refine_ls_extinction_coef        .
_refine_ls_number_reflns          9723
_refine_ls_number_parameters      685
_refine_ls_number_restraints      0
_refine_ls_R_factor_all           0.1918
_refine_ls_R_factor_gt            0.1581
_refine_ls_wR_factor_ref          0.4339
_refine_ls_wR_factor_gt           0.4257
_refine_ls_goodness_of_fit_ref    2.628
_refine_ls_restrained_S_all       2.628
_refine_ls_shift/su_max           0.790
_refine_ls_shift/su_mean          0.028
 
loop_
 _atom_site_label
 _atom_site_type_symbol
 _atom_site_fract_x
 _atom_site_fract_y
 _atom_site_fract_z
 _atom_site_U_iso_or_equiv
 _atom_site_adp_type
 _atom_site_occupancy
 _atom_site_site_symmetry_order  
 _atom_site_calc_flag
 _atom_site_refinement_flags_posn
 _atom_site_refinement_flags_adp
 _atom_site_refinement_flags_occupancy
 _atom_site_disorder_assembly
 _atom_site_disorder_group
C5 C 0.867(7) 1.106(5) 0.052(2) 0.17(2) Uani 1 1 d . . . . .
C3 C 0.959(5) 1.176(7) 0.095(3) 0.24(4) Uani 1 1 d . . . . .
O4 O 0.152(3) 0.453(5) 0.9877(14) 0.25(3) Uani 1 1 d . . . . .
O3 O 0.9241(14) 0.8850(11) -0.2483(8) 0.052(4) Uani 1 1 d . . . . .
Cd01 Cd 0.31208(14) 0.77357(10) 0.58186(7) 0.0344(4) Uani 1 1 d . . . . .
Cd02 Cd 0.66095(15) 0.73523(10) -0.13504(7) 0.0378(4) Uani 1 1 d . . . . .
S003 S 0.4557(5) 0.4901(4) 0.2646(3) 0.0409(12) Uani 1 1 d . . . . .
S004 S 0.2601(6) 0.2866(5) 0.8940(3) 0.0514(14) Uani 1 1 d . . . . .
O1 O -0.2102(17) 1.1388(11) 1.3043(9) 0.063(4) Uani 1 1 d . . . . .
O005 O -0.2407(15) 1.0440(11) 1.4048(8) 0.048(3) Uani 1 1 d . . . . .
O006 O 0.2149(14) 0.4638(10) 1.1178(8) 0.045(3) Uani 1 1 d . . . . .
N007 N 0.2499(14) 0.8247(12) 0.3582(7) 0.032(3) Uani 1 1 d . . . . .
N008 N 0.2520(16) 0.4791(12) 0.6849(9) 0.040(4) Uani 1 1 d . . . . .
O009 O 0.5189(14) 0.6252(11) 0.5283(8) 0.049(3) Uani 1 1 d . . . . .
N00A N 0.3951(16) 0.7113(13) 0.0670(7) 0.036(4) Uani 1 1 d . . . . .
N00C N 0.4989(14) 0.7146(10) -0.0446(7) 0.027(3) Uani 1 1 d . . . . .
N00D N 0.4785(15) 0.0258(11) 0.7348(8) 0.033(3) Uani 1 1 d . . . . .
O00E O 0.2288(15) 0.3810(10) 1.2252(8) 0.047(3) Uani 1 1 d . . . . .
N00F N 0.2393(15) 0.6388(12) 0.6350(9) 0.039(4) Uani 1 1 d . . . . .
N00G N 0.3850(15) 0.5919(12) 0.3126(8) 0.036(3) Uani 1 1 d . . . . .
O2 O 0.5395(14) 0.7494(14) 0.5811(10) 0.076(6) Uani 1 1 d . . . . .
N00J N 0.2451(13) 0.8162(11) 0.4735(8) 0.032(3) Uani 1 1 d . . . . .
N00L N 0.5731(16) -0.1351(14) 0.7884(10) 0.055(5) Uani 1 1 d . . . . .
N00N N 0.4494(16) 0.5461(13) 0.1862(8) 0.039(4) Uani 1 1 d . . . . .
C00O C 0.3864(17) 0.6546(15) 0.1943(10) 0.034(4) Uani 1 1 d . . . . .
C00P C 0.2867(17) 0.7884(14) 0.2854(9) 0.029(4) Uani 1 1 d . . . . .
N00Q N 0.3408(17) 0.1773(12) 0.8527(9) 0.043(4) Uani 1 1 d . . . . .
C00T C -0.2019(19) 1.0518(18) 1.3372(12) 0.045(5) Uani 1 1 d . . . . .
C00U C 0.427(2) 0.1839(15) 0.6571(10) 0.040(5) Uani 1 1 d . . . . .
C00V C 0.3051(19) 0.3665(14) 0.6978(11) 0.038(4) Uani 1 1 d . . . . .
C00W C 0.7495(19) 0.6184(15) 0.5364(9) 0.036(4) Uani 1 1 d . . . . .
C00X C 0.186(2) 0.9254(15) 0.3777(11) 0.044(5) Uani 1 1 d . . . . .
C00Y C 0.3552(17) 0.2083(14) 0.7821(9) 0.031(4) Uani 1 1 d . . . . .
C00Z C 0.964(2) 0.4714(15) 0.4918(10) 0.040(4) Uani 1 1 d . . . . .
C2 C 0.4737(18) 0.7593(14) 0.0157(9) 0.031(4) Uani 1 1 d . . . . .
C010 C 0.353(2) 0.7368(14) 0.1424(10) 0.035(4) Uani 1 1 d . . . . .
N011 N 0.2393(16) 0.3803(13) 0.8284(8) 0.040(4) Uani 1 1 d . . . . .
C1 C 0.0663(17) 0.6628(14) 1.1863(11) 0.039(5) Uani 1 1 d . . . . .
C012 C 0.5912(19) 0.6677(15) 0.5485(9) 0.034(4) Uani 1 1 d . . . . .
C013 C 0.2980(18) 0.3251(16) 0.7692(10) 0.038(4) Uani 1 1 d . . . . .
C014 C 0.9717(19) 0.6321(16) 0.5367(10) 0.041(5) Uani 1 1 d . . . . .
C015 C 0.512(2) -0.0490(14) 0.6838(10) 0.039(4) Uani 1 1 d . . . . .
C016 C 0.436(2) 0.6365(15) -0.0348(10) 0.036(4) Uani 1 1 d . . . . .
C017 C 0.422(2) 0.1409(17) 0.7242(12) 0.048(5) Uani 1 1 d . . . . .
C018 C 0.253(2) 0.8692(17) 0.2337(11) 0.045(5) Uani 1 1 d . . . . .
C019 C -0.117(2) 0.956(2) 1.2232(12) 0.062(7) Uani 1 1 d . . . . .
C01A C -0.030(2) 0.7484(16) 1.2969(11) 0.044(5) Uani 1 1 d . . . . .
C01B C 0.807(2) 0.5187(18) 0.5095(9) 0.049(5) Uani 1 1 d . . . . .
C01C C -0.010(2) 0.7658(18) 1.2251(11) 0.052(6) Uani 1 1 d . . . . .
C01D C 0.315(2) 0.5373(15) 0.6308(9) 0.037(4) Uani 1 1 d . . . . .
C01E C 0.3639(18) 0.2972(14) 0.6447(10) 0.036(4) Uani 1 1 d . . . . .
C01F C 0.2969(18) 0.8379(16) 0.1583(9) 0.036(4) Uani 1 1 d . . . . .
C01G C -0.0481(19) 0.8563(17) 1.1853(11) 0.045(5) Uani 1 1 d . . . . .
C01H C 0.135(2) 0.5565(17) 0.7224(13) 0.054(6) Uani 1 1 d . . . . .
C01I C 0.3508(18) 0.6832(18) 0.2680(9) 0.042(5) Uani 1 1 d . . . . .
C01J C -0.1419(19) 0.9461(16) 1.3008(13) 0.049(5) Uani 1 1 d . . . . .
C01K C 0.1098(19) 0.5681(17) 1.2254(15) 0.053(6) Uani 1 1 d . . . . .
C01L C 0.832(3) 0.673(2) 0.5483(11) 0.060(6) Uani 1 1 d . . . . .
C01M C -0.105(2) 0.8525(17) 1.3389(15) 0.060(7) Uani 1 1 d . . . . .
C01N C 0.285(2) 0.7590(16) 0.4176(9) 0.040(4) Uani 1 1 d . . . . .
C01O C 0.130(2) 0.6502(17) 0.6937(12) 0.047(5) Uani 1 1 d . . . . .
C01P C 0.1913(19) 0.4637(15) 1.1859(12) 0.041(5) Uani 1 1 d . . . . .
C01Q C 0.081(2) 0.565(2) 1.2964(15) 0.062(7) Uani 1 1 d . . . . .
C01R C 0.522(2) -0.027(2) 0.7971(10) 0.051(6) Uani 1 1 d . . . . .
C01S C 0.571(2) -0.1418(16) 0.7150(11) 0.046(5) Uani 1 1 d . . . . .
C01T C 0.183(3) 0.9257(16) 0.4524(10) 0.056(6) Uani 1 1 d . . . . .
C01U C 0.379(2) 0.6294(15) 0.0350(11) 0.041(5) Uani 1 1 d . . . . .
C01V C 0.010(2) 0.6578(19) 1.3368(14) 0.059(6) Uani 1 1 d . . . . .
C03 C 0.860(5) 0.909(4) -0.0429(18) 0.130(19) Uani 1 1 d . . . . .
O02 O 0.8539(15) 0.7754(12) -0.1176(8) 0.051(4) Uani 1 1 d . . . . .
O01 O 0.6554(17) 0.8797(14) -0.0561(8) 0.061(4) Uani 1 1 d . . . . .
C01 C 0.786(3) 0.846(2) -0.0731(13) 0.061(7) Uani 1 1 d . . . . .
C300 C 1.056(3) 0.972(2) -0.0182(14) 0.067(8) Uani 1 1 d . . . . .
C4 C 0.991(6) 0.886(4) -0.057(2) 0.054(13) Uani 0.5 1 d . . P A -1
C400 C 1.190(6) 0.944(4) -0.039(2) 0.058(15) Uani 0.5 1 d . . P A -1
C500 C 1.212(7) 1.018(3) -0.002(2) 0.08(2) Uani 0.5 1 d . . P A -1
 
loop_
 _atom_site_aniso_label
 _atom_site_aniso_U_11
 _atom_site_aniso_U_22
 _atom_site_aniso_U_33
 _atom_site_aniso_U_23
 _atom_site_aniso_U_13
 _atom_site_aniso_U_12
C5 0.26(7) 0.21(6) 0.08(3) 0.04(3) -0.08(4) -0.12(6)
C3 0.09(3) 0.42(10) 0.15(5) 0.11(6) -0.02(3) -0.05(5)
O4 0.073(17) 0.59(8) 0.083(19) -0.03(3) 0.003(14) -0.10(3)
O3 0.046(8) 0.040(8) 0.068(10) -0.013(7) 0.006(7) -0.019(6)
Cd01 0.0395(8) 0.0308(7) 0.0342(8) -0.0062(6) -0.0102(6) -0.0098(6)
Cd02 0.0494(9) 0.0299(8) 0.0351(8) -0.0066(6) -0.0010(6) -0.0164(6)
S003 0.045(3) 0.035(3) 0.047(3) -0.008(2) -0.019(2) -0.011(2)
S004 0.052(3) 0.058(3) 0.041(3) -0.016(3) -0.003(2) -0.012(3)
O1 0.077(11) 0.025(8) 0.085(12) -0.006(8) 0.000(9) -0.021(7)
O005 0.051(8) 0.037(8) 0.061(10) -0.010(7) -0.016(7) -0.015(6)
O006 0.046(8) 0.038(7) 0.056(9) -0.010(7) -0.004(7) -0.022(6)
N007 0.031(8) 0.044(9) 0.025(7) -0.014(7) -0.014(6) -0.008(7)
N008 0.037(9) 0.038(9) 0.059(11) -0.008(8) -0.017(8) -0.022(7)
O009 0.043(8) 0.043(8) 0.060(9) -0.011(7) -0.003(7) -0.015(6)
N00A 0.039(9) 0.054(10) 0.023(7) -0.009(7) -0.006(6) -0.024(8)
N00C 0.037(8) 0.019(7) 0.029(7) -0.006(6) -0.003(6) -0.012(6)
N00D 0.043(9) 0.023(7) 0.045(9) -0.004(7) -0.023(7) -0.017(6)
O00E 0.058(9) 0.020(7) 0.063(9) -0.008(6) -0.005(7) -0.015(6)
N00F 0.028(8) 0.032(8) 0.061(11) -0.012(7) -0.012(7) -0.010(6)
N00G 0.034(8) 0.035(8) 0.036(8) 0.000(7) -0.007(7) -0.009(7)
O2 0.024(7) 0.095(12) 0.108(14) -0.076(11) -0.016(8) 0.005(7)
N00J 0.020(7) 0.037(8) 0.041(9) -0.020(7) -0.008(6) -0.006(6)
N00L 0.035(9) 0.051(11) 0.081(13) -0.054(10) -0.023(9) 0.005(7)
N00N 0.039(9) 0.053(10) 0.031(8) -0.004(7) -0.011(7) -0.020(8)
C00O 0.022(9) 0.043(11) 0.037(10) -0.011(8) -0.010(7) -0.005(7)
C00P 0.032(9) 0.034(9) 0.026(9) -0.002(7) -0.012(7) -0.014(7)
N00Q 0.043(9) 0.035(9) 0.041(10) -0.012(7) 0.004(7) -0.005(7)
C00T 0.027(10) 0.067(15) 0.052(13) -0.022(11) -0.011(9) -0.023(9)
C00U 0.064(13) 0.033(10) 0.034(10) -0.002(8) -0.024(9) -0.022(9)
C00V 0.033(10) 0.022(9) 0.054(12) -0.006(8) -0.004(9) -0.005(7)
C00W 0.036(10) 0.043(11) 0.019(9) 0.007(8) -0.003(7) -0.006(8)
C00X 0.047(12) 0.034(10) 0.045(11) -0.012(9) -0.021(9) 0.004(9)
C00Y 0.029(9) 0.039(10) 0.032(10) -0.008(8) -0.009(7) -0.014(8)
C00Z 0.055(13) 0.038(10) 0.031(10) 0.006(8) -0.022(9) -0.014(9)
C2 0.034(10) 0.041(10) 0.025(9) 0.001(8) -0.011(7) -0.016(8)
C010 0.047(11) 0.034(10) 0.034(10) -0.004(8) -0.016(8) -0.022(8)
N011 0.036(9) 0.050(10) 0.036(9) -0.018(8) 0.005(7) -0.018(7)
C1 0.017(8) 0.036(10) 0.077(14) -0.016(10) -0.027(9) -0.011(7)
C012 0.038(10) 0.036(10) 0.029(9) -0.002(8) -0.007(8) -0.013(8)
C013 0.025(9) 0.057(12) 0.032(10) -0.016(9) -0.001(7) -0.013(8)
C014 0.030(10) 0.046(11) 0.040(11) -0.016(9) 0.000(8) -0.003(8)
C015 0.042(11) 0.029(10) 0.044(11) -0.002(8) -0.022(9) -0.004(8)
C016 0.043(11) 0.036(10) 0.032(10) -0.004(8) -0.006(8) -0.015(8)
C017 0.044(12) 0.054(13) 0.059(14) -0.003(11) -0.011(10) -0.030(10)
C018 0.047(12) 0.058(13) 0.043(11) -0.010(10) -0.013(9) -0.029(10)
C019 0.054(13) 0.093(18) 0.059(14) -0.051(14) -0.002(11) -0.041(13)
C01A 0.043(11) 0.047(12) 0.053(13) 0.024(10) -0.016(9) -0.033(9)
C01B 0.054(13) 0.063(14) 0.017(9) 0.008(9) -0.014(8) -0.005(10)
C01C 0.058(13) 0.073(15) 0.054(13) 0.016(12) -0.016(11) -0.060(12)
C01D 0.053(12) 0.040(11) 0.032(10) -0.008(8) -0.016(8) -0.027(9)
C01E 0.026(9) 0.036(10) 0.050(11) -0.020(9) -0.011(8) -0.007(7)
C01F 0.034(10) 0.058(12) 0.025(9) -0.011(9) -0.003(7) -0.024(9)
C01G 0.020(9) 0.055(13) 0.052(12) 0.004(10) -0.006(9) -0.005(8)
C01H 0.039(12) 0.043(12) 0.077(16) -0.028(12) 0.009(11) -0.011(9)
C01I 0.027(9) 0.088(16) 0.017(8) -0.011(10) -0.004(7) -0.025(10)
C01J 0.025(10) 0.032(11) 0.088(17) -0.024(11) -0.002(10) -0.007(8)
C01K 0.023(10) 0.047(12) 0.10(2) -0.003(13) -0.021(11) -0.021(9)
C01L 0.060(15) 0.080(17) 0.034(11) 0.007(11) -0.008(10) -0.020(13)
C01M 0.035(11) 0.041(13) 0.11(2) -0.036(13) 0.002(12) -0.013(9)
C01N 0.047(11) 0.045(11) 0.027(10) 0.004(8) -0.011(8) -0.015(9)
C01O 0.033(11) 0.042(12) 0.067(15) -0.001(10) -0.005(10) -0.016(9)
C01P 0.028(10) 0.028(10) 0.063(14) -0.008(10) -0.001(9) -0.006(8)
C01Q 0.047(13) 0.062(15) 0.083(19) -0.039(14) 0.001(12) -0.020(11)
C01R 0.042(12) 0.093(18) 0.029(10) 0.007(11) -0.017(9) -0.030(12)
C01S 0.057(13) 0.040(11) 0.050(13) 0.006(10) -0.012(10) -0.029(10)
C01T 0.103(19) 0.029(10) 0.030(10) -0.007(8) -0.031(11) -0.002(11)
C01U 0.049(12) 0.033(10) 0.045(12) -0.003(9) -0.012(9) -0.015(9)
C01V 0.044(13) 0.055(14) 0.076(16) -0.019(13) -0.012(12) -0.007(10)
C03 0.21(4) 0.20(4) 0.07(2) 0.10(3) -0.11(3) -0.18(4)
O02 0.056(9) 0.055(9) 0.054(9) -0.010(8) -0.012(7) -0.030(7)
O01 0.052(10) 0.093(12) 0.059(10) -0.023(9) -0.002(8) -0.049(9)
C01 0.09(2) 0.062(15) 0.048(14) 0.016(12) -0.032(14) -0.044(14)
C300 0.066(18) 0.052(15) 0.051(15) -0.003(12) 0.007(12) 0.009(12)
C4 0.08(4) 0.09(3) 0.03(2) 0.04(2) -0.04(2) -0.07(3)
C400 0.11(4) 0.08(3) 0.03(2) 0.01(2) -0.04(3) -0.08(3)
C500 0.22(7) 0.019(19) 0.05(3) 0.030(19) -0.10(4) -0.06(3)
 
_geom_special_details
;
 All esds (except the esd in the dihedral angle between two l.s. planes)
 are estimated using the full covariance matrix.  The cell esds are taken
 into account individually in the estimation of esds in distances, angles
 and torsion angles; correlations between esds in cell parameters are only
 used when they are defined by crystal symmetry.  An approximate (isotropic)
 treatment of cell esds is used for estimating esds involving l.s. planes.
;
 
loop_
 _geom_bond_atom_site_label_1
 _geom_bond_atom_site_label_2
 _geom_bond_distance
 _geom_bond_site_symmetry_2
 _geom_bond_publ_flag
C5 C300 1.22(6) 2_775 ?
C5 C3 1.90(9) . ?
C3 C03 1.95(8) 2_775 ?
Cd01 N00F 2.251(16) . ?
Cd01 O2 2.259(13) . ?
Cd01 N00J 2.270(14) . ?
Cd01 O005 2.309(13) 2_577 ?
Cd01 O1 2.461(16) 2_577 ?
Cd01 O009 2.483(13) . ?
Cd01 C012 2.710(18) . ?
Cd01 C00T 2.72(2) 2_577 ?
Cd02 N00L 2.19(2) 1_564 ?
Cd02 N00C 2.228(14) . ?
Cd02 O00E 2.299(13) 2_666 ?
Cd02 O02 2.337(13) . ?
Cd02 O006 2.521(13) 2_666 ?
Cd02 O01 2.565(15) . ?
Cd02 C01P 2.734(18) 2_666 ?
S003 N00G 1.597(15) . ?
S003 N00N 1.602(16) . ?
S004 N00Q 1.612(15) . ?
S004 N011 1.656(18) . ?
O1 C00T 1.24(3) . ?
O005 C00T 1.28(2) . ?
O006 C01P 1.28(2) . ?
N007 C00X 1.33(2) . ?
N007 C01N 1.38(2) . ?
N007 C00P 1.47(2) . ?
N008 C01H 1.41(2) . ?
N008 C00V 1.42(2) . ?
N008 C01D 1.42(2) . ?
O009 C012 1.23(2) . ?
N00A C01U 1.38(2) . ?
N00A C2 1.39(2) . ?
N00A C010 1.47(2) . ?
N00C C2 1.30(2) . ?
N00C C016 1.39(2) . ?
N00D C01R 1.39(2) . ?
N00D C015 1.39(2) . ?
N00D C017 1.44(3) . ?
O00E C01P 1.25(2) . ?
N00F C01D 1.30(2) . ?
N00F C01O 1.41(3) . ?
N00G C01I 1.38(3) . ?
O2 C012 1.22(2) . ?
N00J C01N 1.30(2) . ?
N00J C01T 1.42(2) . ?
N00L C01R 1.36(3) . ?
N00L C01S 1.43(3) . ?
N00N C00O 1.37(2) . ?
C00O C010 1.39(3) . ?
C00O C01I 1.45(2) . ?
C00P C018 1.37(3) . ?
C00P C01I 1.37(3) . ?
N00Q C00Y 1.36(2) . ?
C00T C01J 1.52(3) . ?
C00U C017 1.35(3) . ?
C00U C01E 1.43(3) . ?
C00V C01E 1.36(2) . ?
C00V C013 1.42(3) . ?
C00W C01B 1.37(3) . ?
C00W C01L 1.37(3) . ?
C00W C012 1.51(3) . ?
C00X C01T 1.43(3) . ?
C00Y C017 1.42(3) . ?
C00Y C013 1.47(3) . ?
C00Z C00Z 1.34(4) 2_766 ?
C00Z C014 1.42(3) 2_766 ?
C00Z C01B 1.50(3) . ?
C010 C01F 1.31(3) . ?
N011 C013 1.34(2) . ?
C1 C01K 1.37(3) . ?
C1 C01C 1.52(3) . ?
C014 C01L 1.33(3) . ?
C015 C01S 1.30(3) . ?
C016 C01U 1.36(3) . ?
C018 C01F 1.49(3) . ?
C019 C01J 1.46(3) . ?
C019 C01G 1.47(3) . ?
C01A C01V 1.33(3) . ?
C01A C01C 1.36(3) . ?
C01A C01M 1.56(3) . ?
C01C C01G 1.33(3) . ?
C01H C01O 1.30(3) . ?
C01J C01M 1.34(3) . ?
C01K C01Q 1.34(3) . ?
C01K C01P 1.54(3) . ?
C01Q C01V 1.43(3) . ?
C03 C4 1.26(7) . ?
C03 C01 1.54(4) . ?
O02 C01 1.26(3) . ?
O01 C01 1.25(3) . ?
C300 C300 1.26(5) 2_775 ?
C300 C400 1.29(6) . ?
C300 C4 1.80(6) . ?
C300 C500 2.00(6) . ?
C400 C500 1.39(5) . ?
 
loop_
 _geom_angle_atom_site_label_1
 _geom_angle_atom_site_label_2
 _geom_angle_atom_site_label_3
 _geom_angle
 _geom_angle_site_symmetry_1
 _geom_angle_site_symmetry_3
 _geom_angle_publ_flag
C300 C5 C3 115(6) 2_775 . ?
C5 C3 C03 91(5) . 2_775 ?
N00F Cd01 O2 115.4(7) . . ?
N00F Cd01 N00J 108.9(5) . . ?
O2 Cd01 N00J 114.6(6) . . ?
N00F Cd01 O005 135.2(5) . 2_577 ?
O2 Cd01 O005 93.4(5) . 2_577 ?
N00J Cd01 O005 86.6(5) . 2_577 ?
N00F Cd01 O1 85.6(5) . 2_577 ?
O2 Cd01 O1 98.8(5) . 2_577 ?
N00J Cd01 O1 130.8(5) . 2_577 ?
O005 Cd01 O1 55.1(5) 2_577 2_577 ?
N00F Cd01 O009 83.5(5) . . ?
O2 Cd01 O009 53.2(5) . . ?
N00J Cd01 O009 88.8(5) . . ?
O005 Cd01 O009 140.0(5) 2_577 . ?
O1 Cd01 O009 140.2(5) 2_577 . ?
N00F Cd01 C012 100.5(5) . . ?
O2 Cd01 C012 26.4(5) . . ?
N00J Cd01 C012 102.7(5) . . ?
O005 Cd01 C012 117.2(5) 2_577 . ?
O1 Cd01 C012 121.0(5) 2_577 . ?
O009 Cd01 C012 26.9(5) . . ?
N00F Cd01 C00T 110.6(6) . 2_577 ?
O2 Cd01 C00T 96.7(5) . 2_577 ?
N00J Cd01 C00T 110.1(6) . 2_577 ?
O005 Cd01 C00T 28.1(6) 2_577 2_577 ?
O1 Cd01 C00T 27.0(6) 2_577 2_577 ?
O009 Cd01 C00T 149.7(5) . 2_577 ?
C012 Cd01 C00T 123.0(5) . 2_577 ?
N00L Cd02 N00C 112.4(6) 1_564 . ?
N00L Cd02 O00E 91.0(5) 1_564 2_666 ?
N00C Cd02 O00E 125.5(5) . 2_666 ?
N00L Cd02 O02 101.3(6) 1_564 . ?
N00C Cd02 O02 122.0(5) . . ?
O00E Cd02 O02 98.4(5) 2_666 . ?
N00L Cd02 O006 144.9(5) 1_564 2_666 ?
N00C Cd02 O006 86.1(5) . 2_666 ?
O00E Cd02 O006 54.8(5) 2_666 2_666 ?
O02 Cd02 O006 92.4(5) . 2_666 ?
N00L Cd02 O01 87.8(5) 1_564 . ?
N00C Cd02 O01 81.2(5) . . ?
O00E Cd02 O01 151.1(5) 2_666 . ?
O02 Cd02 O01 53.7(5) . . ?
O006 Cd02 O01 125.6(5) 2_666 . ?
N00L Cd02 C01P 117.5(6) 1_564 2_666 ?
N00C Cd02 C01P 106.8(5) . 2_666 ?
O00E Cd02 C01P 27.0(6) 2_666 2_666 ?
O02 Cd02 C01P 96.5(5) . 2_666 ?
O006 Cd02 C01P 27.8(5) 2_666 2_666 ?
O01 Cd02 C01P 145.8(6) . 2_666 ?
N00G S003 N00N 101.3(8) . . ?
N00Q S004 N011 103.0(8) . . ?
C00T O1 Cd01 88.2(13) . 2_577 ?
C00T O005 Cd01 94.1(12) . 2_577 ?
C01P O006 Cd02 85.3(11) . 2_666 ?
C00X N007 C01N 108.9(15) . . ?
C00X N007 C00P 126.4(15) . . ?
C01N N007 C00P 124.6(15) . . ?
C01H N008 C00V 129.4(18) . . ?
C01H N008 C01D 106.0(16) . . ?
C00V N008 C01D 124.6(16) . . ?
C012 O009 Cd01 87.0(11) . . ?
C01U N00A C2 107.1(15) . . ?
C01U N00A C010 127.5(16) . . ?
C2 N00A C010 125.0(14) . . ?
C2 N00C C016 108.2(14) . . ?
C2 N00C Cd02 122.6(11) . . ?
C016 N00C Cd02 127.4(11) . . ?
C01R N00D C015 108.7(16) . . ?
C01R N00D C017 124.2(17) . . ?
C015 N00D C017 126.7(16) . . ?
C01P O00E Cd02 96.3(12) . 2_666 ?
C01D N00F C01O 108.6(17) . . ?
C01D N00F Cd01 124.1(13) . . ?
C01O N00F Cd01 124.4(12) . . ?
C01I N00G S003 108.2(12) . . ?
C012 O2 Cd01 98.0(11) . . ?
C01N N00J C01T 109.1(15) . . ?
C01N N00J Cd01 129.3(12) . . ?
C01T N00J Cd01 119.1(10) . . ?
C01R N00L C01S 103.0(18) . . ?
C01R N00L Cd02 128.2(13) . 1_546 ?
C01S N00L Cd02 128.4(12) . 1_546 ?
C00O N00N S003 106.8(12) . . ?
N00N C00O C010 129.0(16) . . ?
N00N C00O C01I 113.2(17) . . ?
C010 C00O C01I 117.8(17) . . ?
C018 C00P C01I 121.1(16) . . ?
C018 C00P N007 114.6(15) . . ?
C01I C00P N007 124.3(15) . . ?
C00Y N00Q S004 105.4(13) . . ?
O1 C00T O005 122.6(19) . . ?
O1 C00T C01J 122(2) . . ?
O005 C00T C01J 115(2) . . ?
O1 C00T Cd01 64.7(11) . 2_577 ?
O005 C00T Cd01 57.8(10) . 2_577 ?
C01J C00T Cd01 172.8(17) . 2_577 ?
C017 C00U C01E 119.8(18) . . ?
C01E C00V C013 119.0(17) . . ?
C01E C00V N008 122.7(18) . . ?
C013 C00V N008 118.3(17) . . ?
C01B C00W C01L 121(2) . . ?
C01B C00W C012 117.3(18) . . ?
C01L C00W C012 121.6(18) . . ?
N007 C00X C01T 107.7(16) . . ?
N00Q C00Y C017 126.9(17) . . ?
N00Q C00Y C013 112.9(15) . . ?
C017 C00Y C013 120.2(17) . . ?
C00Z C00Z C014 124(2) 2_766 2_766 ?
C00Z C00Z C01B 116(2) 2_766 . ?
C014 C00Z C01B 120.0(17) 2_766 . ?
N00C C2 N00A 109.3(14) . . ?
C01F C010 C00O 121.9(17) . . ?
C01F C010 N00A 118.5(17) . . ?
C00O C010 N00A 119.2(16) . . ?
C013 N011 S004 104.2(14) . . ?
C01K C1 C01C 119(2) . . ?
O2 C012 O009 121.8(17) . . ?
O2 C012 C00W 116.9(16) . . ?
O009 C012 C00W 121.3(17) . . ?
O2 C012 Cd01 55.6(9) . . ?
O009 C012 Cd01 66.2(10) . . ?
C00W C012 Cd01 172.4(13) . . ?
N011 C013 C00V 127.6(19) . . ?
N011 C013 C00Y 114.5(17) . . ?
C00V C013 C00Y 117.9(16) . . ?
C01L C014 C00Z 118(2) . 2_766 ?
C01S C015 N00D 105.7(17) . . ?
C01U C016 N00C 108.8(15) . . ?
C00U C017 C00Y 119.7(19) . . ?
C00U C017 N00D 118.4(19) . . ?
C00Y C017 N00D 121.7(18) . . ?
C00P C018 C01F 117.0(18) . . ?
C01J C019 C01G 117(2) . . ?
C01V C01A C01C 130(2) . . ?
C01V C01A C01M 115(2) . . ?
C01C C01A C01M 114(2) . . ?
C00W C01B C00Z 118(2) . . ?
C01G C01C C01A 130(2) . . ?
C01G C01C C1 117(2) . . ?
C01A C01C C1 112.5(19) . . ?
N00F C01D N008 107.9(17) . . ?
C00V C01E C00U 123.1(18) . . ?
C010 C01F C018 121.2(18) . . ?
C01C C01G C019 117(2) . . ?
C01O C01H N008 107.8(19) . . ?
C00P C01I N00G 128.9(15) . . ?
C00P C01I C00O 120.6(18) . . ?
N00G C01I C00O 110.4(17) . . ?
C01M C01J C019 124(2) . . ?
C01M C01J C00T 121(2) . . ?
C019 C01J C00T 115(2) . . ?
C01Q C01K C1 121(2) . . ?
C01Q C01K C01P 120(2) . . ?
C1 C01K C01P 119(2) . . ?
C014 C01L C00W 123(2) . . ?
C01J C01M C01A 117(2) . . ?
N00J C01N N007 109.7(16) . . ?
C01H C01O N00F 109.6(18) . . ?
O00E C01P O006 123.5(17) . . ?
O00E C01P C01K 115.1(19) . . ?
O006 C01P C01K 121.4(19) . . ?
O00E C01P Cd02 56.7(9) . 2_666 ?
O006 C01P Cd02 66.8(10) . 2_666 ?
C01K C01P Cd02 171.7(16) . 2_666 ?
C01K C01Q C01V 123(3) . . ?
N00L C01R N00D 109.0(17) . . ?
C015 C01S N00L 113.2(18) . . ?
N00J C01T C00X 104.5(15) . . ?
C016 C01U N00A 106.3(16) . . ?
C01A C01V C01Q 114(2) . . ?
C4 C03 C01 122(5) . . ?
C4 C03 C3 31(4) . 2_775 ?
C01 C03 C3 91(4) . 2_775 ?
C01 O02 Cd02 95.7(14) . . ?
C01 O01 Cd02 85.6(13) . . ?
O01 C01 O02 125(2) . . ?
O01 C01 C03 115(3) . . ?
O02 C01 C03 120(3) . . ?
C5 C300 C300 156(6) 2_775 2_775 ?
C5 C300 C400 52(3) 2_775 . ?
C300 C300 C400 152(5) 2_775 . ?
C5 C300 C4 57(4) 2_775 . ?
C300 C300 C4 100(4) 2_775 . ?
C400 C300 C4 108(3) . . ?
C5 C300 C500 95(4) 2_775 . ?
C300 C300 C500 108(4) 2_775 . ?
C400 C300 C500 44(3) . . ?
C4 C300 C500 152(3) . . ?
C03 C4 C300 115(4) . . ?
C300 C400 C500 97(5) . . ?
C400 C500 C300 40(3) . . ?
 
_refine_diff_density_max    3.456
_refine_diff_density_min   -2.680
_refine_diff_density_rms    0.298

_shelx_res_file
;
TITL pvl730_tP_a.res in P-1
    pvl730_tP_a.res
    created by SHELXL-2018/3 at 15:04:20 on 16-Feb-2022
REM Old TITL pvl730_tP in P1
REM SHELXT solution in P-1: R1 0.263, Rweak 0.077, Alpha 0.146
REM <I/s>   0.000 for    0 systematic absences,  Orientation as input
REM Formula found by SHELXT:  C104 N37 O12 S4 Cd4
CELL  0.71073  10.3557  13.3356  19.1968   83.289   78.516   69.287
ZERR   23.000   0.0024   0.0040   0.0040    0.007    0.007    0.007
LATT  1
SFAC C H N O S CD
UNIT 23 23 23 23 23 23
ACTA
TEMP -123.150
L.S. 10
BOND
LIST 6
FMAP 2
PLAN 20
WGHT    0.100000
FVAR       0.18515
C5    1    0.866531    1.105735    0.051952    11.00000    0.26475    0.20803 =
         0.07565    0.03849   -0.07503   -0.11757
C3    1    0.958887    1.176112    0.094635    11.00000    0.09349    0.41867 =
         0.14769    0.11210   -0.01665   -0.04624
O4    4    0.152076    0.452970    0.987748    11.00000    0.07266    0.58605 =
         0.08329   -0.03261    0.00290   -0.09550
O3    4    0.924111    0.885022   -0.248296    11.00000    0.04623    0.04015 =
         0.06806   -0.01288    0.00555   -0.01880
CD01  6    0.312077    0.773567    0.581857    11.00000    0.03950    0.03078 =
         0.03418   -0.00623   -0.01017   -0.00979
CD02  6    0.660949    0.735228   -0.135040    11.00000    0.04939    0.02990 =
         0.03512   -0.00662   -0.00104   -0.01636
S003  5    0.455692    0.490095    0.264593    11.00000    0.04493    0.03537 =
         0.04673   -0.00752   -0.01867   -0.01129
S004  5    0.260057    0.286631    0.893998    11.00000    0.05205    0.05752 =
         0.04059   -0.01624   -0.00282   -0.01207
O1    4   -0.210211    1.138806    1.304346    11.00000    0.07721    0.02473 =
         0.08501   -0.00582    0.00022   -0.02110
O005  4   -0.240718    1.043968    1.404787    11.00000    0.05054    0.03705 =
         0.06146   -0.01002   -0.01578   -0.01506
O006  4    0.214938    0.463809    1.117801    11.00000    0.04642    0.03763 =
         0.05621   -0.01041   -0.00364   -0.02215
N007  3    0.249884    0.824663    0.358230    11.00000    0.03111    0.04381 =
         0.02521   -0.01430   -0.01428   -0.00793
N008  3    0.252040    0.479145    0.684854    11.00000    0.03650    0.03765 =
         0.05904   -0.00794   -0.01747   -0.02180
O009  4    0.518912    0.625157    0.528251    11.00000    0.04307    0.04283 =
         0.05957   -0.01067   -0.00316   -0.01464
N00A  3    0.395073    0.711298    0.066977    11.00000    0.03937    0.05446 =
         0.02315   -0.00879   -0.00568   -0.02369
N00C  3    0.498871    0.714579   -0.044603    11.00000    0.03743    0.01855 =
         0.02856   -0.00606   -0.00308   -0.01205
N00D  3    0.478466    0.025813    0.734789    11.00000    0.04299    0.02346 =
         0.04509   -0.00351   -0.02254   -0.01680
O00E  4    0.228781    0.380971    1.225157    11.00000    0.05793    0.02011 =
         0.06326   -0.00798   -0.00456   -0.01529
N00F  3    0.239290    0.638769    0.635039    11.00000    0.02761    0.03225 =
         0.06060   -0.01152   -0.01213   -0.00975
N00G  3    0.385000    0.591870    0.312642    11.00000    0.03350    0.03520 =
         0.03598   -0.00048   -0.00719   -0.00880
O2    4    0.539534    0.749416    0.581146    11.00000    0.02392    0.09468 =
         0.10778   -0.07588   -0.01634    0.00501
N00J  3    0.245093    0.816217    0.473458    11.00000    0.01978    0.03708 =
         0.04139   -0.01965   -0.00820   -0.00624
N00L  3    0.573056   -0.135117    0.788448    11.00000    0.03520    0.05123 =
         0.08083   -0.05374   -0.02318    0.00455
N00N  3    0.449359    0.546073    0.186221    11.00000    0.03936    0.05322 =
         0.03083   -0.00382   -0.01080   -0.01994
C00O  1    0.386431    0.654641    0.194251    11.00000    0.02194    0.04302 =
         0.03710   -0.01069   -0.00955   -0.00509
C00P  1    0.286663    0.788422    0.285366    11.00000    0.03224    0.03394 =
         0.02556   -0.00207   -0.01240   -0.01406
N00Q  3    0.340782    0.177276    0.852727    11.00000    0.04306    0.03539 =
         0.04146   -0.01180    0.00393   -0.00495
C00T  1   -0.201926    1.051786    1.337204    11.00000    0.02736    0.06747 =
         0.05156   -0.02157   -0.01102   -0.02283
C00U  1    0.427326    0.183880    0.657138    11.00000    0.06416    0.03298 =
         0.03351   -0.00238   -0.02399   -0.02212
C00V  1    0.305057    0.366463    0.697791    11.00000    0.03294    0.02175 =
         0.05384   -0.00571   -0.00399   -0.00469
C00W  1    0.749501    0.618363    0.536401    11.00000    0.03645    0.04292 =
         0.01939    0.00747   -0.00308   -0.00631
C00X  1    0.185637    0.925365    0.377699    11.00000    0.04721    0.03389 =
         0.04549   -0.01209   -0.02062    0.00400
C00Y  1    0.355245    0.208277    0.782129    11.00000    0.02899    0.03854 =
         0.03211   -0.00812   -0.00863   -0.01427
C00Z  1    0.964038    0.471429    0.491764    11.00000    0.05499    0.03815 =
         0.03081    0.00638   -0.02243   -0.01406
C2    1    0.473727    0.759288    0.015692    11.00000    0.03393    0.04059 =
         0.02459    0.00129   -0.01096   -0.01635
C010  1    0.352637    0.736809    0.142438    11.00000    0.04739    0.03380 =
         0.03399   -0.00444   -0.01623   -0.02154
N011  3    0.239310    0.380256    0.828411    11.00000    0.03620    0.05005 =
         0.03644   -0.01814    0.00476   -0.01831
C1    1    0.066258    0.662846    1.186330    11.00000    0.01737    0.03615 =
         0.07719   -0.01622   -0.02707   -0.01081
C012  1    0.591225    0.667749    0.548524    11.00000    0.03827    0.03624 =
         0.02928   -0.00185   -0.00677   -0.01338
C013  1    0.297952    0.325127    0.769241    11.00000    0.02464    0.05704 =
         0.03248   -0.01606   -0.00143   -0.01339
C014  1    0.971700    0.632091    0.536735    11.00000    0.03023    0.04567 =
         0.03981   -0.01570   -0.00024   -0.00260
C015  1    0.512211   -0.049031    0.683819    11.00000    0.04250    0.02949 =
         0.04409   -0.00203   -0.02168   -0.00442
C016  1    0.436213    0.636471   -0.034842    11.00000    0.04251    0.03610 =
         0.03179   -0.00358   -0.00574   -0.01537
C017  1    0.422445    0.140866    0.724242    11.00000    0.04370    0.05351 =
         0.05884   -0.00275   -0.01128   -0.02986
C018  1    0.253072    0.869191    0.233733    11.00000    0.04693    0.05795 =
         0.04277   -0.00999   -0.01334   -0.02853
C019  1   -0.117192    0.955797    1.223239    11.00000    0.05369    0.09334 =
         0.05942   -0.05064   -0.00244   -0.04082
C01A  1   -0.029704    0.748353    1.296863    11.00000    0.04339    0.04748 =
         0.05319    0.02393   -0.01640   -0.03322
C01B  1    0.807396    0.518718    0.509480    11.00000    0.05437    0.06331 =
         0.01674    0.00770   -0.01393   -0.00473
C01C  1   -0.009585    0.765788    1.225112    11.00000    0.05789    0.07257 =
         0.05378    0.01568   -0.01564   -0.05953
C01D  1    0.314977    0.537343    0.630793    11.00000    0.05333    0.04029 =
         0.03168   -0.00817   -0.01571   -0.02737
C01E  1    0.363883    0.297194    0.644659    11.00000    0.02604    0.03621 =
         0.05026   -0.02016   -0.01150   -0.00656
C01F  1    0.296937    0.837851    0.158282    11.00000    0.03423    0.05798 =
         0.02526   -0.01103   -0.00316   -0.02447
C01G  1   -0.048091    0.856270    1.185290    11.00000    0.02033    0.05480 =
         0.05183    0.00355   -0.00633   -0.00459
C01H  1    0.134670    0.556462    0.722379    11.00000    0.03936    0.04332 =
         0.07661   -0.02789    0.00850   -0.01147
C01I  1    0.350780    0.683217    0.267991    11.00000    0.02703    0.08790 =
         0.01728   -0.01124   -0.00414   -0.02502
C01J  1   -0.141918    0.946069    1.300761    11.00000    0.02542    0.03237 =
         0.08819   -0.02416   -0.00210   -0.00691
C01K  1    0.109809    0.568065    1.225356    11.00000    0.02303    0.04742 =
         0.10021   -0.00338   -0.02101   -0.02050
C01L  1    0.832112    0.673279    0.548259    11.00000    0.05993    0.07989 =
         0.03438    0.00673   -0.00826   -0.01980
C01M  1   -0.104759    0.852468    1.338931    11.00000    0.03459    0.04066 =
         0.10646   -0.03616    0.00222   -0.01338
C01N  1    0.285267    0.759041    0.417612    11.00000    0.04689    0.04499 =
         0.02681    0.00376   -0.01088   -0.01487
C01O  1    0.130265    0.650220    0.693655    11.00000    0.03305    0.04195 =
         0.06724   -0.00089   -0.00485   -0.01554
C01P  1    0.191294    0.463743    1.185902    11.00000    0.02775    0.02772 =
         0.06305   -0.00816   -0.00094   -0.00650
C01Q  1    0.080785    0.564745    1.296389    11.00000    0.04715    0.06215 =
         0.08290   -0.03861    0.00072   -0.01984
C01R  1    0.522095   -0.027166    0.797144    11.00000    0.04179    0.09260 =
         0.02880    0.00669   -0.01737   -0.03049
C01S  1    0.571401   -0.141819    0.714985    11.00000    0.05666    0.04019 =
         0.05021    0.00606   -0.01235   -0.02942
C01T  1    0.183309    0.925660    0.452427    11.00000    0.10307    0.02934 =
         0.02965   -0.00704   -0.03095   -0.00187
C01U  1    0.379487    0.629360    0.035033    11.00000    0.04931    0.03294 =
         0.04480   -0.00303   -0.01217   -0.01483
C01V  1    0.009628    0.657849    1.336768    11.00000    0.04358    0.05495 =
         0.07643   -0.01937   -0.01229   -0.00724
C03   1    0.860411    0.908685   -0.042917    11.00000    0.21102    0.20366 =
         0.07257    0.10142   -0.10783   -0.17734
O02   4    0.853926    0.775436   -0.117610    11.00000    0.05618    0.05500 =
         0.05448   -0.00996   -0.01206   -0.02984
O01   4    0.655449    0.879657   -0.056134    11.00000    0.05182    0.09278 =
         0.05907   -0.02254   -0.00152   -0.04916
C01   1    0.785595    0.846140   -0.073126    11.00000    0.09268    0.06186 =
         0.04817    0.01628   -0.03237   -0.04438
C300  1    1.056122    0.971745   -0.018231    11.00000    0.06607    0.05236 =
         0.05109   -0.00261    0.00670    0.00947
PART -1
C4    1    0.991314    0.885630   -0.056562    10.50000    0.07532    0.08609 =
         0.03200    0.04233   -0.03582   -0.06662

C400  1    1.189570    0.943723   -0.039413    10.50000    0.11482    0.07905 =
         0.02933    0.01016   -0.03924   -0.08319
C500  1    1.211761    1.017956   -0.002418    10.50000    0.21770    0.01930 =
         0.04873    0.02989   -0.10412   -0.06231
PART 0
HKLF 4




REM  pvl730_tP_a.res in P-1
REM wR2 = 0.4339, GooF = S = 2.628, Restrained GooF = 2.628 for all data
REM R1 = 0.1581 for 6877 Fo > 4sig(Fo) and 0.1918 for all 9723 data
REM 685 parameters refined using 0 restraints

END

WGHT      0.0931    181.0622

REM Highest difference peak  3.456,  deepest hole -2.680,  1-sigma level  0.298
Q1    1   0.2249  0.8557  0.5493  11.00000  0.05    3.46
Q2    1  -0.3693  1.2791  1.1936  11.00000  0.05    3.17
Q3    1   0.8630  1.3623  0.1236  11.00000  0.05    3.14
Q4    1   0.6035  0.8039 -0.1131  11.00000  0.05    2.92
Q5    1   0.1906  0.3607  0.9930  11.00000  0.05    2.91
Q6    1  -0.4575  0.9696  1.4934  11.00000  0.05    2.71
Q7    1   0.2767  0.8370  0.6049  11.00000  0.05    2.69
Q8    1   0.5428 -0.1801  0.8274  11.00000  0.05    2.62
Q9    1   0.5235  0.3312  0.2682  11.00000  0.05    2.57
Q10   1  -0.0799  0.8826  1.2724  11.00000  0.05    1.96
Q11   1   0.7371  0.6566 -0.0535  11.00000  0.05    1.82
Q12   1   0.4172  0.6896  0.6694  11.00000  0.05    1.78
Q13   1   0.3402  0.7866  0.5317  11.00000  0.05    1.65
Q14   1   0.2530  0.7841  0.5157  11.00000  0.05    1.60
Q15   1   0.0480  0.9682  0.3913  11.00000  0.05    1.50
Q16   1   0.5755 -0.1000  0.8596  11.00000  0.05    1.46
Q17   1   0.1604  0.4315  1.0316  11.00000  0.05    1.42
Q18   1  -0.1036  0.8708  1.1199  11.00000  0.05    1.38
Q19   1   0.5767 -0.2375  0.7975  11.00000  0.05    1.38
Q20   1   0.0838  0.4597  0.9514  11.00000  0.05    1.35
;
_shelx_res_checksum   65029

_shelx_hkl_file
;
   2   1   1  484.15   39.70
   2   1   1  461.05   39.60
  -2  -1  -1  489.65   39.70
  -2  -1  -1  457.05   39.70
   4   2   2  168.98   14.40
   4   2   2  158.88   14.40
  -4  -2  -2  174.88   14.50
   6   3   3 1310.17  113.79
   6   3   3 1392.86  113.89
   6   3   3 1351.86  113.99
  -6  -3  -3 1380.86  113.99
   8   4   4   51.89    5.60
   8   4   4   51.39    6.10
   8   4   4   54.89    6.00
  -8  -4  -4   49.50    5.90
  10   5   5    6.00    3.60
  10   5   5    2.50    2.80
  10   5   5   -1.70    2.80
 -10  -5  -5    1.20    3.50
 -12  -6  -6   15.60    5.10
 -11  -5  -6   27.80    5.30
  11   5   6   16.50    4.60
  -9  -4  -5  122.09   11.80
   9   4   5  100.39   11.10
   9   4   5  136.29   11.90
   9   4   5  138.79   11.10
  -7  -3  -4    4.50    2.70
   7   3   4    3.00    2.50
   7   3   4    3.10    2.00
   7   3   4    5.70    2.00
  -5  -2  -3   18.50    3.10
   5   2   3   13.60    2.70
   5   2   3   17.70    2.50
  -3  -1  -2   43.00    3.90
   3   1   2   38.50    3.90
   3   1   2   26.90    3.30
  -1   0  -1   10.40    1.20
  -1  -1   0   11.20    1.30
  -1  -1   0    9.90    1.50
   3   2   1  164.08   11.40
   3   2   1  112.09   11.50
  -3  -2  -1  113.79   11.60
   5   3   2  298.37   25.10
   5   3   2  285.17   25.10
  -5  -3  -2  298.17   25.10
   7   4   3  148.59   13.00
   7   4   3  142.09   13.10
   7   4   3  142.89   12.90
  -7  -4  -3  140.79   13.00
   9   5   4   55.19    7.00
   9   5   4   49.99    6.30
  -9  -5  -4   62.69    7.10
  11   6   5   73.49    8.60
  11   6   5   71.19    7.90
 -11  -6  -5   76.19    8.70
 -12  -5  -7    5.10    4.40
 -10  -4  -6   11.20    4.00
  10   4   6   11.50    4.40
  -8  -3  -5   39.00    5.60
   8   3   5   39.00    5.30
  -6  -2  -4    4.00    2.30
   6   2   4    1.00    1.90
  -4  -1  -3  280.17   23.20
   4   1   3  265.37   23.20
  -2   0  -2  170.58   13.80
   2   0   2  152.68   13.80
   0   1  -1    3.00    1.10
   2   2   0  380.46   33.70
   2   2   0  421.16   33.60
  -2  -2   0  398.96   33.50
  -2  -2   0  394.46   33.80
   4   3   1   10.10    3.10
   4   3   1   13.30    2.50
  -4  -3  -1   11.70    3.30
  -4  -3  -1   19.70    2.70
   6   4   2  676.03   59.09
   6   4   2  704.43   58.99
   6   4   2  698.23   59.09
  -6  -4  -2  717.13   58.99
   8   5   3   45.30    6.50
   8   5   3   48.10    6.20
   8   5   3   54.99    6.30
  -8  -5  -3   54.89    6.00
  10   6   4    8.40    3.90
  10   6   4   14.60    4.30
  10   6   4    9.70    4.00
 -10  -6  -4   26.90    4.70
  12   7   5    9.70    4.50
  12   7   5   -1.10    4.30
 -12  -7  -5    7.80    4.30
 -11  -4  -7    8.10    4.20
  11   4   7    9.90    4.40
  -9  -3  -6  138.79   12.30
   9   3   6  109.79   12.00
  -7  -2  -5  112.49   11.10
   7   2   5  126.49   11.10
  -5  -1  -4  217.58   18.70
   5   1   4  215.08   18.70
  -3   0  -3  494.05   42.10
   3   0   3  506.05   42.10
  -1   1  -2   20.20    4.30
  -1   1  -2   30.30    3.30
  -1   1  -2   38.80    3.30
   1  -1   2   41.10    3.40
   1   2  -1  190.68   15.40
   1   2  -1  158.68   15.70
  -1  -2   1  199.98   15.40
  -1  -2   1  172.18   15.70
   3   3   0   36.10    3.80
   3   3   0   29.60    4.30
  -3  -3   0   32.20    3.80
  -3  -3   0   30.60    4.70
   5   4   1  106.89   10.30
   5   4   1  109.49    9.90
  -5  -4  -1  109.99    9.90
   7   5   2  167.58   15.00
   7   5   2  164.48   15.10
   7   5   2  162.68   14.70
  -7  -5  -2  161.28   14.60
   9   6   3  353.36   30.50
   9   6   3  347.47   31.00
   9   6   3  355.56   30.50
  -9  -6  -3  341.67   30.40
  11   7   4   -2.90    3.50
  11   7   4    0.60    4.00
 -11  -7  -4    1.50    3.50
 -12  -4  -8   17.10    5.10
 -10  -3  -7    5.30    4.10
  -8  -2  -6   40.40    5.40
   8   2   6   24.30    4.80
  -6  -1  -5   57.49    6.00
  -4   0  -4  144.39   12.10
   4   0   4  125.29   11.80
  -2   1  -3   45.10    3.90
  -2   1  -3   29.10    3.70
   2  -1   3   38.00    3.80
   0   2  -2    5.90    1.70
   0   2  -2    2.30    2.30
   0  -2   2    8.50    1.70
   0  -2   2    4.90    2.60
   2   3  -1  649.34   55.99
   2   3  -1  689.93   55.69
  -2  -3   1  641.04   55.99
  -2  -3   1  669.33   55.69
   4   4   0  503.85   41.20
   4   4   0  481.85   41.50
  -4  -4   0  474.15   41.60
   6   5   1   95.69   11.00
   6   5   1  105.09   10.50
   6   5   1  118.69   10.70
  -6  -5  -1  117.29   10.10
   8   6   2   44.40    6.50
   8   6   2   47.50    6.20
   8   6   2   49.30    6.70
  -8  -6  -2   46.80    6.10
  10   7   3   11.80    4.80
  10   7   3    8.00    4.50
 -10  -7  -3    9.20    4.10
  12   8   4   -3.00    4.80
  12   8   4  -12.10    4.80
 -11  -3  -8   22.50    5.60
  -9  -2  -7  103.29   10.10
   9   2   7   90.79    9.90
  -7  -1  -6  199.88   17.40
   7   1   6  190.98   17.30
  -5   0  -5  392.96   34.00
   5   0   5  406.66   34.00
  -3   1  -4  135.29   12.30
  -3   1  -4  151.88   12.60
   3  -1   4  151.98   12.60
  -1   2  -3   90.39    8.40
  -1   2  -3   74.69    8.70
  -1   2  -3  100.59    8.30
   1  -2   3  100.49    8.30
   1   3  -2  475.95   42.10
   1   3  -2  534.95   41.70
  -1  -3   2  536.85   41.80
  -1  -3   2  430.06   42.10
   3   4  -1    1.80    1.80
   3   4  -1    1.60    1.90
   3   4  -1   -0.10    2.60
  -3  -4   1   -5.90    2.90
   5   5   0   11.50    2.70
   5   5   0   18.00    3.10
   5   5   0    7.80    4.20
   7   6   1    5.90    2.80
   7   6   1    8.20    3.50
   7   6   1    0.70    3.80
  -7  -6  -1    6.40    2.90
   9   7   2   -2.60    4.10
   9   7   2   -0.20    3.30
   9   7   2   -7.80    4.10
  -9  -7  -2    5.00    3.80
  11   8   3    5.10    4.80
  11   8   3    9.30    4.60
  11   8   3    5.00    4.90
 -12  -3  -9    3.40    4.70
 -10  -2  -8    9.40    4.60
  10   2   8   12.30    4.30
  -8  -1  -7    9.70    3.50
   8   1   7   -0.30    3.00
  -6   0  -6    9.50    3.00
   6   0   6    7.10    2.70
  -4   1  -5   31.80    4.10
   4  -1   5   31.40    4.00
  -2   2  -4  290.67   25.70
  -2   2  -4  270.07   25.60
  -2   2  -4  322.67   25.60
   2  -2   4  325.47   25.60
   0   3  -3  164.08   15.60
   0   3  -3  188.78   15.10
   0  -3   3  187.48   15.10
   0  -3   3  153.98   15.60
   2   4  -2  225.38   21.30
   2   4  -2  260.27   20.90
  -2  -4   2  261.27   20.90
  -2  -4   2  222.78   21.40
   4   5  -1  471.75   40.40
   4   5  -1  483.75   39.90
   4   5  -1  485.75   40.00
  -4  -5   1  441.16   40.40
   6   6   0  208.88   18.70
   6   6   0  200.58   18.00
   6   6   0  187.78   18.40
   6   6   0  214.88   17.90
   8   7   1   12.30    5.20
   8   7   1   14.40    3.90
   8   7   1    7.60    4.50
   8   7   1   17.30    4.30
  10   8   2    6.70    4.90
  10   8   2    9.20    4.60
  10   8   2   12.90    4.20
  10   8   2    6.20    4.60
  12   9   3    4.00    5.60
  12   9   3   -1.30    5.60
  12   9   3    7.40    5.40
 -11  -2  -9   34.30    6.40
  -9  -1  -8    8.60    4.40
   9   1   8   20.90    4.60
  -7   0  -7   30.20    4.80
   7   0   7   29.80    4.60
  -5   1  -6  284.57   20.70
   5  -1   6  188.98   20.70
  -3   2  -5   79.19    7.70
  -3   2  -5   84.39    7.80
  -3   2  -5   81.59    7.60
   3  -2   5   92.99    7.90
  -1   3  -4  217.98   17.50
  -1   3  -4  187.78   17.70
  -1   3  -4  183.18   17.80
   1  -3   4  222.18   17.50
   1   4  -3   39.10    4.50
   1   4  -3   52.19    5.70
  -1  -4   3   54.89    6.00
  -1  -4   3   36.80    4.50
   3   5  -2   10.50    2.70
   3   5  -2    5.20    3.30
  -3  -5   2   12.60    2.70
  -3  -5   2    0.60    3.60
   5   6  -1    9.30    3.90
   5   6  -1    6.40    4.00
   5   6  -1   13.80    3.10
   7   7   0   56.49    7.90
   7   7   0   58.59    7.90
   7   7   0   56.29    6.60
   7   7   0   65.39    6.90
   9   8   1   18.60    5.80
   9   8   1   25.30    4.80
   9   8   1   27.90    6.30
  11   9   2   11.10    6.00
  11   9   2    2.80    5.70
  11   9   2   14.40    5.40
 -12  -2 -10   36.50    7.60
 -10  -1  -9   11.10    5.00
  10   1   9   10.50    4.70
  -8   0  -8   34.80    6.10
   8   0   8   41.90    6.00
  -6   1  -7   70.59    7.00
   6  -1   7   60.59    6.80
  -4   2  -6   19.40    3.30
  -4   2  -6   18.50    3.00
  -4   2  -6   17.90    2.60
   4  -2   6   21.70    3.60
  -2   3  -5   44.90    5.70
  -2   3  -5   54.59    5.40
  -2   3  -5   50.39    5.90
   2  -3   5   65.09    5.50
   0   4  -4  197.58   16.80
   0   4  -4  147.39   17.00
   0  -4   4  205.38   16.20
   2   5  -3   66.49    6.30
   2   5  -3   61.69    7.20
  -2  -5   3   64.49    6.30
  -2  -5   3   58.19    7.80
   4   6  -2  128.59   11.30
   4   6  -2  114.39   12.20
   4   6  -2  123.99   11.20
   6   7  -1   12.40    3.10
   6   7  -1    2.70    4.30
   6   7  -1    4.80    3.50
   6   7  -1    2.10    2.80
   8   8   0   -5.20    4.70
   8   8   0   -4.60    3.70
   8   8   0    1.40    3.40
   8   8   0    0.30    3.20
  10   9   1   -3.30    4.50
  10   9   1    6.50    4.30
  10   9   1   -0.50    3.90
  10   9   1   -3.10    5.50
  12  10   2   -0.30    6.50
  12  10   2   16.80    7.90
  12  10   2    4.00    5.20
 -11  -1 -10   17.40    5.90
  -9   0  -9    5.80    4.20
   9   0   9    3.90    3.90
  -7   1  -8   55.79    6.70
   7  -1   8   57.49    6.70
  -5   2  -7  407.96   35.50
   5  -2   7  421.56   35.60
  -3   3  -6  110.09    9.60
  -3   3  -6   86.79    9.60
  -3   3  -6  108.39    9.70
   3  -3   6  114.49    9.70
  -1   4  -5  563.54   48.30
  -1   4  -5  548.15   48.20
  -1   4  -5  575.64   48.00
   1  -4   5  587.14   48.00
   1   5  -4  336.87   30.40
   1   5  -4  370.56   29.90
  -1  -5   4  341.57   29.90
   3   6  -3   77.29    8.30
   3   6  -3   66.89    7.00
  -3  -6   3   70.09    7.10
   5   7  -2    3.10    3.10
   5   7  -2   -3.00    3.70
   5   7  -2    7.00    2.70
   5   7  -2    5.50    2.70
   7   8  -1   -1.90    3.00
   7   8  -1    1.00    4.00
   7   8  -1    3.30    5.40
   7   8  -1    2.70    3.10
   9   9   0    3.50    4.60
   9   9   0    5.20    5.50
   9   9   0    7.80    5.50
   9   9   0   11.30    4.60
  11  10   1   22.50    5.90
  11  10   1   19.50    6.90
  11  10   1    9.80    5.80
 -10   0 -10   11.00    4.80
  -8   1  -9    7.00    4.20
   8  -1   9    9.20    3.90
  -6   2  -8   12.70    3.40
   6  -2   8   13.10    3.50
  -4   3  -7   22.30    3.70
  -4   3  -7   19.80    3.40
  -4   3  -7   13.80    2.80
   4  -3   7   13.80    3.30
  -2   4  -6   18.50    3.70
  -2   4  -6   15.10    3.30
  -2   4  -6   17.90    3.40
   2  -4   6   18.50    3.40
   0   5  -5   15.80    4.30
   0   5  -5   18.30    3.10
   0   5  -5   16.30    3.70
   0  -5   5    8.10    2.80
   2   6  -4    6.50    2.60
   2   6  -4    8.50    4.20
  -2  -6   4    8.90    2.80
   4   7  -3   47.20    6.90
   4   7  -3   47.00    5.50
   4   7  -3   35.60    6.70
  -4  -7   3   52.19    5.60
   6   8  -2  248.68   23.30
   6   8  -2  240.88   21.90
   6   8  -2  253.07   22.10
   6   8  -2  256.77   23.20
   8   9  -1   77.69   11.10
   8   9  -1   94.89   11.10
   8   9  -1   83.99    9.20
  10  10   0    3.70    5.00
  10  10   0    6.90    4.30
  10  10   0    3.40    6.40
 -11   0 -11    4.40    4.90
  -9   1 -10   33.50    6.80
   9  -1  10   25.50    6.40
  -7   2  -9   52.39    7.40
   7  -2   9   46.10    7.00
  -5   3  -8  158.88   14.80
  -5   3  -8  162.08   14.30
  -5   3  -8  164.68   14.30
   5  -3   8  162.58   14.90
  -3   4  -7  259.37   22.80
  -3   4  -7  259.27   23.00
  -3   4  -7  277.87   23.00
   3  -4   7  256.77   22.80
  -1   5  -6  171.48   16.10
  -1   5  -6  175.48   15.60
  -1   5  -6  173.68   16.20
   1  -5   6  185.58   15.70
   1   6  -5  135.49   15.20
   1   6  -5  101.09   10.80
   1   6  -5  106.59   10.20
  -1  -6   5  117.29   10.50
   3   7  -4   26.50    4.20
   3   7  -4   22.00    5.40
   3   7  -4   25.90    5.00
  -3  -7   4   27.60    4.30
   5   8  -3   73.49    8.10
   5   8  -3   56.29    6.20
   5   8  -3   37.40    5.70
   5   8  -3   52.49    7.40
   7   9  -2    8.40    3.80
   7   9  -2   10.20    6.20
   7   9  -2   10.00    5.20
   7   9  -2    1.20    3.70
   9  10  -1   -6.30    5.70
   9  10  -1    8.40    4.40
   9  10  -1    3.70    3.90
   9  10  -1   -3.10    5.30
  11  11   0    0.30    4.80
  11  11   0   -1.50    5.50
 -10   1 -11    1.40    4.70
  -8   2 -10   11.30    4.20
   8  -2  10    2.90    4.00
  -6   3  -9   18.60    4.40
   6  -3   9    8.40    3.90
  -4   4  -8    5.80    3.00
  -4   4  -8    8.30    3.50
  -4   4  -8   20.90    3.70
   4  -4   8   14.90    3.40
  -2   5  -7   24.50    3.90
  -2   5  -7   15.90    3.80
  -2   5  -7   15.80    4.00
   2  -5   7   17.30    3.50
   0   6  -6   99.79   10.30
   0   6  -6   92.99    9.50
   0  -6   6  111.69    9.60
   2   7  -5  231.68   20.60
   2   7  -5  234.18   20.50
   2   7  -5  212.18   19.70
  -2  -7   5  223.38   19.80
   4   8  -4  455.35   37.80
   4   8  -4  413.46   36.80
   4   8  -4  428.36   37.90
  -4  -8   4  423.86   37.00
   6   9  -3   81.49    8.80
   6   9  -3   85.89    9.00
   6   9  -3   87.19   10.90
   6   9  -3   93.79   10.90
   8  10  -2  127.39   13.00
   8  10  -2  137.99   13.50
   8  10  -2  145.09   15.70
   8  10  -2  135.79   15.00
  10  11  -1   15.50    8.10
  10  11  -1   31.50    6.60
  -9   2 -11    6.60    5.10
  -7   3 -10   10.80    4.30
   7  -3  10    7.50    4.30
  -5   4  -9   12.70    3.40
  -5   4  -9    9.70    3.70
  -5   4  -9   10.20    3.10
   5  -4   9   11.80    3.70
  -3   5  -8   48.20    6.30
  -3   5  -8   51.39    6.00
  -3   5  -8   35.20    5.80
   3  -5   8   35.30    5.40
  -1   6  -7   63.39    6.80
  -1   6  -7   52.89    6.10
  -1   6  -7   66.69    7.90
   1  -6   7   46.60    5.90
   1   7  -6   18.70    3.30
   1   7  -6    6.50    3.60
   1   7  -6    3.50    4.00
  -1  -7   6    8.00    3.00
   3   8  -5   50.89    7.40
   3   8  -5   49.99    5.90
   3   8  -5   46.70    7.50
  -3  -8   5   49.50    6.60
   5   9  -4   79.29    9.70
   5   9  -4   55.09    9.30
   5   9  -4   52.39    6.40
   5   9  -4   53.19    7.00
   7  10  -3    5.90    5.60
   7  10  -3   11.60    4.50
   7  10  -3   10.10    6.80
   9  11  -2   -5.10    5.40
   9  11  -2   -2.20    4.00
  11  12  -1    6.60    8.00
 -10   2 -12   52.39    9.20
  -8   3 -11    0.90    4.30
  -6   4 -10   24.90    4.10
  -6   4 -10   32.60    5.60
  -6   4 -10   26.20    3.90
  -4   5  -9   67.59    7.40
  -4   5  -9   66.09    7.20
  -4   5  -9   54.79    7.00
   4  -5   9   59.29    7.10
  -2   6  -8    1.30    3.10
  -2   6  -8    3.40    3.10
  -2   6  -8    0.00    3.60
   2  -6   8   -0.50    3.10
   0   7  -7    0.30    3.20
   0   7  -7    4.60    4.10
   0   7  -7    6.90    3.10
   0  -7   7    7.30    2.80
   2   8  -6   25.90    6.00
   2   8  -6   44.50    6.50
   2   8  -6   28.30    4.70
  -2  -8   6   22.60    4.40
   4   9  -5  115.39   11.70
   4   9  -5  103.69   11.50
   4   9  -5   93.69   10.20
  -4  -9   5   97.29   10.40
   6  10  -4   -4.30    2.80
   6  10  -4   -7.60    5.70
   6  10  -4    0.50    3.60
   6  10  -4    2.80    5.80
   8  11  -3   -2.60    4.00
   8  11  -3    3.40    6.20
   8  11  -3   -1.50    3.90
  10  12  -2    8.60    7.50
  10  12  -2    8.50    5.10
  -9   3 -12    6.50    5.00
  -7   4 -11   32.70    6.30
   7  -4  11   28.90    6.50
  -5   5 -10   77.49    8.70
  -5   5 -10   65.89    7.40
  -5   5 -10   54.59    7.10
  -3   6  -9   44.40    6.30
  -3   6  -9   38.00    6.50
  -3   6  -9   37.20    6.40
   3  -6   9   42.90    6.10
  -1   7  -8  160.58   14.80
  -1   7  -8  144.09   14.00
  -1   7  -8  156.18   14.90
   1  -7   8  148.99   14.00
   1   8  -7  372.76   32.20
   1   8  -7  373.06   32.30
   1   8  -7  343.37   31.20
  -1  -8   7  352.96   31.10
   3   9  -6   15.90    5.60
   3   9  -6   15.80    3.90
   3   9  -6   13.20    5.00
  -3  -9   6   11.70    4.00
   5  10  -5    9.10    5.80
   5  10  -5   12.80    6.70
   5  10  -5   14.80    4.60
   7  11  -4   72.79   11.70
   7  11  -4   78.89   11.50
   7  11  -4   62.59    8.30
   7  11  -4   43.80    7.30
   9  12  -3    5.50    7.80
   9  12  -3    6.60    4.80
  -8   4 -12   25.50    6.30
  -6   5 -11    1.20    3.90
  -6   5 -11    4.40    3.20
   6  -5  11    8.90    4.10
  -4   6 -10   36.70    5.90
  -4   6 -10   34.30    6.10
  -4   6 -10   32.50    6.00
  -2   7  -9   29.80    5.00
  -2   7  -9   28.80    5.60
  -2   7  -9   23.10    5.30
   2  -7   9   17.60    4.40
   0   8  -8    3.30    4.10
   0   8  -8    1.20    3.30
   0   8  -8   -2.40    4.40
   0  -8   8    5.00    3.10
   2   9  -7    0.10    4.60
   2   9  -7   -1.80    4.50
   2   9  -7    0.40    3.10
  -2  -9   7    0.10    3.30
   4  10  -6   25.50    6.80
   4  10  -6   26.80    5.10
  -4 -10   6   18.40    5.50
   6  11  -5   17.10    7.30
   6  11  -5   35.40    6.20
   6  11  -5   26.70    5.00
   6  11  -5   27.30    8.10
   8  12  -4   12.50    8.70
   8  12  -4   13.70    5.20
  10  13  -3   14.20    9.20
  10  13  -3    9.30    5.80
  -9   4 -13   -0.90    4.80
  -7   5 -12   -1.10    2.60
  -7   5 -12    1.70    4.30
  -5   6 -11   42.20    6.60
  -5   6 -11   48.00    7.30
  -5   6 -11   44.40    6.80
   5  -6  11   37.00    6.70
  -3   7 -10  111.09   12.50
  -3   7 -10  126.39   12.70
  -3   7 -10  112.59   11.80
   3  -7  10  119.49   12.00
  -1   8  -9   53.99    8.40
  -1   8  -9   55.89    8.90
  -1   8  -9   50.29    7.00
   1  -8   9   48.00    6.90
   1   9  -8   21.10    4.70
   1   9  -8   12.00    5.40
   1   9  -8   11.10    6.00
  -1  -9   8   15.60    4.40
   3  10  -7   52.79    9.20
   3  10  -7   54.29    9.20
   3  10  -7   64.69    7.70
  -3 -10   7   38.50    8.40
   5  11  -6   29.80    8.00
   5  11  -6   24.10    5.30
  -5 -11   6   14.70    4.80
   7  12  -5   13.10    7.20
   7  12  -5    5.10    4.90
   9  13  -4    0.20    8.60
  -6   6 -12   31.20    6.10
  -6   6 -12   20.90    4.80
  -4   7 -11   10.20    4.50
  -4   7 -11    8.70    4.20
  -4   7 -11    5.10    4.60
   4  -7  11    6.40    4.60
  -2   8 -10   27.10    6.40
  -2   8 -10   29.70    7.10
  -2   8 -10   39.90    6.30
   0   9  -9   16.00    5.90
   0   9  -9   18.90    6.50
   0   9  -9   25.20    5.40
   2  10  -8   20.70    6.60
   2  10  -8   14.20    6.40
   2  10  -8   21.60    5.30
  -2 -10   8   20.70    5.20
   4  11  -7   24.50    7.80
   4  11  -7   20.90    5.20
   6  12  -6   29.20    8.80
   6  12  -6   27.20    6.00
   8  13  -5   27.00    7.50
  -7   6 -13   -2.40    3.60
  -7   6 -13    0.70    3.20
  -5   7 -12   11.70    5.00
  -5   7 -12   19.00    5.50
  -5   7 -12   11.40    4.90
  -3   8 -11   -3.00    4.20
  -3   8 -11    4.20    4.80
  -3   8 -11    3.90    4.80
  -1   9 -10   -3.80    5.10
  -1   9 -10    3.90    4.00
   1  10  -9   29.50    7.80
   1  10  -9   26.70    7.60
   1  10  -9   36.70    6.40
   3  11  -8   22.50    5.50
   3  11  -8   23.00    7.50
   5  12  -7   -4.30    6.70
   5  12  -7   10.10    4.50
   7  13  -6   14.00    5.30
  -6   7 -13   13.00    6.60
  -6   7 -13   15.30    5.10
  -6   7 -13   10.70    4.80
  -4   8 -12   20.70    5.50
  -4   8 -12   10.20    5.40
  -4   8 -12   14.60    5.40
  -2   9 -11   14.80    5.00
  -2   9 -11   19.10    6.60
  -2   9 -11   21.90    6.60
   0  10 -10   31.50    7.60
   0  10 -10   27.00    6.20
   0  10 -10   30.30    7.30
   2  11  -9    3.10    6.00
   2  11  -9    4.40    4.60
   4  12  -8    6.00    5.00
   4  12  -8   -2.50    6.80
   6  13  -7   10.50    5.40
   8  14  -6    1.00    5.70
  -7   7 -14   -1.70    4.90
  -7   7 -14    0.00    3.70
  -5   8 -13   -3.20    4.50
  -5   8 -13    3.50    4.90
  -3   9 -12   21.60    6.70
  -3   9 -12   14.90    5.90
  -1  10 -11   33.20    6.80
  -1  10 -11   28.30    8.40
  -1  10 -11   44.10    8.00
   1  11 -10   78.69    9.80
   1  11 -10   60.09   11.00
   3  12  -9   77.59   13.20
   3  12  -9   83.69   11.10
   5  13  -8   35.20    7.20
   7  14  -7   13.40    5.90
  -6   8 -14    2.00    4.70
  -6   8 -14   -0.60    4.80
  -6   8 -14    0.50    5.10
  -4   9 -13    4.50    5.20
  -4   9 -13    6.90    5.80
  -2  10 -12    2.80    4.90
  -2  10 -12    2.90    5.40
   0  11 -11    8.30    6.70
   0  11 -11   11.30    5.10
   2  12 -10   10.00    5.40
   2  12 -10   29.00   10.00
   6  14  -8    2.60    5.90
  -5   9 -14    1.50    6.00
  -5   9 -14    1.40    5.30
  -3  10 -13    9.50    6.00
  -3  10 -13    1.80    5.50
  -1  11 -12   12.70    7.00
   1  12 -11    1.50    6.80
   3  13 -10   14.30    8.80
   3  13 -10   28.80    6.90
   5  14  -9    8.30    5.90
  -4  10 -14   11.20    7.00
  -2  11 -13    6.60    7.10
  -2  11 -13    8.30    5.90
   0  12 -12    8.80    5.70
   0  12 -12    6.60    7.30
   2  13 -11   13.50    6.00
  -1  12 -13    1.50    6.50
   1  13 -12    1.30    6.80
   1  13 -11   19.70    9.60
   1  13 -11   14.40    6.10
  -1  12 -12   12.20    7.10
  -1  12 -12    9.30    5.90
   4  14  -9    4.10    5.50
   4  14  -9   15.30    9.30
   2  13 -10    0.60    5.10
   0  12 -11    9.60    6.90
   0  12 -11    3.00    5.00
  -2  11 -12    5.10    5.20
  -2  11 -12   -1.00    5.20
  -4  10 -13   -2.60    5.00
  -4  10 -13    7.80    6.40
   5  14  -8    3.00    5.30
   5  14  -8    3.80    7.90
   1  12 -10    0.00    4.80
   1  12 -10   10.30    6.80
  -1  11 -11   17.90    6.00
  -1  11 -11   16.30    6.90
  -3  10 -12    0.90    5.70
  -3  10 -12   12.60    6.60
  -3  10 -12    7.50    7.10
  -5   9 -13   10.40    5.70
  -5   9 -13    9.10    6.00
   6  14  -7   -6.60    7.00
   6  14  -7    2.90    5.20
   4  13  -8    0.80    5.10
   2  12  -9   12.50    5.60
   2  12  -9    7.30    6.70
   0  11 -10   39.80    7.60
   0  11 -10   45.90    9.50
  -2  10 -11   20.00    6.60
  -2  10 -11   24.80    6.60
  -2  10 -11   23.70    6.40
  -4   9 -12   12.70    5.80
  -4   9 -12   10.60    5.80
  -6   8 -13    4.20    4.80
  -6   8 -13    0.30    4.70
  -6   8 -13   -1.60    4.70
   7  14  -6   27.80   10.00
   7  14  -6   12.70    5.60
   5  13  -7   11.60    7.80
   5  13  -7    3.10    4.80
   3  12  -8    7.20    4.80
   3  12  -8   -4.90    6.50
   1  11  -9    4.40    4.40
   1  11  -9   11.20    6.20
  -1  10 -10   10.50    5.90
  -1  10 -10    8.30    5.80
  -1  10 -10   10.60    5.20
  -3   9 -11    6.40    5.10
  -3   9 -11    0.90    4.50
  -5   8 -12    1.40    4.30
  -5   8 -12   12.10    5.30
  -5   8 -12    6.00    5.30
  -7   7 -13    8.90    5.50
  -7   7 -13    0.50    3.50
   8  14  -5    0.30    7.80
   8  14  -5   -2.40    4.60
   6  13  -6   16.30   10.90
   6  13  -6    3.20    4.50
   4  12  -7   60.49   11.40
   4  12  -7   64.69    8.90
   2  11  -8   89.99   11.10
   2  11  -8  128.89   14.20
   0  10  -9   93.89   10.90
   0  10  -9  106.59   12.60
   0  10  -9  107.19   12.60
  -2   9 -10   66.59    8.60
  -2   9 -10   49.70    9.00
  -2   9 -10   45.40    9.00
  -4   8 -11   23.90    6.10
  -4   8 -11   23.90    5.60
  -4   8 -11   25.20    6.00
  -6   7 -12   15.00    5.40
  -6   7 -12   12.80    4.80
  -6   7 -12    8.70    4.50
  -8   6 -13   -0.30    5.00
   7  13  -5    6.20    4.70
   7  13  -5    3.20    7.70
   5  12  -6    5.30    6.70
   5  12  -6    5.20    4.50
  -3 -11   7   -0.70    3.60
   3  11  -7   11.10    4.60
   3  11  -7   17.00    6.80
  -1 -10   8    9.20    4.40
   1  10  -8   14.10    4.70
   1  10  -8    6.80    5.50
   1  10  -8    8.20    6.00
  -1   9  -9   22.10    5.70
  -1   9  -9   13.40    5.60
  -1   9  -9   19.20    4.90
  -3   8 -10    8.90    5.30
  -3   8 -10   10.10    4.40
  -3   8 -10    9.50    4.60
  -5   7 -11   18.50    5.00
  -5   7 -11   12.80    5.10
  -5   7 -11   18.50    5.30
  -7   6 -12   18.60    4.40
  -7   6 -12   27.80    6.50
   8  13  -4   17.30    5.70
   8  13  -4   10.60    7.70
   6  12  -5   22.50    8.10
   6  12  -5    5.60    4.20
  -4 -11   6    0.90    4.20
   4  11  -6    3.60    5.60
   4  11  -6    1.40    3.80
   2  10  -7   60.39    7.70
   2  10  -7   52.49    9.50
   0   9  -8   67.49   10.10
   0   9  -8   66.79   10.10
   0   9  -8   81.09    9.10
  -2   8  -9   -4.70    4.10
  -2   8  -9    2.40    3.90
  -2   8  -9    2.80    3.40
   4  -7  10    8.20    4.40
  -4   7 -10    3.20    4.50
  -4   7 -10    7.30    4.60
  -4   7 -10   11.20    4.30
  -6   6 -11   14.30    4.50
  -6   6 -11    9.60    3.90
  -6   6 -11    9.40    3.90
  -8   5 -12   -6.30    4.80
   9  13  -3    0.00    4.70
   7  12  -4   53.89   10.70
   7  12  -4   57.59    8.40
  -5 -11   5   53.39    7.70
   5  11  -5   55.39    7.70
   5  11  -5   57.89   10.20
  -3 -10   6   49.10    6.90
   3  10  -6   60.39    9.60
   3  10  -6   53.19    7.20
   3  10  -6   41.50    9.80
  -1  -9   7    4.40    3.50
   1   9  -7    9.00    3.80
   1   9  -7   12.10    4.90
   1   9  -7   11.70    5.30
   1  -8   8   -0.10    3.30
  -1   8  -8    1.40    3.80
  -1   8  -8    2.70    4.30
  -1   8  -8    1.60    3.70
  -3   7  -9    7.50    3.80
  -3   7  -9    9.80    4.40
  -3   7  -9    6.40    4.60
   5  -6  10   31.90    6.20
  -5   6 -10   36.60    6.40
  -5   6 -10   32.60    5.90
  -7   5 -11   24.80    3.80
  -7   5 -11   31.50    6.30
  -7   5 -11   21.90    4.00
  -9   4 -12   18.50    7.80
   8  12  -3    1.80    4.10
   8  12  -3   -0.60    6.60
   6  11  -4   13.20    4.00
   6  11  -4   14.30    4.70
   6  11  -4   22.00    7.20
   6  11  -4   17.50    6.70
  -4 -10   5   14.20    4.20
   4  10  -5   12.80    6.10
   4  10  -5    8.80    5.00
   4  10  -5   16.90    5.70
  -2  -9   6   18.90    4.50
   2   9  -6   25.20    5.70
   2   9  -6   28.20    4.50
   2   9  -6   23.90    5.90
   0  -8   7  178.78   17.60
   0   8  -7  184.98   17.80
   0   8  -7  227.88   19.00
   0   8  -7  208.68   19.00
   2  -7   8   17.80    4.20
  -2   7  -8   16.70    4.70
  -2   7  -8   20.60    4.20
  -2   7  -8   13.20    4.90
   4  -6   9   26.70    5.10
  -4   6  -9   30.90    5.20
  -4   6  -9   18.10    4.80
   6  -5  10   78.29    9.20
  -6   5 -10   89.19    9.20
  -6   5 -10   72.19    8.10
  -8   4 -11   10.10    5.30
 -10   3 -12   -5.50    5.20
   9  12  -2   31.40    6.60
   9  12  -2   36.30    9.70
   7  11  -3   84.49   12.20
   7  11  -3   68.99    8.90
   7  11  -3   79.79    9.10
   7  11  -3   91.39   12.40
  -5 -10   4   14.10    4.60
   5  10  -4   16.60    4.40
   5  10  -4    3.80    5.20
   5  10  -4   10.60    5.60
  -3  -9   5   75.19    8.30
   3   9  -5   77.29   10.00
   3   9  -5   62.29    7.70
   3   9  -5   53.69    8.90
  -1  -8   6   56.09    6.80
   1   8  -6   55.09    6.80
   1   8  -6   58.99    8.20
   1   8  -6   47.60    7.90
   1  -7   7   13.40    3.60
  -1   7  -7   16.30    4.50
  -1   7  -7   16.70    3.70
  -1   7  -7   17.10    4.90
   3  -6   8    8.40    3.10
  -3   6  -8   17.50    3.60
  -3   6  -8    9.10    3.50
   5  -5   9   24.90    5.20
  -5   5  -9   38.50    5.40
  -5   5  -9   35.00    5.60
  -5   5  -9   30.80    5.00
   7  -4  10    3.20    4.10
  -7   4 -10   -0.80    4.30
  -9   3 -11    2.80    5.10
  10  12  -1    5.40    5.90
  10  12  -1    2.10    4.60
   8  11  -2    9.30    4.20
   8  11  -2   -6.60    3.30
   8  11  -2    1.50    5.60
   8  11  -2   12.90    7.30
   6  10  -3   34.70    5.40
   6  10  -3   48.30    9.10
   6  10  -3   40.80    7.90
   6  10  -3   33.60    6.40
  -4  -9   4   95.69    9.50
   4   9  -4   88.29   10.90
   4   9  -4  100.39    9.40
   4   9  -4   82.89   10.80
  -2  -8   5   70.29    7.70
   2   8  -5   85.69    9.00
   2   8  -5   73.49    8.80
   2   8  -5   71.69    7.70
   0  -7   6   88.29    8.70
   0   7  -6   91.29    8.80
   0   7  -6   82.39    9.50
   0   7  -6   96.19    9.80
   2  -6   7  441.66   38.00
  -2   6  -7  428.86   37.90
  -2   6  -7  463.35   39.40
  -2   6  -7  446.36   38.50
   4  -5   8   56.79    7.00
  -4   5  -8   74.69    7.20
  -4   5  -8   55.59    6.90
  -4   5  -8   62.19    7.10
   6  -4   9   21.40    5.60
  -6   4  -9   19.60    3.40
  -6   4  -9   23.80    4.90
  -6   4  -9   22.40    3.70
  -8   3 -10   38.40    6.80
 -10   2 -11   14.70    6.30
  11  12   0    5.00    7.10
  11  12   0    1.50    4.80
   9  11  -1   12.40    7.40
   9  11  -1    3.50    4.00
   9  11  -1   13.30    4.50
   9  11  -1    8.10    5.80
   7  10  -2   28.40    6.60
   7  10  -2   20.00    4.60
   7  10  -2   29.60    7.40
   5   9  -3    7.90    5.10
   5   9  -3    3.90    3.10
   5   9  -3    0.40    4.30
   5   9  -3    1.80    3.00
  -3  -8   4   31.60    5.00
   3   8  -4   36.40    6.10
   3   8  -4   31.40    4.70
   3   8  -4   21.00    5.40
  -1  -7   5   26.60    4.20
   1   7  -5   24.00    4.10
   1   7  -5   20.30    5.20
   1   7  -5   21.00    4.80
   1  -6   6   28.10    4.10
  -1   6  -6   18.40    5.20
  -1   6  -6   29.70    4.20
  -1   6  -6   15.40    4.20
   3  -5   7   16.10    3.40
  -3   5  -7   12.80    3.50
  -3   5  -7    7.80    3.60
  -3   5  -7   17.80    3.60
   5  -4   8   11.40    3.50
  -5   4  -8   13.00    3.00
  -5   4  -8   17.40    3.70
  -5   4  -8   17.30    3.40
   7  -3   9   58.79    9.00
  -7   3  -9   62.29    8.00
  -9   2 -10   14.40    5.60
 -11   1 -11    5.30    5.30
  10  11   0    9.70    5.60
  10  11   0   11.10    5.30
  10  11   0   -5.80    6.20
   8  10  -1   -0.20    3.60
   8  10  -1    1.90    3.70
   8  10  -1    4.10    6.60
   8  10  -1   -5.00    4.60
   6   9  -2    0.50    2.80
   6   9  -2   -1.00    3.00
   6   9  -2   -3.40    4.40
   6   9  -2   -3.10    4.20
  -4  -8   3  281.27   26.70
   4   8  -3  332.17   27.90
   4   8  -3  346.27   28.00
   4   8  -3  288.57   26.60
  -2  -7   4  110.59   10.50
   2   7  -4  111.59   11.30
   2   7  -4  111.39   10.40
   2   7  -4  112.89   11.70
   0  -6   5    3.50    2.50
   0   6  -5    1.20    3.00
   0   6  -5    6.00    2.60
   0   6  -5    2.60    3.50
   2  -5   6   93.79    9.70
  -2   5  -6  124.29   10.50
  -2   5  -6  105.49    9.80
  -2   5  -6  100.19   10.20
   4  -4   7   74.99    8.10
  -4   4  -7   81.89    8.30
  -4   4  -7   88.19    8.10
  -4   4  -7   82.19    8.20
   6  -3   8    4.70    3.40
  -6   3  -8    4.60    3.60
   8  -2   9    2.70    4.10
  -8   2  -9    0.50    3.80
 -10   1 -10   -2.10    4.30
  11  11   1    8.70    8.20
  11  11   1    5.50    4.60
  11  11   1    6.50    5.80
   9  10   0   26.80    5.50
   9  10   0   33.80    6.00
   9  10   0   26.40    7.40
   7   9  -1  167.08   16.70
   7   9  -1  166.08   15.10
   7   9  -1  153.68   16.30
   7   9  -1  158.48   14.90
   5   8  -2  373.56   34.30
   5   8  -2  360.16   34.00
   5   8  -2  399.16   33.20
   5   8  -2  401.56   33.00
  -3  -7   3  310.67   25.60
   3   7  -3  293.47   26.40
   3   7  -3  283.07   26.20
   3   7  -3  291.17   25.40
  -1  -6   4  680.83   54.59
   1   6  -4  649.74   54.59
   1   6  -4  630.34   55.09
   1   6  -4  619.84   55.09
   1  -5   5  243.28   19.80
  -1   5  -5  230.78   20.40
  -1   5  -5  225.58   19.70
  -1   5  -5  210.28   20.20
   3  -4   6   54.69    6.00
  -3   4  -6   55.69    6.40
  -3   4  -6   55.49    6.10
  -3   4  -6   58.29    6.00
   5  -3   7   15.40    3.60
  -5   3  -7   16.10    2.70
  -5   3  -7   12.20    3.00
  -5   3  -7   15.60    3.60
   7  -2   8   11.90    3.60
  -7   2  -8    8.90    3.70
   9  -1   9    8.50    4.10
  -9   1  -9   10.20    4.70
 -11   0 -10   -2.70    4.60
  12  11   2   -0.30    6.40
  12  11   2    4.80    4.60
  10  10   1    3.40    5.00
  10  10   1    5.10    3.90
  10  10   1    3.40    4.00
   8   9   0   -6.60    5.10
   8   9   0   -0.20    4.70
   8   9   0   10.60    3.70
   8   9   0    5.50    3.50
   6   8  -1    6.60    3.10
   6   8  -1    2.20    4.00
   6   8  -1    7.90    3.00
   6   8  -1    2.20    4.50
  -4  -7   2   35.20    4.80
   4   7  -2   26.00    5.50
   4   7  -2   32.40    5.80
   4   7  -2   43.00    4.60
  -2  -6   3   87.19    8.20
   2   6  -3   95.69    9.00
   2   6  -3   75.79    9.20
   2   6  -3   82.69    8.10
   0  -5   4  149.59   12.40
   0   5  -4  144.29   12.90
   0   5  -4  131.99   12.40
   0   5  -4  131.79   13.00
   2  -4   5   18.40    3.40
  -2   4  -5   24.00    3.60
  -2   4  -5   28.10    4.40
  -2   4  -5   28.30    4.10
   4  -3   6  492.75   43.10
  -4   3  -6  525.35   43.00
  -4   3  -6  496.55   43.10
  -4   3  -6  512.85   42.90
   6  -2   7  189.18   17.70
  -6   2  -7  208.48   17.90
   8  -1   8   25.90    5.10
  -8   1  -8   18.10    5.30
 -10   0  -9   26.80    6.00
  11  10   2   12.20    5.10
  11  10   2   12.90    6.00
   9   9   1   11.80    5.40
   9   9   1   14.30    4.20
   9   9   1   23.00    5.20
   9   9   1   19.00    6.30
   7   8   0  137.99   13.80
   7   8   0  130.89   12.40
   7   8   0  124.39   13.60
   7   8   0  136.89   12.60
   5   7  -1  307.77   30.10
   5   7  -1  393.26   30.30
   5   7  -1  349.77   29.40
   5   7  -1  321.67   29.30
  -3  -6   2  288.27   24.10
   3   6  -2  268.87   24.60
   3   6  -2  263.47   24.70
   3   6  -2  293.17   24.10
  -1  -5   3   45.20    4.80
   1   5  -3   47.70    4.80
   1   5  -3   44.50    5.50
   1   5  -3   42.00    6.00
   1  -4   4   27.90    3.40
  -1   4  -4   32.10    3.40
  -1   4  -4   25.10    4.10
  -1   4  -4   16.20    3.40
   3  -3   5    4.70    2.40
  -3   3  -5    8.10    2.60
  -3   3  -5    6.60    2.20
  -3   3  -5    1.80    2.80
   5  -2   6   54.39    5.70
  -5   2  -6   50.89    5.00
  -5   2  -6   56.99    5.90
   7  -1   7    8.20    3.20
  -7   1  -7   10.20    3.80
   9   0   8   45.70    7.10
  -9   0  -8   62.19    7.90
 -11  -1  -9    6.00    4.70
  12  10   3    3.50    7.70
  12  10   3    4.00    4.80
  12  10   3   -2.90    5.20
  10   9   2   -0.30    5.20
  10   9   2   -5.00    4.30
  10   9   2    1.40    3.60
  10   9   2    4.10    3.90
   8   8   1   82.49    9.30
   8   8   1   60.89    7.40
   8   8   1   65.79    7.70
   8   8   1   61.09    9.00
   6   7   0    5.10    2.80
   6   7   0    1.00    3.70
   6   7   0    9.30    3.00
   6   7   0    6.30    3.60
   4   6  -1   18.90    4.40
   4   6  -1   18.90    4.60
   4   6  -1   24.00    3.40
   4   6  -1   18.00    3.10
  -2  -5   2   33.30    4.10
   2   5  -2   35.20    5.00
   2   5  -2   43.50    4.40
   2   5  -2   28.80    4.70
   0  -4   3  282.37   23.40
   0   4  -3  262.77   23.80
   0   4  -3  284.57   23.40
   0   4  -3  266.47   24.00
   2  -3   4  301.27   25.70
  -2   3  -4  291.47   25.90
  -2   3  -4  328.77   25.80
  -2   3  -4  288.07   25.80
   4  -2   5  520.85   42.80
  -4   2  -5  519.65   42.90
  -4   2  -5  480.65   42.60
  -4   2  -5  504.15   42.50
   6  -1   6  134.39   12.30
  -6   1  -6  131.79   12.30
   8   0   7  153.78   14.40
  -8   0  -7  154.68   14.60
  10   1   8   13.60    4.70
 -10  -1  -8   12.30    4.90
 -12  -2  -9    8.30    5.60
  11   9   3    5.30    5.60
  11   9   3    8.30    5.30
  11   9   3   19.80    5.60
  11   9   3   10.70    5.00
   9   8   2   16.10    4.10
   9   8   2    6.80    4.50
   9   8   2   11.70    5.10
   9   8   2   13.80    4.40
   7   7   1   -2.20    2.30
   7   7   1    2.00    2.60
   7   7   1  -12.10    3.30
   7   7   1   -2.90    3.00
   5   6   0   54.69    5.70
   5   6   0   48.90    5.50
   5   6   0   56.39    7.20
   5   6   0   54.29    6.40
  -3  -5   1    6.30    2.30
   3   5  -1    5.20    3.40
   3   5  -1    4.90    2.20
   3   5  -1    6.60    2.70
  -1  -4   2  175.58   14.60
   1   4  -2  157.68   15.30
   1   4  -2  162.68   15.00
   1   4  -2  176.18   14.60
   1  -3   3  133.89   10.10
  -1   3  -3   93.99   10.30
  -1   3  -3   94.39   10.60
  -1   3  -3  130.79   10.10
   3  -2   4  204.88   17.50
  -3   2  -4  214.68   17.60
  -3   2  -4  192.58   17.50
  -3   2  -4  202.18   17.40
  -5   1  -5   17.00    3.30
   7   0   6    6.00    2.90
  -7   0  -6    0.70    3.10
   9   1   7   35.00    6.30
  -9  -1  -7   54.79    7.00
 -11  -2  -8   11.00    4.90
  12   9   4   14.70    5.60
  12   9   4   16.60    6.10
  12   9   4   11.60    5.90
  10   8   3   25.70    6.00
  10   8   3   26.10    6.10
  10   8   3   35.40    6.00
   8   7   2   81.39   10.00
   8   7   2   94.19    9.20
   8   7   2   90.49   10.00
   6   6   1   96.19    9.10
   6   6   1   93.59    9.90
   6   6   1   95.09    9.80
   4   5   0  154.18   13.60
   4   5   0  131.89   13.80
   4   5   0  156.58   13.80
   4   5   0  153.08   13.10
  -2  -4   1    7.70    2.20
   2   4  -1    3.10    2.50
   2   4  -1   12.10    2.20
   2   4  -1    4.70    3.10
   0  -3   2   62.39    5.80
   0   3  -2   51.19    6.30
   0   3  -2   63.89    5.80
   0   3  -2   71.89    7.00
   2  -2   3  624.64   51.09
  -2   2  -3  648.04   51.09
  -2   2  -3  551.34   50.99
   4  -1   4   31.90    4.10
  -4   1  -4   34.40    4.20
   6   0   5   57.89    6.20
   8   1   6   13.20    3.60
  -8  -1  -6   18.40    4.10
  10   2   7    0.20    3.50
 -10  -2  -7   -0.50    3.80
 -12  -3  -8    5.70    5.00
  11   8   4    4.30    4.10
  11   8   4    5.60    4.90
  11   8   4    1.70    4.40
  -9  -7  -3   15.90    4.20
   9   7   3   14.20    4.50
   9   7   3   11.10    3.90
   9   7   3   12.20    4.70
  -7  -6  -2   -0.10    2.40
   7   6   2    0.40    2.40
   7   6   2   -1.60    3.50
   7   6   2    2.20    3.20
   5   5   1  458.55   42.20
   5   5   1  467.15   42.10
   5   5   1  547.75   41.70
   3   4   0  347.97   31.20
   3   4   0  348.77   31.10
   3   4   0  378.16   30.70
   3   4   0  375.46   30.80
  -1  -3   1  193.58   15.60
   1   3  -1  165.28   15.90
   1   3  -1  169.48   16.20
   1   3  -1  196.18   15.60
   1  -2   2  789.32   64.29
   1  -2   2  759.62   64.29
  -1   2  -2  773.92   64.19
  -1   2  -2  744.33   64.29
   3  -1   3   53.29    5.10
  -3   1  -3   49.70    4.60
  -3   1  -3   53.89    5.10
   5   0   4  184.58   15.60
  -5   0  -4  171.68   15.70
   7   1   5    8.60    2.90
  -7  -1  -5    8.50    3.00
   9   2   6   22.70    4.70
  -9  -2  -6   27.30    5.30
 -11  -3  -7    3.90    4.40
 -12  -8  -5   53.39    7.70
  12   8   5   51.69    8.30
  12   8   5   44.80    7.70
 -10  -7  -4   27.90    6.30
  10   7   4   30.10    5.40
  10   7   4   24.60    5.30
  -8  -6  -3    4.70    2.80
   8   6   3    1.10    2.80
   8   6   3   -3.70    3.30
   8   6   3   -7.60    3.10
  -6  -5  -2   39.80    5.10
   6   5   2   47.90    6.90
   6   5   2   49.30    5.60
   6   5   2   59.99    6.90
  -4  -4  -1   67.09    5.70
   4   4   1   63.09    5.70
   4   4   1   46.50    6.50
   4   4   1   53.59    6.20
   2   3   0   87.09    7.90
   2   3   0   77.89    8.30
   2   3   0   83.39    7.50
   0  -2   1   -1.00    1.40
   0  -2   1   -0.30    1.20
   0   2  -1    2.10    1.10
   0   2  -1   -0.70    1.40
   2  -1   2  137.09   12.00
  -2   1  -2  133.49   12.00
  -2   1  -2  144.39   11.90
   4   0   3  119.39   10.60
  -4   0  -3  118.09   10.90
   6   1   4   73.19    7.20
  -6  -1  -4   61.89    6.70
   8   2   5  199.18   18.00
  -8  -2  -5  204.28   18.10
  10   3   6   71.99    9.00
 -10  -3  -6   71.29    8.50
 -12  -4  -7   11.90    5.00
 -11  -7  -5   -0.40    3.50
  11   7   5    3.60    3.70
  11   7   5    2.10    3.60
  11   7   5    5.40    4.20
  -9  -6  -4   20.00    4.00
   9   6   4   18.70    4.30
   9   6   4   15.60    4.50
   9   6   4    1.70    4.50
  -7  -5  -3  101.79    8.80
   7   5   3   89.79    8.70
   7   5   3   80.89    9.10
  -5  -4  -2  318.17   28.10
   5   4   2  328.07   28.20
   5   4   2  332.67   28.20
   5   4   2  331.07   27.90
  -3  -3  -1   50.49    4.40
   3   3   1   45.50    5.40
   3   3   1   35.40    4.80
  -1  -2   0 1650.43  136.89
   1   2   0 1628.14  136.89
   1   2   0 1638.14  136.99
   1  -1   1  914.71   76.39
   1  -1   1  972.80   76.39
  -1   1  -1  876.41   76.29
  -1   1  -1  889.71   76.29
   3   0   2    1.50    1.70
  -3   0  -2    3.40    1.80
   5   1   3  354.26   30.90
  -5  -1  -3  373.46   31.00
   7   2   4   80.29    8.10
  -7  -2  -4   88.29    8.40
   9   3   5    3.00    3.40
  -9  -3  -5   12.40    3.90
  11   4   6    2.50    3.80
 -11  -4  -6    1.40    3.70
 -12  -7  -6   41.40    6.60
  12   7   6   38.30    6.10
  10   6   5   40.90    5.70
  10   6   5   31.40    5.40
  10   6   5   30.60    5.30
  -8  -5  -4   10.00    3.10
   8   5   4    6.90    3.30
   8   5   4    5.50    3.20
   8   5   4    9.90    3.40
  -6  -4  -3  434.26   38.00
   6   4   3  453.35   38.30
   6   4   3  451.75   38.30
   6   4   3  454.95   38.10
   4   3   2  186.68   15.90
   4   3   2  182.18   15.80
   4   3   2  180.28   16.00
  -2  -2  -1   34.30    3.40
   2   2   1   32.30    4.10
   2   2   1   34.90    3.30
   2   2   1   29.80    3.80
   0  -1   0   -0.50    0.40
   2   0   1  627.54   51.79
   2   0   1  585.24   51.89
  -2   0  -1  646.24   51.99
   4   1   2  474.65   40.50
   4   1   2  471.05   40.30
  -4  -1  -2  497.05   40.40
  -4  -1  -2  479.95   40.60
   6   2   3  178.38   15.10
   6   2   3  162.88   14.60
  -6  -2  -3  174.88   15.10
   8   3   4   98.99   10.30
   8   3   4  116.89   10.60
   8   3   4  111.09    9.90
  -8  -3  -4  122.09   10.80
 -10  -4  -5   68.49    8.40
 -12  -5  -6   25.30    5.70
 -11  -6  -6    3.80    3.80
  11   6   6    3.60    2.80
  11   6   6   -6.50    2.90
  11   6   6    7.00    3.80
  -9  -5  -5   65.39    7.10
   9   5   5   49.99    6.60
   9   5   5   45.70    6.00
   9   5   5   63.59    7.10
  -7  -4  -4   47.30    5.30
   7   4   4   37.60    4.90
   7   4   4   46.50    5.30
   7   4   4   39.00    5.30
  -5  -3  -3   65.99    5.80
   5   3   3   52.89    5.50
   5   3   3   48.50    5.20
   5   3   3   46.80    5.40
  -3  -2  -2 3204.28  263.17
   3   2   2 2994.90  263.17
   3   2   2 3262.67  263.17
   3   2   2 3145.09  263.17
  -1  -1  -1  120.29    9.30
  -1  -1  -1   99.89    9.40
   1   0   0  636.34   48.20
  -1   0   0  568.14   48.10
  -1   0   0  523.25   48.00
   3   1   1 2412.66  196.08
   3   1   1 2362.76  195.88
  -3  -1  -1 2351.26  195.98
  -3  -1  -1 2259.37  195.98
   5   2   2   86.69    7.90
   5   2   2   97.99    8.10
  -5  -2  -2   70.29    8.10
  -5  -2  -2   95.09    8.20
   7   3   3  267.97   22.90
   7   3   3  267.37   23.20
  -7  -3  -3  266.17   23.30
   9   4   4   21.90    4.40
   9   4   4    3.90    3.60
   9   4   4   22.00    3.60
  -9  -4  -4   16.70    4.20
  11   5   5    2.90    3.50
  11   5   5    1.10    2.60
  11   5   5    1.00    2.60
 -11  -5  -5   -2.30    3.60
 -12  -6  -7   -1.70    3.90
  10   5   6  114.49   10.50
  10   5   6  118.59   11.40
  -8  -4  -5  195.48   17.10
   8   4   5  188.88   16.90
   8   4   5  188.58   16.70
   8   4   5  197.68   17.20
  -6  -3  -4   50.79    4.90
   6   3   4   32.50    4.30
   6   3   4   36.70    4.20
   6   3   4   23.20    4.00
  -4  -2  -3  457.35   40.90
   4   2   3  479.05   40.70
   4   2   3  534.75   40.80
   4   2   3  467.35   40.80
  -2  -1  -2  854.81   67.89
   2   1   2  824.62   67.89
   2   1   2  757.72   67.79
   2   1   0   10.40    2.20
   2   1   0    8.40    1.70
  -2  -1   0   10.30    1.80
  -2  -1   0   12.10    2.30
   4   2   1  205.08   17.40
   4   2   1  201.28   17.40
  -4  -2  -1  198.48   17.50
  -4  -2  -1  205.98   17.50
   6   3   2   98.89    9.00
   6   3   2   92.39    8.90
  -6  -3  -2   97.99    9.00
   8   4   3    4.90    2.70
   8   4   3   -1.60    2.60
   8   4   3   -0.40    2.70
  -8  -4  -3    1.00    2.80
  10   5   4   -2.00    3.30
 -10  -5  -4    5.50    3.60
  12   6   5   20.00    4.90
 -12  -6  -5   43.30    6.50
 -11  -5  -7    6.00    4.10
  11   5   7    2.30    3.60
  -9  -4  -6   64.09    7.80
   9   4   6   65.69    7.90
  -7  -3  -5   27.80    3.80
   7   3   5   24.10    2.90
   7   3   5   20.90    3.40
   5   2   4  566.84   45.90
   5   2   4  532.65   45.60
   5   2   4  533.45   45.90
  -3  -1  -3 1651.73  137.19
   3   1   3 1630.04  137.19
  -1   0  -2  925.51   80.69
  -1   0  -2  960.20   80.69
   1   0   2 1015.00   80.79
   1   1  -1 1574.04  120.69
   1   1  -1 1354.06  120.79
  -1  -1   1 1407.06  120.79
   3   2   0 9999.00  834.32
   5   3   1  179.88   14.90
   5   3   1  166.58   14.90
  -5  -3  -1  155.08   15.10
  -5  -3  -1  176.38   14.90
   7   4   2  186.18   16.20
   7   4   2  184.18   16.30
  -7  -4  -2  178.18   16.20
   9   5   3  354.36   30.60
   9   5   3  351.76   30.00
   9   5   3  346.57   30.40
  -9  -5  -3  334.57   30.20
  11   6   4    1.50    3.70
  11   6   4    8.00    3.90
  11   6   4    6.50    3.90
 -11  -6  -4    1.80    3.80
 -12  -5  -8    5.90    4.60
 -10  -4  -7   43.00    6.60
  10   4   7   33.30    5.60
  -8  -3  -6   77.09    7.90
   8   3   6   74.89    7.80
  -6  -2  -5   32.10    4.30
   6   2   5   27.10    4.00
  -4  -1  -4   15.60    2.70
   4   1   4   13.30    2.50
  -2   0  -3   23.60    3.10
   2   0   3   35.10    3.30
   0   1  -2   20.70    2.00
   0   1  -2   16.70    2.30
   0  -1   2   17.80    2.00
   0  -1   2   13.80    2.20
   2   2  -1   60.59    5.40
   2   2  -1   46.70    5.80
  -2  -2   1   47.70    6.00
  -2  -2   1   61.09    5.30
   4   3   0   27.00    4.20
   4   3   0   36.40    3.90
  -4  -3   0   34.10    3.90
  -4  -3   0   24.00    4.40
   6   4   1  136.39   12.30
   6   4   1  130.69   12.50
  -6  -4  -1  120.69   12.00
  -6  -4  -1  150.48   12.70
   8   5   2  144.39   13.80
   8   5   2  142.49   14.20
   8   5   2  157.78   14.00
  -8  -5  -2  155.28   13.80
  10   6   3   48.20    7.90
  10   6   3   70.29    7.70
 -10  -6  -3   57.59    7.60
  12   7   4   -1.50    4.60
 -12  -7  -4    2.50    4.10
 -11  -4  -8   12.80    4.60
  11   4   8   16.40    4.80
  -9  -3  -7    6.60    3.70
   9   3   7    6.70    3.50
  -7  -2  -6    4.70    2.60
   7   2   6    4.70    2.40
  -5  -1  -5   10.80    2.60
   5   1   5    8.90    2.50
  -3   0  -4  564.64   46.70
   3   0   4  545.35   46.60
  -1   1  -3  369.06   32.10
  -1   1  -3  400.76   32.10
   1  -1   3  392.06   32.10
   1  -1   3  364.36   32.20
   1   2  -2  209.48   19.50
   1   2  -2  252.37   19.20
  -1  -2   2  240.88   19.20
  -1  -2   2  196.38   19.50
   3   3  -1   64.09    6.90
   3   3  -1   63.99    6.40
  -3  -3   1   78.99    7.20
   5   4   0  174.58   17.20
   5   4   0  210.48   17.00
  -5  -4   0  198.48   16.90
  -5  -4   0  189.68   17.50
   7   5   1   48.40    5.70
   7   5   1   47.40    6.20
  -7  -5  -1   47.80    5.80
   9   6   2   67.29    7.70
   9   6   2   61.39   10.50
   9   6   2   56.19    8.10
  -9  -6  -2   67.89    7.40
  11   7   3   -6.80    4.30
  11   7   3    0.70    3.90
  11   7   3   -0.30    4.50
 -11  -7  -3   -0.70    3.90
 -12  -4  -9   -2.20    3.80
 -10  -3  -8    8.60    4.20
  -8  -2  -7  162.88   14.80
   8   2   7  159.48   14.60
  -6  -1  -6  252.57   21.90
  -4   0  -5  394.76   30.70
   4   0   5  327.67   30.40
  -2   1  -4  123.79   11.20
  -2   1  -4  142.59   11.30
   2  -1   4  143.19   11.20
   2  -1   4  107.59   11.30
   0   2  -3  456.95   37.50
   0   2  -3  444.66   37.70
   0  -2   3  446.16   37.50
   0  -2   3  432.46   37.80
   2   3  -2  137.69   10.70
   2   3  -2  107.09   11.10
  -2  -3   2  129.49   10.70
  -2  -3   2   98.29   11.30
   4   4  -1    6.20    2.40
   4   4  -1    5.30    3.20
   4   4  -1   13.50    2.70
  -4  -4   1   12.80    3.90
   6   5   0   39.30    5.60
   6   5   0   38.40    5.10
  -6  -5   0   39.10    5.00
  -6  -5   0   43.20    6.20
   8   6   1  160.58   14.30
   8   6   1  140.09   15.20
   8   6   1  151.48   14.80
  -8  -6  -1  155.38   14.10
  10   7   2   24.70    5.80
  10   7   2   30.30    5.70
  10   7   2   33.10    6.00
 -10  -7  -2   32.70    5.70
  12   8   3   20.80    6.20
  12   8   3   11.00    6.20
 -11  -3  -9   20.50    5.60
  -9  -2  -8   44.80    6.10
   9   2   8   21.20    4.90
  -7  -1  -7    5.80    2.90
   7   1   7    1.90    2.60
  -5   0  -6   19.00    3.30
   5   0   6   16.40    3.10
  -3   1  -5   13.50    2.10
  -3   1  -5   18.00    2.50
  -3   1  -5   11.60    2.00
   3  -1   5   13.50    2.60
  -1   2  -4   90.99   10.30
  -1   2  -4  137.39   10.10
   1  -2   4   89.59   10.50
   1  -2   4  130.29   10.10
   1   3  -3  108.39   11.80
   1   3  -3  138.79   11.20
  -1  -3   3  113.39   11.90
  -1  -3   3  143.69   11.30
   3   4  -2  355.96   28.10
   3   4  -2  333.37   28.40
   3   4  -2  331.17   27.90
  -3  -4   2  290.77   28.50
   5   5  -1  342.17   29.60
   5   5  -1  373.66   30.30
   5   5  -1  320.67   29.60
  -5  -5   1  350.46   30.30
   7   6   0   53.79    6.20
   7   6   0   38.80    7.00
   9   7   1   20.90    4.70
   9   7   1   11.90    5.10
   9   7   1    6.80    4.40
  11   8   2   29.00    6.50
  11   8   2   25.80    6.30
  11   8   2   34.90    6.80
 -12  -3 -10    1.50    4.80
 -10  -2  -9   81.29    9.90
  10   2   9   75.59    9.80
  -8  -1  -8   42.20    6.10
   8   1   8   40.10    5.90
  -6   0  -7  298.77   25.10
   6   0   7  280.07   25.00
  -4   1  -6  663.43   54.79
   4  -1   6  636.44   54.79
  -2   2  -5   10.50    2.20
  -2   2  -5   11.00    2.50
   2  -2   5    8.40    2.20
   0   3  -4  387.86   36.60
   0   3  -4  485.85   36.40
   0  -3   4  451.55   36.30
   0  -3   4  389.76   36.70
   2   4  -3  340.87   27.70
   2   4  -3  299.87   27.20
  -2  -4   3  290.77   27.20
  -2  -4   3  356.66   27.90
   4   5  -2    5.00    2.50
   4   5  -2    0.70    3.60
   4   5  -2    4.10    2.50
  -4  -5   2    0.00    4.10
   6   6  -1   23.00    4.10
   6   6  -1   36.30    4.70
   6   6  -1   18.50    4.90
  -6  -6   1   31.00    5.70
   8   7   0    0.40    3.10
   8   7   0    2.30    4.20
   8   7   0    0.70    3.80
   8   7   0    4.00    3.60
  10   8   1    2.50    5.10
  10   8   1   11.60    4.50
  10   8   1    8.00    4.20
  10   8   1    0.00    4.50
  12   9   2  -10.40    5.50
  12   9   2    7.40    5.50
 -11  -2 -10    0.00    4.20
  -9  -1  -9   33.50    6.20
   9   1   9   34.30    5.80
  -7   0  -8   23.20    4.50
  -5   1  -7    5.20    2.60
   5  -1   7    8.60    2.40
  -3   2  -6   27.50    3.50
  -3   2  -6   25.00    3.60
   3  -2   6   26.90    3.60
  -1   3  -5  240.88   21.60
  -1   3  -5  276.27   21.50
   1  -3   5  233.68   21.80
   1  -3   5  248.18   21.40
   1   4  -4  392.46   35.40
   1   4  -4  415.46   35.20
  -1  -4   4  435.86   35.10
  -1  -4   4  408.36   35.60
   3   5  -3  355.96   30.10
   3   5  -3  349.87   30.60
  -3  -5   3  353.56   30.20
  -3  -5   3  349.57   30.80
   5   6  -2  353.76   31.10
   5   6  -2  350.16   31.00
   5   6  -2  385.66   32.10
  -5  -6   2  364.76   31.90
   7   7  -1   73.89    9.10
   7   7  -1   89.49    8.50
   7   7  -1   76.09    9.10
   7   7  -1   75.59    8.20
   9   8   0   35.80    6.70
   9   8   0   30.00    6.80
   9   8   0   44.90    6.80
   9   8   0   31.00    6.50
  11   9   1   26.30    6.30
  11   9   1   11.10    6.40
  11   9   1   10.50    5.90
 -12  -2 -11    7.60    5.00
 -10  -1 -10   23.60    5.60
  10   1  10    9.20    4.80
  -8   0  -9   71.79    8.50
   8   0   9   59.39    7.80
  -6   1  -8    8.80    3.40
   6  -1   8   10.60    2.80
  -4   2  -7  113.09   10.40
  -4   2  -7  122.69   10.50
  -4   2  -7  117.19   10.70
  -2   3  -6   46.30    6.30
  -2   3  -6   71.79    6.00
   2  -3   6   59.09    6.00
   0   4  -5   25.70    4.80
   0   4  -5   31.30    4.00
   0  -4   5   35.50    5.90
   0  -4   5   32.90    4.10
   2   5  -4   13.50    2.90
   2   5  -4   14.30    4.00
  -2  -5   4   16.70    3.10
  -2  -5   4   11.20    4.40
   4   6  -3    4.60    3.00
   4   6  -3   -4.50    3.70
   4   6  -3   10.90    2.90
  -4  -6   3    4.10    4.40
   6   7  -2    2.70    2.90
   6   7  -2    5.90    2.90
   6   7  -2    6.10    4.70
   8   8  -1    8.20    4.40
   8   8  -1    7.20    3.90
   8   8  -1    6.10    4.60
   8   8  -1   10.30    5.40
  10   9   0   15.60    5.20
  10   9   0   15.70    5.00
  10   9   0    9.70    6.20
  10   9   0   11.80    5.90
  12  10   1    0.00    6.70
  12  10   1   13.60    6.70
 -11  -1 -11   20.50    6.10
  -9   0 -10   79.79    9.80
   9   0  10   75.49    9.70
  -7   1  -9   34.20    5.30
   7  -1   9   27.50    5.10
  -5   2  -8    1.00    1.60
  -5   2  -8    2.20    1.70
  -5   2  -8    0.70    2.50
   5  -2   8    1.40    2.70
  -3   3  -7   39.60    5.10
  -3   3  -7   42.70    4.90
  -3   3  -7   42.30    5.20
  -1   4  -6  262.27   23.40
  -1   4  -6  272.67   23.10
   1  -4   6  293.57   23.10
   1  -4   6  227.98   25.00
   1   5  -5  109.99   10.00
   1   5  -5  106.29   10.80
  -1  -5   5  103.79   11.20
  -1  -5   5  114.49   10.10
   3   6  -4  124.09   11.20
   3   6  -4  125.39   12.20
  -3  -6   4  130.09   12.90
  -3  -6   4  111.09   12.50
   5   7  -3   10.50    5.10
   5   7  -3   14.50    3.50
   5   7  -3   23.10    3.80
  -5  -7   3   19.70    5.70
   7   8  -2   19.00    5.30
   7   8  -2   14.10    4.20
   7   8  -2    9.20    3.90
   7   8  -2   16.80    5.90
   9   9  -1   11.10    6.20
   9   9  -1   15.20    5.00
   9   9  -1    5.30    4.20
  11  10   0    4.30    7.10
  11  10   0    7.00    5.20
  11  10   0   -3.90    5.90
 -10   0 -11   10.20    5.00
  -8   1 -10   19.90    5.30
  -6   2  -9   28.40    4.80
   6  -2   9   22.30    4.50
  -4   3  -8  311.37   27.60
  -4   3  -8  318.67   27.60
  -4   3  -8  331.87   27.50
   4  -3   8  319.27   27.70
  -2   4  -7  328.17   26.20
  -2   4  -7  279.87   25.80
  -2   4  -7  286.37   26.40
   2  -4   7  308.47   25.90
   0   5  -6   27.90    3.70
   0   5  -6   19.10    4.50
   0  -5   6   12.30    4.90
   0  -5   6   18.10    3.50
   2   6  -5  325.47   27.40
   2   6  -5  312.07   28.20
  -2  -6   5  343.57   27.60
  -2  -6   5  287.77   28.30
   4   7  -4  133.39   12.90
   4   7  -4  165.38   14.40
  -4  -7   4  157.08   14.40
  -4  -7   4  123.59   12.90
   6   8  -3    4.50    4.40
   6   8  -3    6.40    3.70
   6   8  -3    3.00    3.00
   6   8  -3    0.50    5.30
   8   9  -2   -5.60    5.40
   8   9  -2    0.60    4.10
  10  10  -1    8.20    5.50
  10  10  -1   12.60    6.60
  10  10  -1    2.20    4.80
 -11   0 -12    8.40    5.50
  -9   1 -11   34.90    6.70
   9  -1  11   28.10    6.20
   7  -2  10   23.50    5.00
  -5   3  -9   30.10    3.60
  -5   3  -9   20.20    3.40
  -5   3  -9   22.90    4.30
   5  -3   9   20.20    4.20
  -3   4  -8    6.60    2.80
  -3   4  -8   -0.80    3.10
  -3   4  -8   -2.00    3.80
   3  -4   8    2.30    2.50
  -1   5  -7   10.90    3.40
  -1   5  -7    9.80    3.00
  -1   5  -7   15.00    3.80
   1  -5   7    8.70    2.90
   1   6  -6    6.70    3.90
   1   6  -6   15.20    3.20
  -1  -6   6    5.70    4.50
  -1  -6   6    9.30    2.90
   3   7  -5   19.00    4.00
   3   7  -5   16.80    5.20
  -3  -7   5   20.00    5.80
  -3  -7   5   24.30    4.00
   5   8  -4   35.20    5.60
   5   8  -4   57.09    6.40
   5   8  -4   41.90    7.60
   7   9  -3   27.50    7.00
   7   9  -3   27.70    5.20
   9  10  -2   68.79   10.50
   9  10  -2   61.89    8.50
   9  10  -2   64.39    9.80
   9  10  -2   58.39    8.80
  11  11  -1   -1.10    5.30
  11  11  -1    1.70    5.40
 -10   1 -12    4.40    5.00
  -8   2 -11   69.89    8.50
   8  -2  11   48.90    8.20
  -6   3 -10   69.69    7.60
  -6   3 -10   58.29    6.30
  -6   3 -10   68.49    6.20
   6  -3  10   73.09    7.60
  -4   4  -9   73.99    7.90
  -4   4  -9   80.29    7.90
  -4   4  -9   69.09    8.20
   4  -4   9   87.09    8.10
  -2   5  -8  211.08   20.00
  -2   5  -8  266.57   20.60
  -2   5  -8  220.28   20.40
   2  -5   8  219.78   20.10
   0   6  -7  221.38   20.70
   0   6  -7  224.78   20.20
   0   6  -7  265.07   21.10
   0  -6   7  217.78   20.20
   2   7  -6   70.49    8.30
   2   7  -6   56.89    6.30
  -2  -7   6   54.09    6.40
   4   8  -5    0.10    4.60
   4   8  -5    6.80    3.20
  -4  -8   5    3.20    3.30
   6   9  -4    7.20    3.60
   6   9  -4   18.00    7.50
   6   9  -4   22.10    7.10
   6   9  -4    7.20    4.00
   8  10  -3   11.50    6.40
   8  10  -3    6.70    4.30
   8  10  -3    3.40    6.10
   8  10  -3   12.70    4.90
  10  11  -2    2.40    4.80
  10  11  -2    2.30    6.00
  -9   2 -12   -0.10    4.90
  -7   3 -11    7.60    4.40
   7  -3  11    3.90    3.90
  -5   4 -10   54.19    6.60
  -5   4 -10   71.49    7.90
  -5   4 -10   62.19    6.70
   5  -4  10   63.39    7.20
  -3   5  -9    7.40    3.50
  -3   5  -9   14.60    3.50
  -3   5  -9   10.00    3.50
   3  -5   9   16.00    3.70
  -1   6  -8  -10.30    3.00
  -1   6  -8    5.50    2.80
  -1   6  -8   -1.80    3.80
   1  -6   8    0.30    2.40
   1   7  -7   20.20    4.60
   1   7  -7   15.70    5.30
   1   7  -7   16.80    3.70
  -1  -7   7   15.50    3.50
   3   8  -6  236.18   21.00
   3   8  -6  228.48   21.30
   3   8  -6  202.88   19.60
  -3  -8   6  225.68   19.90
   5   9  -5   97.19   10.30
   5   9  -5  100.39   12.30
   5   9  -5  137.29   14.00
   5   9  -5  107.69   10.60
   7  10  -4   68.99   10.90
   7  10  -4   71.89    8.30
   7  10  -4   57.59    8.10
   7  10  -4   72.09   10.70
   9  11  -3   38.00    6.80
   9  11  -3   30.60    8.50
  -8   3 -12    7.60    4.90
  -6   4 -11    1.80    2.60
  -6   4 -11    5.20    3.80
  -6   4 -11    0.10    2.70
   6  -4  11   -0.30    3.70
  -4   5 -10   -4.30    3.30
  -4   5 -10   -0.70    3.20
  -4   5 -10   -2.10    3.10
   4  -5  10    4.20    3.20
  -2   6  -9   26.60    5.40
  -2   6  -9   16.30    4.40
  -2   6  -9   14.30    4.10
   2  -6   9   14.70    4.00
   0   7  -8   56.49    7.30
   0   7  -8   64.59    8.00
   0   7  -8   46.60    6.20
   0  -7   8   33.60    5.70
   2   8  -7   24.80    6.50
   2   8  -7   34.90    5.10
   2   8  -7   16.30    5.30
  -2  -8   7   25.90    4.70
   4   9  -6    7.60    3.90
   4   9  -6   10.90    6.00
   4   9  -6   12.70    5.40
  -4  -9   6   13.60    4.20
   6  10  -5   35.40    5.90
   6  10  -5   46.60    8.20
   6  10  -5   20.00    4.90
   6  10  -5   31.10    7.40
   8  11  -4   41.40    7.10
   8  11  -4   37.50    9.10
  10  12  -3    0.90    6.50
  -9   3 -13   45.90    7.80
  -7   4 -12   70.69    9.40
  -5   5 -11   16.10    4.40
  -5   5 -11   16.10    4.70
  -5   5 -11   18.70    4.40
   5  -5  11   16.80    5.00
  -3   6 -10   63.19    8.40
  -3   6 -10   64.79    8.20
  -3   6 -10   61.79    8.30
   3  -6  10   56.99    7.80
  -1   7  -9   43.10    7.00
  -1   7  -9   31.00    5.40
  -1   7  -9   35.40    6.10
   1  -7   9   26.90    5.10
   1   8  -8   19.80    5.30
   1   8  -8   18.90    4.30
   1   8  -8   12.70    5.40
  -1  -8   8   15.70    4.00
   3   9  -7   18.30    4.50
   3   9  -7   10.70    5.70
  -3  -9   7   13.40    4.10
   5  10  -6   31.30    7.40
   5  10  -6   24.80    8.00
   5  10  -6   19.60    5.10
   7  11  -5   21.70    5.60
   7  11  -5   20.60    7.80
   9  12  -4    3.60    4.90
   9  12  -4   -7.10    6.10
  -8   4 -13    4.60    5.10
  -6   5 -12    5.50    3.60
  -6   5 -12    1.00    3.30
  -6   5 -12   14.90    4.80
  -4   6 -11   26.80    5.80
  -4   6 -11   27.10    6.00
  -4   6 -11   39.30    6.40
   4  -6  11   26.80    5.80
  -2   7 -10  112.99   11.20
  -2   7 -10  109.39   12.20
  -2   7 -10  110.09   12.10
   2  -7  10  113.29   11.20
   0   8  -9   32.90    6.80
   0   8  -9   22.00    5.70
   0  -8   9   24.00    4.80
   2   9  -8  103.19   10.30
   2   9  -8   99.19   11.90
  -2  -9   8   88.79   10.00
   4  10  -7  180.48   17.70
   4  10  -7  161.68   15.50
  -4 -10   7  153.48   15.60
   6  11  -6    8.70    7.10
   6  11  -6   11.20    4.90
   6  11  -6    7.80    4.10
   8  12  -5   10.00    5.00
   8  12  -5    6.00    8.00
  -9   4 -14    8.70    5.80
  -7   5 -13    5.70    2.70
  -7   5 -13    5.90    4.80
  -7   5 -13    0.00    2.90
  -5   6 -12   16.80    5.00
  -5   6 -12   17.00    5.10
  -5   6 -12   19.30    4.90
  -3   7 -11   39.90    6.30
  -3   7 -11   38.30    7.50
  -3   7 -11   59.79    7.70
   3  -7  11   36.30    6.40
  -1   8 -10   56.19    7.30
  -1   8 -10   77.29    9.30
  -1   8 -10   61.19    8.20
   1  -8  10   33.00    7.00
   1   9  -9   12.10    5.50
   1   9  -9    0.50    6.00
   1   9  -9    2.30    3.70
  -1  -9   9    2.40    3.30
   3  10  -8    4.30    5.80
   3  10  -8    9.90    6.00
   3  10  -8   12.00    4.50
  -3 -10   8    8.20    4.80
   5  11  -7    5.90    6.30
   5  11  -7    5.10    4.40
   7  12  -6    1.80    4.70
   7  12  -6   -0.60    6.10
   9  13  -5   14.70    8.70
   9  13  -5   12.60    6.30
  -8   5 -14    4.30    5.50
  -6   6 -13   -1.20    3.70
  -6   6 -13   10.60    4.70
  -4   7 -12   15.50    5.40
  -4   7 -12   15.30    5.10
  -4   7 -12   25.80    6.00
  -2   8 -11   99.69   12.60
  -2   8 -11  107.49   11.50
  -2   8 -11   88.79   11.20
   0   9 -10   45.30    8.70
   0   9 -10   70.29    8.50
   0   9 -10   66.39   10.00
   2  10  -9   14.00    6.40
   2  10  -9   30.50    7.10
   2  10  -9   22.00    5.40
  -2 -10   9    2.50    3.80
   4  11  -8   34.40    6.40
   4  11  -8   35.90    8.70
   6  12  -7    7.20    7.30
   6  12  -7    9.60    4.90
   8  13  -6   -3.10    5.20
   8  13  -6    8.70    8.70
  -7   6 -14   -0.10    3.30
  -7   6 -14   -0.50    3.50
  -7   6 -14   13.30    5.90
  -5   7 -13    8.30    4.60
  -5   7 -13    4.00    4.40
  -5   7 -13    8.30    4.80
  -3   8 -12   21.40    5.80
  -3   8 -12   30.60    6.20
  -3   8 -12   28.50    6.30
  -1   9 -11   14.00    4.90
  -1   9 -11   13.20    6.50
   1  10 -10    7.70    5.70
   1  10 -10    4.70    5.50
   1  10 -10    4.00    4.70
   3  11  -9    4.90    6.10
   3  11  -9   -1.50    4.30
   5  12  -8   13.80    7.50
   5  12  -8    7.20    4.80
   7  13  -7   33.20   10.00
  -6   7 -14   -1.90    4.20
  -6   7 -14    2.20    4.60
  -6   7 -14    3.50    5.30
  -4   8 -13    4.00    5.40
  -4   8 -13    6.00    4.60
  -4   8 -13    2.20    4.70
  -2   9 -12   11.30    6.00
  -2   9 -12   -4.40    4.20
   0  10 -11    0.80    4.20
   0  10 -11    1.30    4.70
   0  10 -11   -0.50    5.70
   2  11 -10   -0.90    5.70
   2  11 -10    1.20    4.20
   4  12  -9   11.10    7.40
   4  12  -9   10.70    5.30
   6  13  -8   -4.90    7.20
  -5   8 -14   15.30    5.80
  -5   8 -14    7.30    5.40
  -5   8 -14   11.50    6.10
  -3   9 -13   30.40    7.10
  -3   9 -13   24.60    6.90
  -3   9 -13   21.60    6.60
  -1  10 -12   17.30    5.50
  -1  10 -12   19.00    6.90
   1  11 -11   25.30    6.30
   1  11 -11   29.80    9.20
   3  12 -10    7.40    6.80
   3  12 -10   11.30    5.80
   5  13  -9   10.20    9.40
   5  13  -9   15.00    6.40
  -4   9 -14    2.70    5.10
  -4   9 -14   -0.50    5.10
  -4   9 -14    6.30    5.80
  -2  10 -13   21.40    7.60
   0  11 -12   39.60   10.00
   0  11 -12   48.70    8.60
   2  12 -11   15.10    9.00
   4  13 -10   46.10    8.40
   4  13 -10   28.80   11.00
  -3  10 -14    5.10    6.70
  -3  10 -14   -4.00    5.10
  -1  11 -13    5.30    5.20
  -1  11 -13    4.10    6.30
   1  12 -12    0.70    4.60
   1  12 -12    8.10    7.10
   3  13 -11    7.40    5.80
  -2  11 -14    7.90    6.20
   0  12 -13    4.80    5.40
   2  13 -12   13.10    8.20
   0  13 -11    8.10    6.40
  -2  12 -12   -4.70    6.80
   3  14  -9   14.30    6.10
   3  14  -9   16.50    8.40
   1  13 -10    3.10    5.40
  -1  12 -11   57.09   10.40
  -1  12 -11   44.10    9.20
  -3  11 -12   10.70    7.00
  -3  11 -12    9.80    5.80
   4  14  -8   -3.30    7.30
   4  14  -8   -1.60    4.90
   2  13  -9   18.70    7.50
   0  12 -10   18.90    7.60
  -2  11 -11   22.60    7.90
  -4  10 -12   17.70    7.20
  -4  10 -12    9.20    5.40
   5  14  -7   13.20    8.20
   3  13  -8   12.60    5.40
   3  13  -8   24.00    8.10
   1  12  -9   19.10    7.40
   1  12  -9    3.80    4.90
  -1  11 -10   -3.10    4.30
  -1  11 -10   -1.60    4.90
  -3  10 -11   17.60    6.60
  -3  10 -11   16.10    5.50
  -3  10 -11   15.30    5.70
  -5   9 -12    3.60    4.80
  -5   9 -12    3.80    5.40
  -5   9 -12    4.70    5.10
   6  14  -6   22.60    9.20
   4  13  -7    3.80    6.50
   4  13  -7    7.10    4.90
   2  12  -8   -0.60    4.50
   2  12  -8    3.50    5.60
   0  11  -9    6.00    5.50
   0  11  -9    0.70    4.60
  -2  10 -10   43.30    8.10
  -2  10 -10   36.90    7.20
  -2  10 -10   42.50    8.90
  -4   9 -11   20.20    6.10
  -4   9 -11   13.40    5.30
  -4   9 -11   19.40    6.60
  -6   8 -12    4.10    4.50
  -6   8 -12   -0.60    4.70
  -6   8 -12    5.30    4.60
   5  13  -6    0.70    4.30
   5  13  -6    3.50    6.60
   3  12  -7   15.50    5.20
   3  12  -7   12.00    6.90
   1  11  -8   13.70    6.50
   1  11  -8   15.70    5.10
  -1  10  -9   40.40    7.70
  -1  10  -9   36.60    8.50
  -1  10  -9   41.40    7.00
  -3   9 -10   20.70    5.80
  -3   9 -10   16.50    5.40
  -3   9 -10   17.20    5.80
  -5   8 -11    6.70    4.90
  -5   8 -11    2.30    4.70
  -5   8 -11    8.40    4.60
  -7   7 -12   -1.80    4.70
  -7   7 -12    2.30    3.50
   6  13  -5   47.20   10.20
   6  13  -5   33.20    6.40
   4  12  -6   52.49    7.90
   4  12  -6   51.59   10.50
  -2 -11   7    9.60    4.20
   2  11  -7    9.00    4.50
   2  11  -7    2.70    5.20
   2  11  -7    4.50    5.90
   0 -10   8    3.50    3.80
   0  10  -8   17.00    4.80
   0  10  -8    8.10    5.40
  -2   9  -9   21.40    6.30
  -2   9  -9   20.50    5.30
  -2   9  -9   14.60    5.30
  -4   8 -10    3.80    4.40
  -4   8 -10   -0.40    3.80
  -4   8 -10    3.10    4.70
  -6   7 -11    7.90    4.40
  -6   7 -11   12.70    4.90
  -6   7 -11    7.50    4.10
  -8   6 -12   14.20    5.90
   7  13  -4    2.40    4.30
   7  13  -4    9.60    9.00
   5  12  -5    0.40    6.00
   5  12  -5    6.90    4.00
  -3 -11   6   95.29   10.90
   3  11  -6  128.19   13.80
   3  11  -6  100.59   10.90
   3  11  -6   98.59   13.40
  -1 -10   7  143.09   13.50
   1  10  -7  142.39   14.90
   1  10  -7  122.19   13.20
   1  10  -7  137.49   14.80
  -1   9  -8  104.19   11.50
  -1   9  -8   90.99   11.20
  -1   9  -8   91.89   10.20
  -3   8  -9   20.20    6.10
  -3   8  -9   23.20    5.50
  -3   8  -9   19.00    5.50
  -5   7 -10   43.00    6.80
  -5   7 -10   35.80    6.70
  -5   7 -10   33.10    6.40
  -7   6 -11   24.80    6.20
  -7   6 -11   18.00    4.20
  -9   5 -12    3.10    5.20
   8  13  -3    6.10    6.80
   8  13  -3    4.20    4.90
   6  12  -4   21.40    5.00
   6  12  -4   13.00    7.20
   6  12  -4    5.00    3.70
  -4 -11   5   26.60    6.50
   4  11  -5   29.60    8.20
   4  11  -5   38.10    5.70
  -2 -10   6    6.60    3.60
   2  10  -6    5.40    4.90
   2  10  -6    0.80    4.70
   2  10  -6    0.60    4.30
   0  -9   7    6.30    3.50
   0   9  -7    6.10    4.10
   0   9  -7    6.90    4.90
   2  -8   8   30.40    6.20
  -2   8  -8   27.30    4.70
  -2   8  -8   16.80    4.90
  -2   8  -8   26.70    5.50
   4  -7   9   10.90    5.00
  -4   7  -9   13.60    4.70
  -4   7  -9    8.10    4.10
  -4   7  -9   18.40    4.80
  -6   6 -10    6.00    3.40
  -6   6 -10   13.70    4.20
  -6   6 -10   10.20    4.50
  -8   5 -11   18.50    6.00
   9  13  -2    0.90    4.30
   9  13  -2   -0.50    6.70
   7  12  -3   10.90    4.40
   7  12  -3   22.00    7.70
   7  12  -3   22.80    5.10
   5  11  -4   16.10    7.00
   5  11  -4   16.30    4.50
   5  11  -4   22.00    7.00
  -3 -10   5   78.79    9.10
   3  10  -5  102.99   14.50
   3  10  -5   89.69    9.20
   3  10  -5   80.19   10.40
  -1  -9   6    9.20    3.60
   1   9  -6   13.80    5.10
   1   9  -6   21.50    4.40
   1   9  -6   20.90    5.80
   1  -8   7   12.00    3.40
  -1   8  -7   12.10    3.70
  -1   8  -7    4.10    4.40
  -1   8  -7    0.30    3.80
   3  -7   8   64.19    7.60
  -3   7  -8   62.19    8.30
  -3   7  -8   56.69    8.10
  -3   7  -8   56.29    8.90
   5  -6   9    4.30    3.70
  -5   6  -9    3.40    3.50
  -5   6  -9    6.60    3.90
  -5   6  -9    2.90    3.60
  -7   5 -10   10.50    2.80
  -7   5 -10   11.90    4.90
  -7   5 -10    9.30    3.00
  10  13  -1    1.40    4.60
  10  13  -1    0.20    6.90
   8  12  -2   42.00    6.90
   8  12  -2   47.10   10.70
   8  12  -2   41.70    7.00
   6  11  -3   28.90    7.40
   6  11  -3   16.20    6.90
   6  11  -3   24.90    5.40
   6  11  -3   22.20    6.20
  -4 -10   4   64.39    7.50
   4  10  -4   63.19    9.70
   4  10  -4   63.29    7.30
  -2  -9   5  121.79   11.80
   2   9  -5  130.59   11.90
   2   9  -5   96.29   12.80
   2   9  -5  148.79   13.60
   0  -8   6    1.50    2.80
   0   8  -6    3.70    3.00
   0   8  -6    3.10    4.30
   0   8  -6    4.20    3.50
   2  -7   7   -2.10    2.70
  -2   7  -7   -1.00    3.00
  -2   7  -7    1.60    2.90
  -2   7  -7    0.30    3.70
   4  -6   8    1.80    3.10
  -4   6  -8    1.70    3.20
  -4   6  -8    3.40    3.90
   6  -5   9   16.00    4.70
  -6   5  -9   14.30    3.80
  -6   5  -9   15.00    4.40
  -6   5  -9   12.10    4.50
  -8   4 -10    9.60    4.80
 -10   3 -11    4.60    5.80
   9  12  -1    3.60    5.70
   9  12  -1    5.90    4.30
   7  11  -2   -2.30    3.60
   7  11  -2    5.00    6.40
   7  11  -2   -4.70    4.90
  -5 -10   3    2.70    3.60
   5  10  -3    9.20    6.10
   5  10  -3    5.70    3.50
  -3  -9   4    2.50    2.90
   3   9  -4   -2.10    3.60
   3   9  -4   -0.20    2.90
   3   9  -4    0.40    4.00
  -1  -8   5    6.30    2.80
   1   8  -5    1.40    4.10
   1   8  -5    0.30    3.40
   1   8  -5    7.00    3.00
   1  -7   6  241.18   24.60
  -1   7  -6  272.57   24.70
  -1   7  -6  336.77   25.70
  -1   7  -6  304.07   25.40
   3  -6   7  108.59   11.10
  -3   6  -7  120.19   11.10
  -3   6  -7  115.39   11.50
  -3   6  -7  119.79   11.80
   5  -5   8    3.90    3.50
  -5   5  -8    3.60    3.10
  -5   5  -8    5.20    3.20
   7  -4   9   21.60    5.50
  -7   4  -9   24.60    5.70
  -9   3 -10   33.70    7.20
  10  12   0   14.30    5.00
  10  12   0    6.30    7.80
   8  11  -1   76.79   11.80
   8  11  -1   84.19    9.00
   8  11  -1   72.59    8.70
   8  11  -1   87.99   11.90
   6  10  -2   88.79    8.80
   6  10  -2   75.49    8.50
   6  10  -2   86.79   11.50
  -4  -9   3  124.19   11.60
   4   9  -3  111.29   11.30
   4   9  -3  117.79   12.90
   4   9  -3  129.49   12.60
  -2  -8   4   36.10    5.30
   2   8  -4   38.10    6.10
   2   8  -4   41.10    6.60
   2   8  -4   32.40    5.00
   0  -7   5   54.79    6.30
   0   7  -5   75.49    8.50
   0   7  -5   51.39    6.20
   0   7  -5   66.69    8.00
   2  -6   6   62.19    6.60
  -2   6  -6   67.49    6.80
  -2   6  -6   67.59    7.60
  -2   6  -6   59.99    7.30
   4  -5   7    4.20    3.10
  -4   5  -7    5.90    3.30
  -4   5  -7    9.60    3.20
   6  -4   8   62.09    7.60
  -6   4  -8   57.49    5.90
  -6   4  -8   52.09    6.10
  -6   4  -8   66.99    8.40
   8  -3   9   29.80    6.10
  -8   3  -9   29.90    6.00
 -10   2 -10    6.70    5.40
  11  12   1    5.10    6.30
  11  12   1    0.40    4.80
   9  11   0   -1.20    3.70
   9  11   0   -3.90    6.20
   9  11   0    3.50    3.50
   9  11   0    1.40    6.10
   7  10  -1   11.40    3.90
   7  10  -1    2.30    7.10
   7  10  -1   15.60    6.20
   7  10  -1   19.00    4.20
   5   9  -2   55.09    6.30
   5   9  -2   49.60    7.90
   5   9  -2   47.30    6.10
   5   9  -2   78.89    8.60
  -3  -8   3  140.29   13.50
   3   8  -3  165.58   14.80
   3   8  -3  141.99   14.60
   3   8  -3  151.88   13.50
  -1  -7   4   81.39    8.10
   1   7  -4   96.19    8.20
   1   7  -4   71.19    9.00
   1   7  -4   82.39    9.00
   1  -6   5  163.48   14.90
  -1   6  -5  166.88   15.60
  -1   6  -5  168.78   14.90
  -1   6  -5  172.58   15.50
   3  -5   6  300.97   26.60
  -3   5  -6  293.37   26.50
  -3   5  -6  317.47   26.90
  -3   5  -6  316.67   26.80
   5  -4   7  196.88   19.40
  -5   4  -7  220.68   19.40
  -5   4  -7  222.68   19.00
  -5   4  -7  225.38   19.10
  -7   3  -8   14.00    4.60
  -9   2  -9   24.10    6.30
 -11   1 -10    7.50    6.00
  10  11   1   18.10    6.10
  10  11   1   11.50    4.90
  10  11   1    9.20    6.90
  10  11   1   13.60    5.80
   8  10   0   24.50    7.30
   8  10   0   16.60    6.70
   8  10   0   14.90    4.20
   6   9  -1   16.00    5.50
   6   9  -1   13.60    5.50
   6   9  -1   14.60    3.80
   6   9  -1   13.60    3.50
  -4  -8   2   40.30    5.40
   4   8  -2   34.60    6.70
   4   8  -2   36.60    6.10
   4   8  -2   40.10    5.10
   2   7  -3    5.80    3.20
   2   7  -3    7.40    2.40
   2   7  -3   -1.60    3.30
   0  -6   4   49.90    6.40
   0   6  -4   43.90    6.30
   0   6  -4   44.00    6.60
   0   6  -4   52.69    5.70
   2  -5   5   30.10    4.00
  -2   5  -5   19.60    4.00
  -2   5  -5   30.60    4.10
  -2   5  -5   23.90    4.60
   4  -4   6    3.70    2.60
  -4   4  -6    2.20    2.40
  -4   4  -6    1.80    2.70
  -4   4  -6   -0.30    2.80
   6  -3   7    9.20    3.50
  -6   3  -7    5.00    2.20
  -6   3  -7    3.10    1.80
  -6   3  -7    9.30    3.40
   8  -2   8   35.20    6.30
  -8   2  -8   35.40    6.40
 -10   1  -9   15.60    5.40
  11  11   2    7.90    7.10
  11  11   2    5.30    4.60
  11  11   2    5.90    6.70
   9  10   1   18.20    5.70
   9  10   1   14.90    4.70
   9  10   1   19.30    6.60
   7   9   0   11.70    3.80
   7   9   0   10.40    3.60
   7   9   0   11.70    5.50
   7   9   0   12.20    5.00
   5   8  -1    4.00    2.30
   5   8  -1    3.80    4.00
   5   8  -1    6.40    2.60
   5   8  -1   -5.70    3.40
  -3  -7   2   56.59    6.60
   3   7  -2   67.69    6.60
   3   7  -2   74.19    8.20
   3   7  -2   67.69    7.70
  -1  -6   3  129.29   12.50
   1   6  -3  159.98   13.40
   1   6  -3  136.19   13.50
   1  -5   4  201.18   17.10
  -1   5  -4  193.48   17.00
  -1   5  -4  199.28   17.50
  -1   5  -4  187.38   17.70
   3  -4   5   51.29    5.30
  -3   4  -5   59.79    5.40
  -3   4  -5   42.20    5.30
  -3   4  -5   38.40    5.60
   5  -3   6   92.09    8.90
  -5   3  -6   85.69    8.80
  -5   3  -6   88.99    8.10
   7  -2   7   12.40    3.90
  -7   2  -7   12.10    4.10
   9  -1   8    0.00    3.60
  -9   1  -8   -0.40    3.60
 -11   0  -9    9.20    5.60
  12  11   3    9.40    4.70
  12  11   3    8.00    6.30
  12  11   3    7.60    7.00
  10  10   2   19.30    5.80
  10  10   2   10.90    4.60
  10  10   2   17.00    6.60
  10  10   2   19.00    4.70
   8   9   1   32.90    7.00
   8   9   1   39.60    7.60
   8   9   1   40.10    5.80
   8   9   1   42.60    5.70
   6   8   0  204.88   17.80
   6   8   0  195.48   17.60
   6   8   0  205.98   18.80
   6   8   0  191.88   18.80
   4   7  -1  759.22   66.99
   4   7  -1  818.82   66.29
   4   7  -1  774.92   66.89
  -2  -6   2  300.87   25.00
   2   6  -2  292.97   24.90
   2   6  -2  285.67   25.70
   2   6  -2  282.47   25.50
   0  -5   3  247.88   21.20
   0   5  -3  255.37   21.90
   0   5  -3  252.27   21.20
   0   5  -3  232.18   21.80
   2  -4   4  667.93   54.39
  -2   4  -4  642.24   54.49
  -2   4  -4  636.74   54.39
  -2   4  -4  631.94   54.59
   4  -3   5  114.79   10.40
  -4   3  -5  118.99   10.30
  -4   3  -5  101.79   10.20
  -4   3  -5  110.89   10.00
   6  -2   6    9.00    3.20
  -6   2  -6   19.20    3.90
   8  -1   7   23.30    4.60
  -8   1  -7   20.60    5.60
 -10   0  -8    3.00    4.60
 -12  -1  -9    3.40    5.00
  11  10   3   13.30    5.50
  11  10   3   11.10    5.00
  11  10   3   13.70    6.50
   9   9   2   10.40    4.40
   9   9   2    0.40    4.10
   9   9   2   10.50    3.80
   9   9   2   -0.20    4.90
   7   8   1   22.10    5.50
   7   8   1   23.80    4.00
   7   8   1   32.20    4.50
   7   8   1    7.30    4.50
   5   7   0   24.60    3.80
   5   7   0   18.00    5.10
   5   7   0   20.10    3.60
   5   7   0   20.40    4.70
  -3  -6   1    5.10    2.30
   3   6  -1    5.40    3.10
   3   6  -1    0.60    3.30
   3   6  -1    8.80    2.30
  -1  -5   2   39.10    4.30
   1   5  -2   44.70    7.80
   1   5  -2   38.80    4.30
   1   5  -2   42.50    5.70
   1  -4   3   36.10    4.10
  -1   4  -3   32.70    4.70
  -1   4  -3   43.20    5.50
  -1   4  -3   39.00    5.20
   3  -3   4  104.09    9.00
  -3   3  -4   91.29    8.80
  -3   3  -4   98.39    9.00
   5  -2   5  142.79   13.80
  -5   2  -5  140.39   13.30
  -5   2  -5  165.78   13.30
  -5   2  -5  170.08   14.00
   7  -1   6   69.49    7.70
  -7   1  -6   74.59    7.90
   9   0   7   35.00    6.10
  -9   0  -7   38.40    6.30
 -11  -1  -8    2.30    4.80
  12  10   4    4.00    4.50
  12  10   4   11.70    6.30
  10   9   3   16.60    4.90
  10   9   3    6.30    4.70
  10   9   3   14.20    5.50
   8   8   2  117.89   13.40
   8   8   2  139.99   12.50
   8   8   2  138.69   12.80
   8   8   2  127.59   13.60
   6   7   1  131.19   11.20
   6   7   1  106.69   12.00
   6   7   1  126.49   11.30
   6   7   1  115.99   12.10
   4   6   0  624.24   49.90
   4   6   0  541.75   49.10
   4   6   0  623.54   49.80
   4   6   0  551.54   49.20
  -2  -5   1  230.08   18.80
   2   5  -1  206.28   19.50
   2   5  -1  232.28   18.80
   2   5  -1  187.78   20.60
   0  -4   2  113.29    9.00
   0   4  -2   83.29    9.30
   0   4  -2  102.39    9.00
   2  -3   3   24.50    3.70
   2  -3   3   31.60    3.60
  -2   3  -3   34.80    5.20
  -2   3  -3   26.20    3.70
   4  -2   4   12.50    2.60
  -4   2  -4   10.80    2.00
  -4   2  -4    7.50    2.60
   6  -1   5    4.20    2.60
  -6   1  -5    7.50    3.10
   8   0   6   10.60    3.50
  -8   0  -6    6.80    3.70
  10   1   7    7.00    4.20
 -10  -1  -7    3.20    3.80
 -12  -2  -8    4.40    5.50
  11   9   4    0.40    3.90
  11   9   4   -1.40    4.40
  11   9   4    3.00    4.20
  11   9   4   -2.40    4.50
   9   8   3    7.40    3.40
   9   8   3    8.20    4.30
   9   8   3   10.30    4.00
   9   8   3    9.50    4.90
   7   7   2   59.29    6.80
   7   7   2   63.49    7.80
   7   7   2   48.30    6.00
   7   7   2   54.49    7.40
   5   6   1   43.20    5.00
   5   6   1   49.90    6.20
   5   6   1   43.80    6.40
   5   6   1   46.50    4.90
  -3  -5   0   12.70    2.70
   3   5   0    8.60    3.40
   3   5   0   12.30    3.80
   3   5   0   11.80    2.50
  -1  -4   1   21.00    2.80
   1   4  -1   25.70    2.90
   1   4  -1   16.20    3.40
   1   4  -1   15.30    4.10
   1  -3   2  273.07   21.80
   1  -3   2  244.48   21.50
  -1   3  -2  241.38   21.70
  -1   3  -2  253.47   21.50
   3  -2   3  699.13   65.39
   3  -2   3  800.22   65.49
  -3   2  -3  743.23   65.39
  -3   2  -3  888.11   65.79
  -5   1  -4  163.28   14.50
   7   0   5  105.99   10.30
  -7   0  -5  109.29   10.40
   9   1   6   71.39    8.40
  -9  -1  -6   94.59   10.20
 -11  -2  -7   15.20    5.20
  12   9   5   -3.20    4.80
  12   9   5   -0.70    4.40
  12   9   5   -3.50    4.60
  10   8   4   19.00    5.40
  10   8   4   14.40    5.30
  10   8   4   19.30    4.60
   8   7   3   60.89    8.40
   8   7   3   44.50    7.40
   8   7   3   55.09    6.50
   6   6   2   10.90    3.50
   6   6   2   14.10    3.20
   6   6   2   13.20    4.00
   6   6   2   16.50    3.00
   4   5   1   89.99    9.00
   4   5   1   89.19    8.30
   4   5   1   98.19    8.30
   4   5   1   79.49    9.00
  -2  -4   0  105.29    9.30
   2   4   0  112.39   10.20
   2   4   0  101.79    9.80
   2   4   0  101.69    9.20
   0  -3   1   -0.70    2.40
   0  -3   1    1.90    1.60
   0   3  -1    1.70    2.10
   0   3  -1   -1.00    1.60
   2  -2   2  391.96   34.40
   2  -2   2  421.86   34.40
  -2   2  -2  421.26   34.40
  -2   2  -2  395.46   34.40
   4  -1   3   25.00    3.60
   4  -1   3   24.10    2.90
  -4   1  -3   30.00    3.80
  -4   1  -3   27.60    2.80
   6   0   4   48.30    5.40
  -6   0  -4   47.80    5.50
   8   1   5    0.20    2.90
  -8  -1  -5    3.40    3.30
  10   2   6    7.60    4.00
 -10  -2  -6    8.80    4.30
 -12  -3  -7   19.10    5.50
  11   8   5   56.59    7.90
  11   8   5   54.69    7.50
  11   8   5   49.99    7.60
  -9  -7  -4   58.29    6.90
   9   7   4   53.99    7.50
   9   7   4   50.49    6.90
  -7  -6  -3   78.09    7.40
   7   6   3   78.99    8.40
   7   6   3   74.19    7.50
   7   6   3   67.39    8.10
   5   5   2  192.18   18.80
   5   5   2  215.18   18.80
   5   5   2  222.18   18.20
   3   4   1   71.89    6.60
   3   4   1   67.19    7.40
   3   4   1   78.39    6.60
   3   4   1   66.59    7.10
  -1  -3   0    9.80    2.10
  -1  -3   0    7.80    2.60
   1   3   0    4.50    2.40
   1   3   0   10.90    1.90
   1  -2   1  478.55   39.90
   1  -2   1  482.65   40.10
  -1   2  -1  474.35   39.90
  -1   2  -1  466.65   40.00
   3  -1   2    6.10    1.50
   3  -1   2    9.00    2.00
  -3   1  -2    6.60    1.40
  -3   1  -2    9.30    2.00
   5   0   3  162.98   14.10
  -5   0  -3  155.78   14.10
   7   1   4    9.10    2.80
  -7  -1  -4   11.60    3.20
   9   2   5  105.59   10.50
  -9  -2  -5   97.89   10.90
 -11  -3  -6    0.80    3.90
 -12  -8  -6    5.10    4.10
  12   8   6   -2.70    3.80
 -10  -7  -5    0.90    3.40
  10   7   5    6.30    3.60
  10   7   5    0.50    3.60
  10   7   5   -1.70    3.50
  -8  -6  -4   18.00    3.40
   8   6   4   10.70    3.70
   8   6   4   11.50    3.10
   8   6   4    8.00    3.80
  -6  -5  -3   88.49    7.90
   6   5   3   89.89    8.00
   6   5   3   76.19    8.60
   6   5   3   80.19    8.40
  -4  -4  -2   64.99    6.00
   4   4   2   60.69    6.50
   4   4   2   69.59    6.00
   4   4   2   55.89    6.80
  -2  -3  -1  737.63   62.09
   2   3   1  748.43   62.09
   2   3   1  728.73   61.79
   0  -2   0  973.80   73.49
   0  -2   0  811.02   73.69
   0   2   0  830.42   73.69
   0   2   0  901.31   73.49
   2  -1   1   70.79    6.50
   2  -1   1   72.29    6.60
  -2   1  -1   74.09    6.40
   4   0   2   99.89    8.70
   4   0   2   90.79    8.20
  -4   0  -2   95.59    8.30
   6   1   3  219.18   18.30
   6   1   3  216.78   18.90
  -6  -1  -3  219.98   18.40
  -6  -1  -3  205.28   18.90
   8   2   4   13.70    3.40
  -8  -2  -4   17.00    3.70
  10   3   5   -1.80    3.20
 -10  -3  -5    3.40    3.90
 -12  -4  -6    3.40    4.30
 -11  -7  -6    2.70    3.80
  11   7   6    4.10    3.70
  11   7   6    3.80    3.60
  11   7   6    8.40    3.50
  -9  -6  -5  123.29   12.00
   9   6   5  142.79   12.30
   9   6   5  117.79   12.20
   9   6   5  120.39   12.00
  -7  -5  -4   77.09    7.40
   7   5   4   77.09    7.90
   7   5   4   70.29    7.60
   7   5   4   74.49    7.90
  -5  -4  -3   21.60    2.90
   5   4   3   12.70    3.00
   5   4   3   13.70    2.70
   5   4   3    7.50    3.50
  -3  -3  -2   72.59    6.20
   3   3   2   54.79    6.50
   3   3   2   74.59    6.20
  -1  -2  -1    5.70    1.70
   1   2   1    5.30    1.50
   1   2   1   10.30    1.30
   1  -1   0   15.00    2.00
   1  -1   0   13.20    1.80
  -1   1   0   13.20    1.70
  -1   1   0   14.80    1.80
   3   0   1  469.15   40.80
   3   0   1  516.25   40.60
  -3   0  -1  498.65   40.60
  -3   0  -1  450.15   40.80
   5   1   2   36.60    3.70
   5   1   2   38.90    4.20
  -5  -1  -2   29.70    3.90
  -5  -1  -2   39.00    4.40
   7   2   3    9.00    2.90
   7   2   3   10.20    2.20
  -7  -2  -3   12.40    3.20
   9   3   4  106.29   11.80
   9   3   4  152.58   11.70
   9   3   4  131.49   12.60
  -9  -3  -4  133.19   12.80
 -11  -4  -5   74.39    9.50
 -12  -7  -7   12.50    4.50
 -10  -6  -6    2.60    3.40
  10   6   6    3.30    3.40
  10   6   6    0.70    3.10
  -8  -5  -5   23.30    4.00
   8   5   5   22.60    3.90
   8   5   5   19.90    3.70
   8   5   5   28.20    4.10
  -6  -4  -4    5.70    2.20
   6   4   4   -6.50    2.10
   6   4   4   -9.80    2.90
   6   4   4    4.50    2.10
  -4  -3  -3  337.27   27.90
   4   3   3  321.37   28.10
   4   3   3  323.07   28.00
   4   3   3  336.47   27.90
  -2  -2  -2  369.36   32.30
  -2  -2  -2  395.56   32.20
   2   2   2  370.06   32.30
   2   2   2  398.36   32.20
   0  -1  -1    1.50    0.50
   0   1   1    2.80    0.70
   2   0   0  545.05   45.50
   2   0   0  548.15   45.40
  -2   0   0  545.35   45.50
  -2   0   0  529.75   45.40
   4   1   1  403.76   35.30
   4   1   1  436.86   35.50
  -4  -1  -1  396.96   35.30
  -4  -1  -1  444.66   35.50
   8   3   3   69.99    7.60
   8   3   3   70.89    6.90
  -8  -3  -3   72.49    7.50
  10   4   4   29.30    4.80
  10   4   4   40.50    4.80
  10   4   4   30.30    5.80
 -10  -4  -4   42.80    6.40
 -12  -5  -5    6.40    4.50
 -11  -6  -7    7.30    4.00
  11   6   7    7.20    3.70
  -9  -5  -6  187.48   16.70
   9   5   6  179.68   16.20
   9   5   6  176.58   16.10
   9   5   6  192.38   16.90
  -7  -4  -5   31.00    4.30
   7   4   5   29.80    4.00
   7   4   5   29.20    3.80
  -5  -3  -4   12.90    2.70
   5   3   4   11.50    2.20
   5   3   4    2.00    2.50
   5   3   4    9.20    2.30
  -3  -2  -3  825.92   67.49
   3   2   3  813.92   67.49
   3   2   3  778.22   67.49
  -1  -1  -2   59.49    5.30
  -1  -1  -2   59.59    5.20
   1   1   2   56.99    5.30
   1   1   2   67.29    5.20
   1   0  -1   12.00    1.60
   1   0  -1   11.60    1.50
  -1   0   1   10.20    1.50
  -1   0   1   13.40    1.60
   3   1   0  281.97   24.50
   3   1   0  291.17   24.50
  -3  -1   0  307.67   24.60
  -3  -1   0  275.87   24.50
   5   2   1  270.07   23.00
   5   2   1  270.27   23.10
  -5  -2  -1  252.27   23.10
  -5  -2  -1  282.37   23.10
   7   3   2   39.60    4.90
   7   3   2   43.20    5.50
  -7  -3  -2   39.80    5.30
   9   4   3  148.59   12.70
   9   4   3  113.29   13.20
   9   4   3  138.59   13.20
  -9  -4  -3  148.39   13.20
  11   5   4   28.20    4.80
 -11  -5  -4   24.80    5.50
 -12  -6  -8    0.90    3.80
 -10  -5  -7    6.20    3.80
  10   5   7   10.20    3.60
  -8  -4  -6   26.40    4.00
   8   4   6   20.10    3.50
   8   4   6   18.80    2.90
   8   4   6   17.10    3.00
  -6  -3  -5  195.68   18.40
   6   3   5  218.18   18.40
   6   3   5  207.18   18.20
   6   3   5  227.68   18.20
  -4  -2  -4   73.69    6.10
   4   2   4   58.99    6.00
   4   2   4   60.59    5.70
   4   2   4   67.69    6.00
  -2  -1  -3   44.70    4.30
  -2  -1  -3   49.50    4.30
   2   1   3   47.50    4.20
   2   1   3   43.20    4.20
   0   0  -2  148.39   13.20
   0   0   2  165.48   13.30
   2   1  -1  211.18   18.00
   2   1  -1  210.38   17.90
  -2  -1   1  201.98   17.80
  -2  -1   1  216.08   18.00
   4   2   0  106.29    8.90
   4   2   0   95.49    8.90
  -4  -2   0   99.49    8.80
  -4  -2   0   87.99    9.00
   6   3   1  156.28   14.00
  -6  -3  -1  163.28   14.10
  -6  -3  -1  153.78   14.20
   8   4   2   40.50    5.50
   8   4   2   51.49    6.10
  -8  -4  -2   46.70    6.00
  10   5   3    7.20    3.80
  10   5   3   10.00    3.70
  10   5   3    3.50    3.60
 -10  -5  -3    2.70    3.60
  12   6   4    2.60    4.60
  12   6   4   15.60    4.90
 -12  -6  -4   10.50    4.50
 -11  -5  -8   23.90    5.20
  11   5   8   23.20    5.20
  -9  -4  -7  276.17   24.50
   9   4   7  277.47   24.50
  -7  -3  -6  154.18   14.30
   7   3   6  165.18   14.20
  -5  -2  -5  342.77   27.20
   5   2   5  294.17   26.90
  -3  -1  -4  695.63   58.39
   3   1   4  698.83   58.39
  -1   0  -3   76.19    6.50
   1   0   3   73.39    6.60
   1   0   3   74.89    6.50
   1   1  -2  103.09    9.40
   1   1  -2  111.79    9.20
   1   1  -2  106.19    9.20
  -1  -1   2  104.29    9.40
   3   2  -1   98.49    9.30
   3   2  -1  103.19    9.10
  -3  -2   1  105.79    9.10
  -3  -2   1   97.09    9.40
   5   3   0   49.10    5.60
   5   3   0   46.90    5.40
  -5  -3   0   45.60    5.70
  -5  -3   0   42.60    5.00
   7   4   1   42.60    5.50
   7   4   1   49.70    5.40
  -7  -4  -1   44.00    5.30
   9   5   2   90.69    9.30
   9   5   2   67.09    9.90
   9   5   2  104.39    9.60
  -9  -5  -2  102.19    9.60
  11   6   3    3.20    3.90
 -11  -6  -3    3.80    3.90
 -12  -5  -9    6.20    4.30
  10   4   8    4.70    3.60
  -8  -3  -7    0.40    2.90
   8   3   7    2.50    2.60
  -6  -2  -6    6.80    2.40
   6   2   6   13.00    2.60
  -4  -1  -5   90.89    8.50
   4   1   5   98.69    8.50
  -2   0  -4 2501.75  203.28
  -2   0  -4 2317.17  203.28
   2   0   4 2532.55  203.28
   2   0   4 2389.26  203.28
   0   1  -3 2175.68  179.38
   0   1  -3 2209.68  179.18
   0  -1   3 2097.29  179.38
   0  -1   3 2102.89  179.18
   2   2  -2  502.65   40.20
   2   2  -2  499.45   40.30
   2   2  -2  479.55   40.50
  -2  -2   2  428.06   40.50
   4   3  -1 2221.88  188.18
   4   3  -1 2244.78  188.08
  -4  -3   1 2279.97  188.28
   6   4   0 1212.68   98.09
   6   4   0 1214.78   98.19
  -6  -4   0 1083.59   98.49
  -6  -4   0 1152.78   97.99
   8   5   1    7.20    3.20
   8   5   1   -0.60    3.10
  -8  -5  -1    8.10    3.10
  10   6   2   45.90    7.60
  10   6   2   60.09    8.00
  10   6   2   70.59    8.20
 -10  -6  -2   66.69    7.90
  12   7   3   20.50    6.00
  12   7   3   15.50    5.60
 -12  -7  -3   21.20    5.40
 -11  -4  -9   48.70    7.40
  11   4   9   44.00    7.20
  -9  -3  -8   53.19    7.10
   9   3   8   57.79    6.70
  -7  -2  -7   98.09    9.40
   7   2   7   98.99    9.40
  -5  -1  -6   80.49    7.30
   5   1   6   72.59    7.20
  -3   0  -5   34.80    3.70
   3   0   5   28.20    3.40
  -1   1  -4    3.30    2.50
  -1   1  -4    1.90    1.80
   1  -1   4    4.30    1.80
   1  -1   4   -0.50    2.50
   1   2  -3   62.99    5.60
   1   2  -3   51.99    6.40
  -1  -2   3   62.49    5.70
  -1  -2   3   47.80    6.40
   3   3  -2    9.90    2.40
   3   3  -2    5.40    2.20
   3   3  -2    7.90    3.00
  -3  -3   2    8.10    3.30
   5   4  -1   27.90    3.70
   5   4  -1   15.30    4.30
  -5  -4   1   15.20    4.60
  -5  -4   1   21.60    3.40
   7   5   0   31.80    4.90
   7   5   0   35.20    5.50
  -7  -5   0   41.30    4.90
  -7  -5   0   33.30    5.90
   9   6   1   27.30    4.90
   9   6   1   21.30    4.80
   9   6   1   18.90    5.10
  -9  -6  -1   29.30    5.10
  11   7   2    3.80    4.90
  11   7   2    8.50    4.60
 -11  -7  -2    3.20    4.20
 -12  -4 -10    7.60    4.60
 -10  -3  -9   34.50    6.00
  -8  -2  -8  110.49   10.70
   8   2   8  107.09   10.40
  -6  -1  -7    1.80    2.40
   4   0   6   22.00    3.10
  -2   1  -5  217.18   19.10
  -2   1  -5  246.98   19.10
   2  -1   5  193.28   19.20
   2  -1   5  238.58   19.10
   0   2  -4 2647.73  222.78
   0   2  -4 2679.53  222.58
   0  -2   4 2618.04  222.88
   0  -2   4 2715.63  222.68
   2   3  -3    4.30    2.90
   2   3  -3    5.40    2.10
  -2  -3   3    8.60    3.40
  -2  -3   3    8.80    2.40
   4   4  -2   23.10    3.60
   4   4  -2   18.90    4.10
   4   4  -2   15.10    3.10
  -4  -4   2   20.00    4.50
   6   5  -1  124.29   11.40
   6   5  -1  115.69   11.80
  -6  -5   1  128.29   12.30
  -6  -5   1  122.79   11.30
   8   6   0    5.30    3.70
   8   6   0   -0.50    3.80
  -8  -6   0   11.60    3.70
  10   7   1   18.80    5.00
  10   7   1   18.20    5.30
  10   7   1   21.00    5.30
 -10  -7  -1   25.50    5.20
  12   8   2   -5.20    5.60
  12   8   2   10.30    5.80
 -11  -3 -10   10.20    4.80
  -9  -2  -9    8.90    4.10
   9   2   9   10.80    3.90
  -7  -1  -8   30.10    5.00
   7   1   8   39.70    5.20
  -5   0  -7  355.16   29.60
   5   0   7  337.87   29.60
  -3   1  -6  240.88   21.30
  -3   1  -6  271.67   21.50
   3  -1   6  229.98   21.50
   3  -1   6  268.27   21.50
  -1   2  -5   28.20    3.20
  -1   2  -5   18.00    3.70
   1  -2   5   28.80    3.20
   1  -2   5   16.50    3.70
   1   3  -4 1066.49   89.79
   1   3  -4 1038.30   89.99
  -1  -3   4 1097.19   89.79
  -1  -3   4 1084.79   90.19
   3   4  -3   86.79    7.60
   3   4  -3   90.79    7.60
   3   4  -3   60.99    8.10
  -3  -4   3   74.89    8.50
   5   5  -2   -2.60    3.30
   5   5  -2    5.70    2.70
  -5  -5   2    1.30    4.10
   7   6  -1   55.89    6.90
   7   6  -1   55.49    7.40
   7   6  -1   58.79    7.30
  -7  -6   1   55.39    8.10
   9   7   0   15.40    4.90
   9   7   0   18.10    4.80
   9   7   0   24.10    5.40
   9   7   0   14.20    5.10
  11   8   1   10.40    5.80
  11   8   1   14.60    6.10
  11   8   1   23.80    6.40
 -12  -3 -11    0.80    4.60
 -10  -2 -10   54.09    7.30
  10   2  10   35.10    6.50
  -8  -1  -9  143.89   12.80
   8   1   9  122.29   12.60
  -6   0  -8   -0.70    2.40
   6   0   8    4.90    2.70
  -4   1  -7   17.90    2.30
  -4   1  -7   18.20    3.10
   4  -1   7   10.30    2.90
  -2   2  -6    8.50    2.40
  -2   2  -6   10.40    2.70
   2  -2   6    7.90    2.80
   2  -2   6   10.40    2.30
   0   3  -5  300.27   23.50
   0   3  -5  249.97   23.70
   0  -3   5  263.57   23.40
   0  -3   5  286.07   24.00
   2   4  -4   31.20    3.70
   2   4  -4   13.10    4.10
  -2  -4   4   24.70    3.50
  -2  -4   4   21.20    4.90
   4   5  -3   79.99    8.50
   4   5  -3  105.89    9.90
   4   5  -3   86.49    8.60
  -4  -5   3   99.59   10.00
   6   6  -2  150.88   13.60
   6   6  -2  144.39   14.10
   6   6  -2  141.79   13.30
  -6  -6   2  148.19   14.50
   8   7  -1   36.00    6.60
   8   7  -1   36.70    6.40
   8   7  -1   33.80    5.80
  10   8   0   39.50    6.60
  10   8   0   31.10    7.30
  10   8   0   58.19    8.10
  10   8   0   29.50    7.00
  12   9   1   -0.60    5.20
  12   9   1   11.20    6.40
 -11  -2 -11    1.00    4.40
  -9  -1 -10   71.19    9.00
   9   1  10   63.39    8.60
  -7   0  -9   53.39    6.50
   7   0   9   59.09    6.40
  -5   1  -8  166.48   14.60
   5  -1   8  158.98   14.50
  -3   2  -7  516.05   45.00
  -3   2  -7  532.15   45.10
   3  -2   7  554.74   45.10
  -1   3  -6  197.98   16.70
  -1   3  -6  185.38   17.00
   1  -3   6  196.38   16.80
   1  -3   6  192.88   17.30
   1   4  -5  210.18   19.60
   1   4  -5  229.38   19.20
  -1  -4   5  237.48   19.20
  -1  -4   5  206.58   19.90
   3   5  -4  196.78   17.00
   3   5  -4  172.58   16.40
  -3  -5   4  178.48   16.50
  -3  -5   4  209.48   17.60
   5   6  -3    3.20    2.40
   5   6  -3    1.50    3.60
   5   6  -3    3.40    2.70
  -5  -6   3    3.60    4.30
   7   7  -2    2.10    4.80
   7   7  -2    6.20    3.50
   7   7  -2    6.50    3.30
  -7  -7   2   -8.00    4.20
   9   8  -1    2.00    4.60
   9   8  -1   -3.70    5.20
   9   8  -1    4.10    4.80
   9   8  -1   -4.00    3.50
  11   9   0    0.80    5.60
  11   9   0    5.60    5.10
 -10  -1 -11    8.40    4.70
  10   1  11   15.90    5.30
  -8   0 -10   36.60    6.30
   8   0  10   46.70    6.30
  -6   1  -9   16.60    3.60
   6  -1   9   12.00    3.80
  -4   2  -8   38.50    4.40
  -4   2  -8   43.00    4.80
  -4   2  -8   38.50    4.70
   4  -2   8   45.40    4.80
  -2   3  -7   19.20    3.80
  -2   3  -7   23.90    3.50
   2  -3   7   16.80    4.10
   2  -3   7   19.10    3.30
   0   4  -6   66.29    6.40
   0   4  -6   58.09    7.10
   0  -4   6   65.79    6.40
   0  -4   6   70.09    7.80
   2   5  -5  137.79   12.00
   2   5  -5  131.29   12.60
  -2  -5   5  111.49   13.00
  -2  -5   5  145.29   12.10
   4   6  -4  371.96   30.00
   4   6  -4  335.07   28.80
   4   6  -4  315.87   28.90
  -4  -6   4  327.57   30.00
   6   7  -3  146.29   12.60
   6   7  -3  138.09   13.70
   6   7  -3  129.59   12.40
  -6  -7   3  115.39   14.00
   8   8  -2   71.89    9.60
   8   8  -2   58.59    9.20
   8   8  -2   66.29    8.20
   8   8  -2   75.19    9.40
  10   9  -1   37.00    7.80
  10   9  -1   68.59    9.00
  12  10   0    2.90    5.90
  12  10   0    1.60    5.50
 -11  -1 -12   -1.60    4.80
  -9   0 -11    3.20    4.50
   9   0  11    5.80    4.30
  -7   1 -10   44.00    6.40
   7  -1  10   44.50    6.30
  -5   2  -9   82.79    7.70
  -5   2  -9   78.59    7.70
  -5   2  -9   95.79    8.40
   5  -2   9   85.49    8.50
  -3   3  -8   28.30    4.40
  -3   3  -8   31.10    4.50
  -3   3  -8   28.90    4.30
   3  -3   8   41.70    4.70
  -1   4  -7   36.00    5.40
   1  -4   7   41.10    4.70
   1   5  -6   64.99    7.60
   1   5  -6   54.09    6.20
  -1  -5   6   60.39    6.30
  -1  -5   6   74.49    8.60
   3   6  -5  362.86   29.70
   3   6  -5  324.37   28.70
  -3  -6   5  313.57   29.70
  -3  -6   5  337.77   28.90
   5   7  -4   14.20    3.20
   5   7  -4    9.10    4.50
   5   7  -4   13.80    3.50
  -5  -7   4   10.40    5.00
   7   8  -3   -1.50    5.00
   7   8  -3    4.30    3.70
   7   8  -3    1.00    3.50
   9   9  -2    3.50    4.20
   9   9  -2   13.00    4.80
   9   9  -2    8.50    5.30
  11  10  -1    2.30    6.30
  11  10  -1    5.00    7.40
  11  10  -1   15.20    5.80
 -10   0 -12   18.40    5.80
  -8   1 -11   61.89    8.30
  -6   2 -10   63.29    7.50
   6  -2  10   54.59    7.20
  -4   3  -9   10.60    3.20
  -4   3  -9   19.60    3.70
  -4   3  -9   20.50    3.40
   4  -3   9   11.10    3.30
  -2   4  -8    9.30    3.30
  -2   4  -8    7.70    2.80
   2  -4   8    6.70    2.70
   0   5  -7   31.20    5.60
   0   5  -7   29.30    4.20
   0  -5   7   22.30    4.00
   0  -5   7   41.20    6.10
   2   6  -6  140.19   13.40
   2   6  -6  123.29   12.30
  -2  -6   6  136.99   13.70
  -2  -6   6  142.09   12.50
   4   7  -5   77.79    9.40
   4   7  -5   73.19    7.80
  -4  -7   5   80.69   10.60
  -4  -7   5   72.19    7.80
   6   8  -4   34.40    5.20
   6   8  -4   12.70    5.60
   6   8  -4   22.60    4.40
  -6  -8   4   23.50    6.50
   8   9  -3    1.40    5.90
   8   9  -3    7.60    5.40
   8   9  -3    4.70    4.20
   8   9  -3    4.30    4.00
  10  10  -2    1.60    4.70
  10  10  -2    2.40    4.60
  10  10  -2    2.90    6.30
 -11   0 -13    2.30    5.40
  -9   1 -12   -0.60    4.80
  -7   2 -11   47.70    7.80
   7  -2  11   44.40    6.90
  -5   3 -10    0.90    2.90
  -5   3 -10   -1.20    2.50
   5  -3  10    6.00    3.30
  -3   4  -9   90.19    9.00
  -3   4  -9   88.89    8.70
  -3   4  -9   87.79    9.00
   3  -4   9   88.99    8.80
  -1   5  -8  543.05   41.40
  -1   5  -8  437.16   40.60
   1  -5   8  491.45   41.40
   1  -5   8  450.25   40.60
   1   6  -7  147.49   13.70
   1   6  -7  161.98   14.90
  -1  -6   7  154.78   13.80
  -1  -6   7  144.99   15.00
   3   7  -6   86.99    8.30
   3   7  -6   88.79    9.70
  -3  -7   6   76.69    8.40
  -3  -7   6   77.59   10.00
   5   8  -5  161.88   14.30
   5   8  -5  147.99   15.40
   5   8  -5  145.39   13.90
  -5  -8   5  153.68   16.10
   7   9  -4   23.50    6.70
   7   9  -4   22.00    6.90
   7   9  -4   20.60    5.20
   9  10  -3    8.80    5.80
   9  10  -3    3.00    4.70
   9  10  -3   -6.80    5.90
  11  11  -2    1.40    5.90
 -10   1 -13    2.70    5.30
  -8   2 -12   56.39    7.80
   8  -2  12   46.30    7.70
  -6   3 -11   40.50    4.30
  -6   3 -11   34.40    7.70
  -6   3 -11   26.60    4.10
   6  -3  11   35.80    5.90
  -4   4 -10   26.80    4.90
  -4   4 -10   29.70    4.90
  -4   4 -10   35.60    4.90
   4  -4  10   29.60    4.80
  -2   5  -9    2.20    3.30
  -2   5  -9   -3.10    3.30
  -2   5  -9   10.80    3.20
   2  -5   9    7.70    3.10
   0   6  -8   10.60    3.30
   0   6  -8   12.00    4.30
   0  -6   8   -3.30    4.40
   0  -6   8    9.10    3.10
   2   7  -7    8.80    4.40
   2   7  -7    3.20    3.00
  -2  -7   7    2.60    2.70
  -2  -7   7   12.20    5.30
   4   8  -6    5.60    5.10
   4   8  -6    3.80    3.30
  -4  -8   6    2.80    5.40
  -4  -8   6    7.10    3.60
   6   9  -5    3.10    3.40
   6   9  -5    0.60    3.90
   6   9  -5    5.00    4.90
   6   9  -5   -0.80    5.10
   8  10  -4   22.10    5.40
   8  10  -4   33.20    7.70
   8  10  -4   24.30    5.70
   8  10  -4   18.10    7.40
  10  11  -3   19.80    7.60
  10  11  -3   29.80    7.40
  -9   2 -13    1.60    4.50
  -7   3 -12   32.70    6.00
   7  -3  12   22.60    5.50
  -5   4 -11   66.99    9.20
  -5   4 -11   57.39    6.90
   5  -4  11   65.19    8.10
  -3   5 -10   55.69    7.40
  -3   5 -10   58.29    7.40
  -3   5 -10   60.09    7.20
   3  -5  10   62.29    7.40
  -1   6  -9  330.67   25.80
  -1   6  -9  287.17   25.00
  -1   6  -9  249.28   24.40
   1  -6   9  269.87   24.50
   1   7  -8  267.07   21.50
   1   7  -8  206.08   20.30
  -1  -7   8  214.98   20.40
  -1  -7   8  245.48   21.80
   3   8  -7   51.99    6.60
   3   8  -7   45.60    8.30
  -3  -8   7   51.09    9.10
  -3  -8   7   52.59    6.90
   5   9  -6   37.50    5.60
   5   9  -6   30.60    7.40
   5   9  -6   50.39    8.20
   7  10  -5    3.30    4.10
   7  10  -5    7.70    6.50
   7  10  -5   16.90    5.00
   7  10  -5    5.80    6.10
   9  11  -4    1.20    6.00
   9  11  -4    8.30    4.90
 -10   2 -14   12.20    8.30
  -8   3 -13   17.50    5.70
  -6   4 -12   -1.20    3.70
  -6   4 -12    4.60    3.10
  -6   4 -12    2.20    2.90
   6  -4  12   12.20    4.50
  -4   5 -11   20.10    4.40
  -4   5 -11   13.80    4.50
   4  -5  11   15.40    4.40
  -2   6 -10   71.19    8.60
  -2   6 -10   59.89    7.80
  -2   6 -10   61.59    7.90
   2  -6  10   61.89    7.70
   0   7  -9   21.70    5.90
   0   7  -9   30.40    5.10
   0   7  -9   36.50    7.10
   0  -7   9   29.70    5.00
   2   8  -8   36.80    7.80
   2   8  -8   42.00    5.80
  -2  -8   8   36.00    5.70
   4   9  -7   19.40    6.00
   4   9  -7   17.10    5.00
   4   9  -7    5.40    5.20
  -4  -9   7   13.40    4.40
   6  10  -6   41.70    6.60
   6  10  -6   63.19    7.80
   6  10  -6   48.60    9.30
   6  10  -6   40.00    9.40
   8  11  -5   45.70   11.00
   8  11  -5   57.99    8.40
  10  12  -4   14.40    6.40
  -9   3 -14    1.30    5.00
  -7   4 -13    9.10    4.80
  -5   5 -12   28.70    5.20
  -5   5 -12   32.50    5.90
  -5   5 -12   27.60    5.40
   5  -5  12   28.70    6.00
  -3   6 -11   -5.90    3.70
  -3   6 -11   -2.20    3.60
  -3   6 -11    0.60    3.30
   3  -6  11    0.60    3.50
  -1   7 -10   -3.20    4.00
  -1   7 -10    0.40    3.30
  -1   7 -10    0.80    3.50
   1  -7  10    4.00    3.30
   1   8  -9   41.10    6.70
   1   8  -9   38.40    7.70
   1   8  -9   53.49    8.20
  -1  -8   9   41.00    6.30
   3   9  -8   22.90    4.70
   3   9  -8   21.10    6.80
   3   9  -8   13.90    6.20
  -3  -9   8   20.40    4.90
   5  10  -7    7.20    6.10
   5  10  -7   17.60    5.00
   7  11  -6   -6.40    6.10
   7  11  -6   -3.50    4.00
  -8   4 -14   12.00    5.50
  -6   5 -13   56.39    7.20
  -6   5 -13   63.09    8.50
  -6   5 -13   61.29    7.20
  -4   6 -12   67.69    9.00
  -4   6 -12   91.19   10.20
  -4   6 -12   72.39    8.80
   4  -6  12   83.09    9.40
  -2   7 -11   31.80    6.20
  -2   7 -11   31.00    6.60
  -2   7 -11   40.40    6.80
   0   8 -10   -1.20    4.40
   0   8 -10   -1.80    4.00
   0   8 -10    3.70    4.00
   0  -8  10    0.90    4.20
   2   9  -9   -0.10    3.60
   2   9  -9    6.10    6.10
   2   9  -9   -3.10    4.60
  -2  -9   9   -1.30    3.70
   4  10  -8    9.50    4.30
   4  10  -8    2.80    5.80
  -4 -10   8   13.60    5.00
   6  11  -7   34.80    6.80
   6  11  -7   44.00    9.60
   8  12  -6    8.60    5.40
   8  12  -6    4.70    6.70
  -7   5 -14   -1.30    3.00
  -7   5 -14    2.00    4.60
  -7   5 -14   -1.10    2.90
  -5   6 -13   15.10    4.90
  -5   6 -13   14.70    4.60
  -5   6 -13   16.40    4.90
  -3   7 -12   12.30    5.00
  -3   7 -12   11.60    5.00
  -3   7 -12    5.50    4.30
   3  -7  12    3.00    4.50
  -1   8 -11   38.00    6.20
  -1   8 -11   26.70    6.80
  -1   8 -11   33.20    6.90
   1  -8  11   37.60    7.40
   1   9 -10   89.09   11.50
   1   9 -10   71.89    8.90
   3  10  -9   44.40    9.10
   3  10  -9   41.50    6.60
   3  10  -9   28.80    7.40
   5  11  -8   46.80   10.30
   5  11  -8   59.79    8.20
   7  12  -7   31.10    8.90
   7  12  -7   18.60    6.00
   9  13  -6    3.50    8.40
   9  13  -6    3.90    5.90
  -8   5 -15    5.80    5.60
  -6   6 -14   16.50    4.70
  -6   6 -14   13.10    5.10
  -6   6 -14    5.80    4.40
  -4   7 -13   17.40    5.30
  -4   7 -13    8.50    5.10
  -4   7 -13   20.70    5.40
  -2   8 -12   14.30    5.80
  -2   8 -12   12.20    4.50
  -2   8 -12   12.20    5.60
   0   9 -11   40.30    7.20
   0   9 -11   49.80    8.80
   0   9 -11   46.10    9.10
   2  10 -10    4.40    5.90
   2  10 -10    9.10    4.80
   4  11  -9   12.80    7.30
   4  11  -9    8.70    4.80
   6  12  -8   13.10    8.30
   6  12  -8    2.70    4.90
   8  13  -7    5.00    7.60
   8  13  -7    4.60    5.80
  -7   6 -15    1.90    3.20
  -7   6 -15    1.10    4.90
  -7   6 -15   -3.70    3.80
  -5   7 -14    0.90    4.40
  -5   7 -14   -2.30    4.40
  -5   7 -14   -2.50    4.20
  -3   8 -13    9.60    5.20
  -3   8 -13    4.40    4.50
  -3   8 -13    6.50    5.20
  -1   9 -12   49.90    8.70
  -1   9 -12   72.59   10.00
  -1   9 -12   69.89   10.20
   1  10 -11   55.89    8.60
   1  10 -11   70.69   10.70
   3  11 -10   46.20    7.90
   3  11 -10   47.20   10.20
   5  12  -9   15.40    5.50
   5  12  -9   21.30    8.70
   7  13  -8   -4.00    5.00
   7  13  -8    5.30    7.70
  -6   7 -15    4.60    5.30
  -6   7 -15   -0.90    4.40
  -6   7 -15    8.70    4.80
  -4   8 -14    3.30    5.20
  -4   8 -14    2.50    5.20
  -4   8 -14    4.80    5.50
  -2   9 -13   24.20    6.60
  -2   9 -13   34.10    7.60
  -2   9 -13   35.50    6.90
   0  10 -12   32.50    6.50
   0  10 -12   21.60    7.30
   2  11 -11   -0.90    4.70
   2  11 -11   -1.90    6.00
   4  12 -10    4.00    4.90
   4  12 -10   -7.20    6.50
   6  13  -9    3.40    5.00
   6  13  -9    3.70    7.20
  -5   8 -15   -2.00    5.40
  -5   8 -15   -4.60    4.20
  -5   8 -15   -2.40    5.30
  -3   9 -14    0.50    5.40
  -3   9 -14    5.70    6.40
  -1  10 -13    4.90    4.60
  -1  10 -13    8.70    6.90
   1  11 -12   -4.80    5.70
   1  11 -12    1.10    4.80
   5  13 -10    0.10    7.60
   5  13 -10    4.40    5.80
  -4   9 -15   18.90    7.10
  -4   9 -15   24.60    7.80
  -4   9 -15   17.50    6.30
  -2  10 -14   30.20    8.60
  -2  10 -14   41.90    7.90
   0  11 -13   27.30    8.80
   0  11 -13   24.20    6.80
   2  12 -12   16.70    6.40
   4  13 -11    0.10    5.70
   4  13 -11   15.20    8.50
  -3  10 -15   -0.50    6.80
  -3  10 -15    9.50    7.20
  -1  11 -14    6.00    8.00
  -1  11 -14    9.80    5.70
   1  12 -13   11.30    5.90
   3  13 -12   13.30    9.30
   0  12 -14    6.70    8.20
   2  14  -9   -2.20    5.00
   0  13 -10    2.40    5.50
  -2  12 -11   27.00    8.10
  -2  12 -11   31.10    7.90
   5  15  -7    9.60    6.20
   3  14  -8    1.60    4.90
   3  14  -8    7.70    7.40
   1  13  -9    4.70    7.30
  -1  12 -10    3.30    5.50
  -3  11 -11    5.20    5.40
  -3  11 -11    6.40    6.20
  -5  10 -12   -1.20    5.90
  -5  10 -12   14.70    6.80
   6  15  -6   12.40    5.70
   4  14  -7   54.19   11.60
   2  13  -8   40.00    7.40
   0  12  -9   54.79    8.70
   0  12  -9   28.40    8.90
  -2  11 -10   31.90    7.30
  -2  11 -10   31.20    8.60
  -4  10 -11   13.10    5.70
  -4  10 -11   19.10    5.70
  -4  10 -11    7.90    5.80
  -6   9 -12    0.50    5.10
  -6   9 -12    9.20    5.60
   7  15  -5    0.30    4.80
   5  14  -6    1.90    6.40
   5  14  -6   10.60    5.40
   3  13  -7   -6.50    4.00
   1  12  -8   12.70    6.10
   1  12  -8   17.40    5.10
  -1  11  -9   29.80    6.60
  -1  11  -9   34.40    7.80
  -3  10 -10   32.30    7.50
  -3  10 -10   17.60    6.60
  -3  10 -10   21.00    5.70
  -5   9 -11   21.20    6.20
  -5   9 -11   20.10    6.00
  -5   9 -11    7.30    5.80
  -7   8 -12   11.00    5.10
  -7   8 -12    7.40    4.40
   6  14  -5   11.60    7.50
   6  14  -5    5.20    5.00
   4  13  -6   18.60    5.60
   4  13  -6   25.10    8.10
   2  12  -7   82.59   10.50
   2  12  -7   80.99   12.10
   0  11  -8   30.40    7.70
   0  11  -8   23.50    5.80
   0  11  -8   35.20    7.20
  -2  10  -9   -1.10    4.80
  -2  10  -9    0.60    4.20
  -4   9 -10   12.50    5.90
  -4   9 -10   11.30    5.00
  -4   9 -10    7.60    5.10
  -6   8 -11   -4.40    4.00
  -6   8 -11    2.40    4.70
  -6   8 -11    3.80    5.00
   7  14  -4    3.80    6.60
   7  14  -4    3.80    4.60
   5  13  -5   14.40    7.10
   5  13  -5   21.80    5.60
   3  12  -6   24.30    7.30
   3  12  -6   22.90    5.60
  -1 -11   7    3.10    4.00
   1  11  -7   -4.10    4.80
   1  11  -7    6.00    5.60
   1  11  -7   -4.00    3.80
  -1  10  -8   11.90    7.50
  -1  10  -8    3.50    4.40
  -1  10  -8   12.50    5.20
  -3   9  -9   10.60    5.30
  -3   9  -9    9.40    4.40
  -3   9  -9    7.60    4.80
  -5   8 -10   39.30    7.60
  -5   8 -10   51.79    7.80
  -5   8 -10   47.60    7.70
  -7   7 -11    9.30    5.50
  -7   7 -11    6.50    3.80
   8  14  -3   15.30    5.40
   6  13  -4   11.00    6.70
   6  13  -4    3.70    4.40
  -4 -12   5    2.90    3.90
   4  12  -5    4.70    4.10
   4  12  -5   -0.50    5.70
  -2 -11   6    5.70    4.10
   2  11  -6    5.40    4.10
   2  11  -6    9.30    5.40
   2  11  -6   10.90    5.70
   0 -10   7   13.20    4.60
   0  10  -7   24.60    5.30
   0  10  -7   28.40    6.90
   0  10  -7   36.30    6.90
  -2   9  -8   19.90    5.00
  -2   9  -8   11.90    5.70
  -2   9  -8   18.40    5.60
  -4   8  -9   46.90    8.10
  -4   8  -9   50.49    7.60
  -4   8  -9   41.30    7.30
  -6   7 -10   16.20    4.80
  -6   7 -10   25.70    5.50
  -6   7 -10   18.20    5.40
  -8   6 -11    7.20    5.10
   9  14  -2   25.90    6.30
   9  14  -2   22.20   10.30
   7  13  -3   29.20    7.70
   7  13  -3   21.50    5.60
  -5 -12   4   16.10    5.40
   5  12  -4   12.10    6.80
   5  12  -4   18.90    4.90
   3  11  -5   74.29   11.50
   3  11  -5  100.69   12.90
   3  11  -5   85.59    9.40
  -1 -10   6   18.20    4.70
   1  10  -6   21.70    4.90
   1  10  -6   24.10    6.60
  -1   9  -7    3.90    4.80
  -1   9  -7    0.50    3.70
  -1   9  -7    7.70    4.30
  -3   8  -8   58.49    7.80
  -3   8  -8   54.29    8.10
  -3   8  -8   68.29    8.70
  -5   7  -9   -0.20    3.40
  -5   7  -9   -3.10    3.90
  -5   7  -9    2.20    4.10
  -7   6 -10    0.30    3.20
  -7   6 -10    4.90    4.30
  -7   6 -10   -0.50    3.60
  -9   5 -11   18.40    6.30
   8  13  -2   13.50    7.70
   8  13  -2   10.70    4.40
   6  12  -3   16.80    7.30
   6  12  -3   20.40    4.50
   6  12  -3   22.40    5.10
  -4 -11   4   35.10    6.20
   4  11  -4   33.80    8.10
   4  11  -4   42.40    6.30
  -2 -10   5   63.59    8.00
   2  10  -5   67.49    7.60
   2  10  -5   64.49   12.20
   2  10  -5   56.49    9.70
   0  -9   6  149.29   14.80
   0   9  -6  166.18   15.20
   0   9  -6  161.48   16.50
   0   9  -6  174.58   16.40
   2  -8   7   88.69    9.20
  -2   8  -7   94.99   10.20
  -2   8  -7   79.69   10.30
  -4   7  -8   78.79    8.60
  -4   7  -8   65.19    8.50
  -4   7  -8   70.09    8.10
  -6   6  -9   13.90    4.10
  -6   6  -9   19.10    4.70
  -6   6  -9   20.00    5.40
  -8   5 -10   10.20    5.30
   9  13  -1    6.60    7.20
   9  13  -1    6.80    4.70
   7  12  -2    0.90    3.30
   7  12  -2    2.10    3.80
   7  12  -2    7.90    6.20
  -5 -11   3    8.20    4.00
   5  11  -3    6.20    5.90
   5  11  -3    5.40    5.60
  -3 -10   4   28.40    5.30
   3  10  -4   19.80    6.50
   3  10  -4   25.10    6.80
   3  10  -4   34.90    5.20
  -1  -9   5    1.40    3.00
   1   9  -5    7.30    3.40
   1   9  -5    4.30    4.70
   1   9  -5    4.30    4.40
   1  -8   6   -3.10    2.90
  -1   8  -6    1.80    3.70
  -1   8  -6    6.30    4.30
  -1   8  -6    2.30    3.20
   3  -7   7    3.30    2.90
  -3   7  -7    0.80    3.90
  -3   7  -7   10.70    3.30
  -3   7  -7    2.90    3.20
   5  -6   8   63.39    7.70
  -5   6  -8   63.99    7.60
  -5   6  -8   65.39    7.60
  -5   6  -8   68.69    7.80
  -7   5  -9   20.50    5.30
  -7   5  -9   14.60    3.40
  -7   5  -9    5.80    2.80
  -9   4 -10   22.30    7.20
  10  13   0    7.10    5.00
  10  13   0   12.20    6.80
   8  12  -1    6.10    3.80
   8  12  -1    9.80    4.20
   8  12  -1    3.40    6.80
   6  11  -2  105.79   11.60
   6  11  -2   58.59    8.40
   6  11  -2   99.19   11.30
  -4 -10   3   59.09    7.20
   4  10  -3   56.59    9.30
   4  10  -3   53.99    6.80
   4  10  -3   44.80    8.70
  -2  -9   4   72.09    8.00
   2   9  -4   56.19    7.10
   2   9  -4   70.69    9.40
   2   9  -4   69.59    9.50
   0  -8   5   53.49    6.50
   0   8  -5   49.70    7.90
   0   8  -5   64.69    6.70
   0   8  -5   70.39    7.60
   2  -7   6   41.70    5.60
  -2   7  -6   41.60    6.70
  -2   7  -6   33.80    6.10
  -2   7  -6   46.20    5.80
   4  -6   7   35.50    5.50
  -4   6  -7   30.30    5.30
  -4   6  -7   29.50    5.30
  -4   6  -7   44.10    6.10
   6  -5   8   10.10    4.30
  -6   5  -8    9.40    3.60
  -6   5  -8   13.80    3.70
  -6   5  -8   13.40    4.60
  -8   4  -9    2.80    4.20
 -10   3 -10    2.80    5.60
   9  12   0   11.90    4.70
   9  12   0   18.60    7.30
   9  12   0   14.50    4.80
   7  11  -1   19.10    7.10
   7  11  -1   15.50    3.90
   7  11  -1   20.20    5.30
   7  11  -1    8.50    6.20
  -5 -10   2   59.49    7.10
   5  10  -2   52.19    9.00
   5  10  -2   44.70    8.30
   5  10  -2   54.59    6.90
  -3  -9   3  146.09   14.00
   3   9  -3  145.59   13.90
   3   9  -3  162.38   15.40
   3   9  -3  162.38   15.50
  -1  -8   4   83.29    8.40
   1   8  -4   82.09    9.60
   1   8  -4   83.79    9.50
   1   8  -4   91.89    8.50
   1  -7   5   47.70    6.10
  -1   7  -5   65.29    7.70
  -1   7  -5   57.99    6.30
  -1   7  -5   60.49    7.90
   3  -6   6    0.30    2.50
  -3   6  -6    3.70    2.90
  -3   6  -6   -0.60    3.20
  -3   6  -6   -1.30    2.90
   5  -5   7   30.30    5.50
  -5   5  -7   34.80    5.90
  -5   5  -7   41.00    5.80
   7  -4   8    9.10    4.40
  -7   4  -8   22.70    5.30
  -9   3  -9   -1.20    4.90
  10  12   1   14.90    6.10
  10  12   1    5.80    4.20
   8  11   0   29.90    7.40
   8  11   0   40.70    6.00
   8  11   0   30.10    5.80
   8  11   0   32.40    8.20
   6  10  -1    9.90    3.50
   6  10  -1   10.30    5.70
   6  10  -1    1.00    4.70
   6  10  -1    6.10    3.20
  -4  -9   2    3.60    2.80
   4   9  -2   12.70    5.10
   4   9  -2   -2.50    3.70
   4   9  -2    3.60    2.80
  -2  -8   3    3.30    2.70
   2   8  -3    4.50    3.80
   2   8  -3    7.00    2.70
   2   8  -3    6.10    3.60
   0  -7   4    5.50    2.60
   0   7  -4    1.80    3.00
   0   7  -4    7.40    2.70
   0   7  -4   -0.50    3.40
   2  -6   5  110.49   11.50
  -2   6  -5  116.19   12.00
  -2   6  -5  149.88   12.60
  -2   6  -5  136.09   11.70
   4  -5   6  127.39   12.70
  -4   5  -6  152.68   12.90
  -4   5  -6  138.79   12.90
  -4   5  -6  130.39   12.70
   6  -4   7   49.10    6.50
  -6   4  -7   35.40    4.60
  -6   4  -7   42.00    4.90
   8  -3   8    2.80    4.30
  -8   3  -8    8.40    4.30
 -10   2  -9   22.90    6.70
  11  12   2    4.30    5.80
  11  12   2    9.10    5.10
   9  11   1   28.90    5.30
   9  11   1   18.30    6.60
   9  11   1   22.90    8.10
   9  11   1   27.90    5.30
   7  10   0   54.39    6.70
   7  10   0   64.19    9.60
   7  10   0   59.79    6.90
   7  10   0   56.79    9.10
   5   9  -1  230.38   20.10
   5   9  -1  214.78   21.50
   5   9  -1  252.67   21.70
   5   9  -1  219.58   19.90
  -3  -8   2  236.88   21.10
   3   8  -2  241.98   22.00
   3   8  -2  245.78   22.00
   3   8  -2  240.18   21.00
  -1  -7   3  146.99   12.50
   1   7  -3  141.19   12.20
   1   7  -3  118.89   12.90
   1   7  -3  126.89   13.20
   1  -6   4   95.19    8.60
  -1   6  -4   82.69    9.20
  -1   6  -4   94.39    9.60
  -1   6  -4   91.19    8.60
   3  -5   5   85.49    8.10
  -3   5  -5   78.69    8.00
  -3   5  -5   81.09    8.30
  -3   5  -5   85.19    8.50
   5  -4   6    5.00    2.90
  -5   4  -6    7.50    3.10
  -5   4  -6    2.10    3.00
  -5   4  -6    7.20    2.40
   7  -3   7   83.09    9.60
  -7   3  -7   89.39    9.30
  -9   2  -8   10.80    5.00
  10  11   2    5.20    4.20
  10  11   2    5.40    4.00
  10  11   2    4.00    4.90
  10  11   2   14.10    7.20
   8  10   1   11.50    5.60
   8  10   1    4.70    6.00
   8  10   1    7.40    3.50
   8  10   1    5.30    3.50
   6   9   0    2.10    2.70
   6   9   0   -1.80    4.00
   6   9   0    2.10    2.70
   6   9   0    1.80    4.60
   4   8  -1   60.19    6.70
   4   8  -1   83.99    8.80
  -2  -7   2  114.89   11.30
   2   7  -2  131.09   12.20
   2   7  -2  136.99   12.60
   2   7  -2  121.39   11.20
   0  -6   3  328.27   28.00
   0   6  -3  333.07   28.00
   0   6  -3  316.67   28.60
   0   6  -3  333.77   28.90
   2  -5   4  137.89   11.70
  -2   5  -4  134.39   12.00
  -2   5  -4  121.49   12.10
  -2   5  -4  115.89   11.40
   4  -4   5  128.39   12.60
  -4   4  -5  149.88   12.80
  -4   4  -5  144.99   12.70
  -4   4  -5  132.99   12.50
   6  -3   6  148.09   14.40
  -6   3  -6  162.58   13.70
  -6   3  -6  153.98   14.60
  -6   3  -6  158.08   13.80
   8  -2   7   86.29   10.00
  -8   2  -7   99.89   10.30
 -10   1  -8    4.40    4.70
  11  11   3   -0.40    3.80
  11  11   3    1.80    5.70
  11  11   3    9.40    6.70
   9  10   2   12.00    4.20
   9  10   2    8.80    5.70
   9  10   2   10.30    5.80
   7   9   1  105.39   11.30
   7   9   1  100.69    9.70
   7   9   1   93.29   10.80
   7   9   1   86.49    9.40
   5   8   0   25.30    5.00
   5   8   0   23.30    3.50
   5   8   0   15.70    3.20
   5   8   0   19.10    5.40
  -3  -7   1   19.60    3.40
   3   7  -1    9.00    3.60
   3   7  -1   12.60    2.90
   3   7  -1   10.00    4.80
  -1  -6   2  229.38   19.00
   1   6  -2  222.68   19.00
   1   6  -2  217.28   19.80
   1   6  -2  205.88   19.50
   1  -5   3  128.19   12.00
  -1   5  -3  140.59   12.00
   3  -4   4  126.59   11.00
  -3   4  -4  114.09   10.80
  -3   4  -4  114.89   10.80
   5  -3   5   33.10    4.60
  -5   3  -5   46.50    5.30
  -5   3  -5   28.50    3.70
  -5   3  -5   30.90    4.30
   7  -2   6   13.60    3.90
  -7   2  -6   20.80    4.80
   9  -1   7    6.30    3.80
  -9   1  -7    6.70    4.30
 -11   0  -8   10.10    5.50
  12  11   4   17.60    7.20
  12  11   4    7.80    4.80
  12  11   4   17.60    7.20
  10  10   3   31.20    7.00
  10  10   3   16.40    5.20
  10  10   3   19.80    6.50
  10  10   3   28.10    5.50
   8   9   2   42.80    5.80
   8   9   2   36.00    5.60
   8   9   2   38.00    6.90
   8   9   2   46.00    7.70
   6   8   1   27.20    4.20
   6   8   1   25.80    4.00
   6   8   1   27.20    6.00
   6   8   1   27.10    5.40
   4   7   0   10.70    5.60
   4   7   0   14.80    2.80
   4   7   0   10.30    3.90
  -2  -6   1  127.89   11.90
   2   6  -1  122.29   11.90
   2   6  -1  168.58   13.20
   2   6  -1  133.09   12.60
   0  -5   2  167.38   15.60
   0  -5   2  173.58   15.10
   0   5  -2  188.28   16.80
   2  -4   3   71.69    6.50
   2  -4   3   63.39    6.80
  -2   4  -3   64.09    6.40
  -2   4  -3   63.19    6.70
   4  -3   4    6.90    2.40
  -4   3  -4    8.90    2.10
   6  -2   5   62.29    6.60
  -6   2  -5   57.49    6.60
   8  -1   6    2.30    3.50
  -8   1  -6    1.20    4.20
 -10   0  -7    0.00    4.20
 -12  -1  -8    3.10    5.00
  11  10   4   11.40    4.90
  11  10   4   25.60    7.00
  11  10   4   19.80    5.40
   9   9   3   15.20    4.20
   9   9   3   10.90    3.70
   9   9   3   12.70    5.40
   9   9   3    6.60    4.40
   7   8   2   20.30    4.00
   7   8   2   20.00    3.70
   7   8   2   14.80    5.20
   7   8   2   22.30    5.00
   5   7   1  292.97   25.40
   5   7   1  302.77   26.20
   5   7   1  293.47   25.40
  -3  -6   0  467.45   37.90
   3   6   0  462.05   38.60
   3   6   0  386.76   38.20
   3   6   0  465.95   38.40
  -1  -5   1  721.93   60.99
  -1  -5   1  686.33   61.29
   1   5  -1  765.72   61.49
   1   5  -1  729.93   60.89
   1  -4   2  284.47   23.50
   1  -4   2  267.37   23.90
  -1   4  -2  272.47   23.80
  -1   4  -2  278.87   23.50
   3  -3   3  325.47   26.70
   3  -3   3  289.87   26.70
  -3   3  -3  308.57   26.60
  -3   3  -3  325.07   26.70
   5  -2   4   95.99    8.90
   5  -2   4   83.19    8.50
  -5   2  -4  104.09    9.00
  -5   2  -4   94.19    8.30
   7  -1   5   12.60    3.50
  -7   1  -5   13.10    3.90
   9   0   6   -1.60    3.30
  -9   0  -6   -1.10    3.40
 -11  -1  -7    4.20    5.00
  12  10   5   24.60    6.80
  12  10   5    9.30    5.40
  12  10   5   22.40    7.00
  10   9   4   20.20    5.80
  10   9   4   14.50    4.30
  10   9   4    7.50    5.30
  10   9   4   17.50    4.90
   8   8   3   38.30    6.90
   8   8   3   25.30    5.70
   8   8   3   28.20    4.80
   8   8   3   26.00    4.50
   6   7   2    1.80    3.30
   6   7   2   12.50    2.70
   6   7   2    8.70    2.60
   4   6   1    4.20    3.10
   4   6   1    3.40    2.00
   4   6   1    5.00    3.60
  -2  -5   0   52.39    5.10
   2   5   0   50.49    6.20
   2   5   0   51.19    5.00
   0  -4   1   23.90    3.80
   0  -4   1   25.50    3.00
   0   4  -1   20.00    3.50
   0   4  -1   20.40    2.90
   2  -3   2   11.40    2.70
   2  -3   2   15.70    2.60
  -2   3  -2   11.70    2.50
  -2   3  -2   14.90    2.40
   4  -2   3  319.87   27.50
   4  -2   3  336.07   27.70
  -4   2  -3  336.17   27.70
  -4   2  -3  308.17   27.40
   6  -1   4   53.19    6.40
  -6   1  -4   50.69    6.40
   8   0   5   87.59    9.00
  -8   0  -5   85.29    9.20
  10   1   6   41.80    7.10
 -10  -1  -6   48.70    7.50
  11   9   5    1.10    4.50
  11   9   5   10.40    4.90
  11   9   5   -0.30    3.70
  11   9   5    0.30    3.90
   9   8   4    6.60    3.30
   9   8   4    6.80    4.70
   9   8   4    2.30    4.00
   9   8   4   14.10    3.90
   7   7   3   80.79   10.80
   7   7   3   94.39   10.10
   7   7   3  109.79    9.60
   7   7   3  100.69    9.30
   5   6   2  240.58   19.80
   5   6   2  240.48   19.90
   5   6   2  213.08   20.50
   5   6   2  219.08   20.40
   3   5   1  591.34   48.40
   3   5   1  518.55   47.70
   3   5   1  600.64   48.30
  -1  -4   0  869.61   70.69
  -1  -4   0  798.02   71.09
   1   4   0  806.22   71.09
   1   4   0  899.31   70.69
   1  -3   1   61.19    6.50
   1  -3   1   61.89    6.00
  -1   3  -1   62.99    6.30
  -1   3  -1   71.09    6.00
   3  -2   2   30.60    3.70
   3  -2   2   35.50    4.00
  -3   2  -2   31.40    3.60
  -3   2  -2   28.30    5.40
   5  -1   3   28.20    3.20
  -5   1  -3   33.10    4.40
  -5   1  -3   30.10    3.30
   7   0   4    6.40    2.70
  -7   0  -4    2.80    2.80
   9   1   5    3.40    3.50
  -9  -1  -5    7.70    3.90
 -11  -2  -6   11.60    5.30
  12   9   6    8.80    4.90
  12   9   6   16.40    5.30
  12   9   6    1.60    4.70
  10   8   5   10.50    4.50
  10   8   5    8.60    4.40
  10   8   5   10.30    4.00
   8   7   4   23.90    5.10
   8   7   4   24.80    4.40
   8   7   4   33.50    6.10
   6   6   3   48.50    5.90
   6   6   3   44.10    6.10
   6   6   3   36.90    4.60
   4   5   2  310.77   27.70
   4   5   2  318.77   27.30
   4   5   2  341.87   27.30
   4   5   2  311.97   27.90
  -2  -4  -1   17.70    2.60
  -2  -4  -1   12.40    3.20
   2   4   1   16.10    2.30
   2   4   1   10.30    2.80
   0  -3   0   46.90    4.50
   0   3   0   46.10    4.50
   2  -2   1  207.98   17.00
   2  -2   1  192.18   16.90
  -2   2  -1  210.08   16.90
  -2   2  -1  179.68   16.90
   4  -1   2  293.37   25.60
   4  -1   2  307.07   25.80
  -4   1  -2  313.77   25.80
  -4   1  -2  298.47   25.50
   6   0   3  221.68   18.90
   6   0   3  213.08   18.30
  -6   0  -3  212.08   18.90
   8   1   4   83.89    9.10
  -8  -1  -4   94.09    9.10
  10   2   5   46.20    7.10
 -10  -2  -5   52.29    7.60
 -12  -3  -6   11.30    5.20
 -11  -8  -6   -0.10    3.40
  11   8   6   -5.30    3.40
  11   8   6    4.40    5.20
  11   8   6    5.00    3.60
  -9  -7  -5   16.30    3.90
   9   7   5    2.80    3.30
   9   7   5    9.60    4.00
   9   7   5    7.60    4.50
  -7  -6  -4   15.60    2.80
   7   6   4    4.40    3.00
   7   6   4    7.60    3.70
  -5  -5  -3   62.89    5.80
   5   5   3   59.39    6.40
   5   5   3   53.69    6.80
   5   5   3   60.99    5.80
  -3  -4  -2  108.79   10.50
   3   4   2  120.39   10.10
   3   4   2  118.29   10.60
   3   4   2  114.29   10.10
  -1  -3  -1   59.29    5.10
  -1  -3  -1   58.49    5.80
   1   3   1   50.29    5.70
   1   3   1   54.59    5.00
   1  -2   0  158.28   13.20
   1  -2   0  148.39   13.30
  -1   2   0  155.38   13.20
  -1   2   0  153.68   13.30
   3  -1   1   68.09    6.20
   3  -1   1   67.49    6.40
  -3   1  -1   68.59    6.10
  -3   1  -1   68.09    6.40
   5   0   2  360.86   29.70
   5   0   2  353.76   30.10
  -5   0  -2  333.87   29.70
  -5   0  -2  363.66   30.10
   7   1   3    3.50    2.50
   7   1   3    3.50    1.60
  -7  -1  -3    4.30    2.90
  -7  -1  -3    0.60    1.90
   9   2   4   12.10    3.80
 -11  -3  -5   -1.50    3.80
 -12  -8  -7   -3.30    3.60
  12   8   7    1.60    4.10
 -10  -7  -6   44.40    6.50
  10   7   6   54.29    6.80
  10   7   6   56.79    6.90
  10   7   6   45.50    6.60
  -8  -6  -5  302.97   28.00
   8   6   5  338.37   28.40
   8   6   5  331.37   28.40
   8   6   5  327.07   28.10
  -6  -5  -4   49.70    5.20
   6   5   4   43.60    5.60
   6   5   4   48.60    5.20
   6   5   4   69.69    6.90
  -4  -4  -3  547.05   45.80
   4   4   3  533.15   45.80
   4   4   3  553.94   46.10
  -2  -3  -2  489.15   43.00
   2   3   2  488.95   42.90
   2   3   2  523.35   42.70
   2   3   2  532.55   42.70
   0  -2  -1   38.20    3.30
   0  -2  -1   32.90    3.70
   0   2   1   36.70    3.70
   0   2   1   35.10    3.30
   2  -1   0   28.00    3.00
   2  -1   0   15.10    2.70
  -2   1   0   28.50    2.90
  -2   1   0   17.70    2.70
   4   0   1   84.39    7.70
   4   0   1   74.19    8.00
  -4   0  -1   90.89    8.40
  -4   0  -1   96.19    7.80
   6   1   2   39.00    4.30
   6   1   2   41.50    4.90
  -6  -1  -2   46.20    5.00
  -6  -1  -2   43.20    4.60
   8   2   3   37.50    4.40
   8   2   3   41.90    5.60
  -8  -2  -3   45.80    6.00
  10   3   4   75.59    9.50
 -10  -3  -4   78.79    9.60
 -12  -4  -5   -2.90    4.20
 -11  -7  -7    7.50    3.80
  11   7   7    2.60    3.80
  11   7   7    5.60    3.40
  -9  -6  -6    9.10    3.30
   9   6   6    5.20    3.60
   9   6   6    7.10    3.10
  -7  -5  -5   17.20    3.10
   7   5   5   11.70    3.40
   7   5   5   11.70    2.80
   7   5   5   15.60    3.10
  -5  -4  -4   61.29    5.80
   5   4   4   55.99    6.40
   5   4   4   57.89    5.70
   5   4   4   63.09    6.00
  -3  -3  -3    1.90    1.40
  -3  -3  -3    1.50    2.00
   3   3   3    1.50    1.70
   3   3   3    4.10    1.40
  -1  -2  -2 1625.74  136.79
   1   2   2 1648.24  136.79
   1  -1  -1 1558.74  125.09
   1  -1  -1 1423.96  124.99
  -1   1   1 1473.65  125.09
  -1   1   1 1531.75  125.09
   3   0   0  188.78   16.50
   3   0   0  198.18   16.60
  -3   0   0  192.58   16.50
  -3   0   0  193.38   16.60
   5   1   1  200.58   16.70
   5   1   1  194.28   16.40
  -5  -1  -1  191.38   16.70
  -5  -1  -1  180.78   16.50
   7   2   2   54.39    6.00
   7   2   2   41.30    4.90
  -7  -2  -2   66.09    6.60
  -7  -2  -2   42.50    5.30
   9   3   3   38.10    4.80
   9   3   3   31.80    5.60
  -9  -3  -3   48.00    6.40
  11   4   4   -3.80    2.70
  11   4   4    2.30    2.90
 -11  -4  -4   -1.80    3.80
 -12  -7  -8    6.90    4.00
 -10  -6  -7   59.19    7.20
  10   6   7   48.90    5.70
  10   6   7   70.29    7.40
  10   6   7   47.90    5.80
  -8  -5  -6   65.99    6.50
   8   5   6   43.40    5.40
   8   5   6   39.20    5.10
   8   5   6   51.79    5.80
  -6  -4  -5  406.26   33.70
   6   4   5  371.96   33.70
   6   4   5  394.76   33.70
   6   4   5  413.56   33.70
  -4  -3  -4  166.58   13.90
   4   3   4  160.58   13.90
   4   3   4  158.08   14.00
  -2  -2  -3   57.99    5.00
  -2  -2  -3   53.09    5.40
   2   2   3   49.50    5.30
   2   2   3   65.49    5.30
   0  -1  -2    3.90    0.80
   0  -1  -2    5.70    1.20
   0   1   2    6.00    1.20
   2   0  -1   30.20    3.60
   2   0  -1   30.90    3.50
  -2   0   1   28.90    3.60
  -2   0   1   33.00    3.50
   4   1   0  104.79   10.20
   4   1   0  116.79   10.10
  -4  -1   0  118.89   10.30
  -4  -1   0  118.59   10.60
  -6  -2  -1   62.89    6.20
  -6  -2  -1   54.29    6.10
   8   3   2   44.40    5.40
   8   3   2   48.80    6.00
  -8  -3  -2   43.60    6.00
  10   4   3   39.90    6.70
  10   4   3   49.50    6.20
 -10  -4  -3   61.59    7.40
  12   5   4   13.30    4.10
 -12  -5  -4   18.90    5.30
 -11  -6  -8   -2.40    3.20
  11   6   8    4.30    4.00
  -9  -5  -7    9.30    3.50
   9   5   7    9.20    2.70
   9   5   7   11.80    3.60
   9   5   7    6.10    2.20
  -7  -4  -6    4.40    2.40
   7   4   6   -3.20    1.90
   7   4   6   -0.70    1.50
   7   4   6   -2.00    1.80
  -5  -3  -5  451.75   37.40
   5   3   5  442.96   37.50
   5   3   5  447.26   37.40
   5   3   5  429.66   37.30
  -3  -2  -4   52.59    5.10
  -3  -2  -4   55.19    5.00
   3   2   4   51.49    4.90
   3   2   4   55.89    4.90
  -1  -1  -3  897.61   77.09
  -1  -1  -3  948.71   76.89
   1   1   3  949.51   76.89
   1   1   3  889.81   77.09
   1   0  -2 1480.05  124.69
   1   0  -2 1540.25  124.79
  -1   0   2 1425.26  124.69
  -1   0   2 1524.85  124.69
   3   1  -1  138.19   12.80
   3   1  -1  162.98   12.80
  -3  -1   1  143.99   12.70
  -3  -1   1  138.99   12.90
   5   2   0  278.87   23.40
   5   2   0  256.37   23.20
  -5  -2   0  254.17   23.40
  -5  -2   0  299.87   23.40
   7   3   1   24.90    4.10
   7   3   1   29.20    4.20
  -7  -3  -1   34.50    4.50
  -7  -3  -1   29.70    4.60
   9   4   2  178.98   16.70
   9   4   2  182.58   16.20
  -9  -4  -2  178.68   16.70
  11   5   3    5.30    3.90
  11   5   3    7.50    4.00
 -11  -5  -3   17.40    4.80
 -12  -6  -9   -3.10    3.60
 -10  -5  -8   11.90    3.90
  10   5   8    6.80    3.60
  -8  -4  -7   56.59    6.50
   8   4   7   62.99    6.40
  -6  -3  -6   13.20    2.90
   6   3   6    7.70    2.10
   6   3   6   10.00    2.40
   6   3   6   10.30    1.70
  -4  -2  -5  132.39   11.10
   4   2   5  134.39   11.10
   4   2   5  118.39   10.90
  -2  -1  -4  276.57   23.40
  -2  -1  -4  286.77   23.40
   2   1   4  280.47   23.40
   2   1   4  266.77   23.40
   0   0  -3   46.00    3.90
   0   0  -3   41.50    4.20
   0   0   3   43.80    4.00
   0   0   3   41.50    4.20
   2   1  -2  241.88   20.20
   2   1  -2  238.38   20.00
  -2  -1   2  227.98   20.20
  -2  -1   2  231.78   20.00
   4   2  -1    0.20    1.90
   4   2  -1   -0.20    2.00
  -4  -2   1   -0.70    2.70
   6   3   0  206.98   18.30
   6   3   0  206.78   18.30
  -6  -3   0  208.58   18.60
  -6  -3   0  211.98   18.30
   8   4   1  178.78   15.80
   8   4   1  176.98   16.00
  -8  -4  -1  170.88   15.90
  -8  -4  -1  173.68   16.30
  10   5   2    2.30    3.60
  10   5   2   -4.00    4.00
  10   5   2    4.00    3.70
 -10  -5  -2    5.70    3.70
  12   6   3   67.59    9.00
 -12  -6  -3   55.19    8.30
 -11  -5  -9    6.40    4.20
  11   5   9   18.60    4.80
  -9  -4  -8   18.80    4.30
   9   4   8   12.50    3.90
  -7  -3  -7   22.60    3.60
   7   3   7   12.40    3.40
  -5  -2  -6  106.09    9.60
   5   2   6  106.19    9.50
  -3  -1  -5   12.30    2.00
   3   1   5   12.70    1.80
   3   1   5   12.00    2.00
  -1   0  -4  117.09   10.20
  -1   0  -4  123.49   10.40
   1   0   4  116.89   10.20
   1   0   4  118.49   10.40
   1   1  -3  322.47   27.40
   1   1  -3  332.97   27.60
  -1  -1   3  318.87   27.60
   3   2  -2  119.59   11.10
   3   2  -2  127.59   10.80
  -3  -2   2  122.09   10.80
  -3  -2   2  116.99   11.10
   5   3  -1   82.19    7.40
   5   3  -1   61.09    7.70
  -5  -3   1   84.19    7.40
  -5  -3   1   70.79    8.00
   7   4   0   18.20    3.60
   7   4   0   19.50    3.60
  -7  -4   0   13.80    4.40
  -7  -4   0   24.00    3.90
   9   5   1   10.00    3.90
   9   5   1    4.80    4.10
  -9  -5  -1   11.70    5.40
  11   6   2   13.40    5.10
  11   6   2   27.00    5.50
 -11  -6  -2   21.50    5.10
 -12  -5 -10   13.80    4.70
 -10  -4  -9   63.09    8.60
  10   4   9   54.39    7.60
  -8  -3  -8   53.09    6.60
   8   3   8   48.90    6.40
  -6  -2  -7  428.26   36.50
   6   2   7  430.36   36.50
  -4  -1  -6  681.03   56.89
   4   1   6  672.63   56.89
  -2   0  -5  119.49   10.40
  -2   0  -5  124.99   10.40
   2   0   5  105.99   10.50
   2   0   5  132.29   10.50
   0   1  -4  470.85   38.20
   0   1  -4  449.36   37.90
   0  -1   4  436.76   38.10
   0  -1   4  446.76   37.90
   2   2  -3  181.78   14.40
   2   2  -3  153.98   14.70
   2   2  -3  169.48   14.40
  -2  -2   3  154.88   14.80
   4   3  -2   11.50    2.70
   4   3  -2    7.30    3.20
  -4  -3   2    5.90    2.30
  -4  -3   2    0.70    3.10
   6   4  -1   15.50    3.40
   6   4  -1   23.50    4.10
  -6  -4   1   19.90    3.50
  -6  -4   1   20.80    4.40
   8   5   0   22.50    5.50
   8   5   0   13.70    3.90
  -8  -5   0   24.00    5.40
  -8  -5   0   23.80    4.40
  10   6   1   -0.80    4.30
  10   6   1    5.50    4.60
  10   6   1    9.50    4.20
 -10  -6  -1   11.60    4.10
  12   7   2   -1.40    5.20
  12   7   2    4.50    4.90
 -12  -7  -2   11.50    5.30
 -11  -4 -10    6.40    4.10
  11   4  10    5.30    4.10
  -9  -3  -9    6.80    3.70
   9   3   9   11.60    3.80
  -7  -2  -8    0.00    2.40
   7   2   8    5.80    2.60
  -5  -1  -7   24.90    3.50
   5   1   7   22.00    3.40
  -3   0  -6   20.20    2.30
  -3   0  -6   19.10    2.80
   3   0   6   19.70    2.70
   3   0   6   15.60    2.50
  -1   1  -5  113.39    9.20
  -1   1  -5   98.69    9.50
   1  -1   5  109.69    9.20
   1  -1   5   92.19    9.60
   1   2  -4  313.97   25.70
   1   2  -4  295.77   26.00
  -1  -2   4  280.57   26.00
  -1  -2   4  317.37   25.70
   3   3  -3   12.90    3.10
   3   3  -3    6.60    3.20
   3   3  -3   10.20    2.50
  -3  -3   3   12.70    3.60
   5   4  -2  783.82   64.29
   5   4  -2  743.73   64.09
  -5  -4   2  723.03   63.89
  -5  -4   2  788.92   64.49
   7   5  -1  376.66   32.20
   7   5  -1  404.86   33.70
  -7  -5   1  363.76   32.80
  -7  -5   1  355.26   32.00
   9   6   0   99.99   10.60
   9   6   0   98.69   10.60
  -9  -6   0  106.69   10.80
  11   7   1    5.50    4.40
  11   7   1    4.40    5.10
 -11  -7  -1   20.00    5.30
 -12  -4 -11   -1.60    4.10
 -10  -3 -10   13.00    4.50
  10   3  10    7.00    4.70
  -8  -2  -9   34.50    5.00
   8   2   9   26.10    4.90
  -6  -1  -8  187.68   16.60
  -4   0  -7   99.19    9.60
   4   0   7  106.59    9.40
  -2   1  -6   12.80    2.20
  -2   1  -6   11.40    2.20
   2  -1   6   11.30    2.10
   2  -1   6    3.00    2.30
   0   2  -5    8.40    2.10
   0   2  -5    3.40    2.90
   0  -2   5    2.40    3.10
   0  -2   5    4.10    2.00
   2   3  -4    4.90    2.10
   2   3  -4    4.40    3.00
  -2  -3   4    6.30    2.20
  -2  -3   4   -0.50    3.10
   4   4  -3   42.20    4.80
   4   4  -3   39.90    5.70
   4   4  -3   42.10    5.30
  -4  -4   3   37.00    6.30
   6   5  -2   33.80    7.70
   6   5  -2   23.50    4.00
  -6  -5   2   25.40    5.50
   8   6  -1    0.10    4.00
   8   6  -1    2.30    3.50
  -8  -6   1   -5.30    3.20
  -8  -6   1    3.50    4.60
  10   7   0    2.30    4.60
  10   7   0    0.30    4.30
  10   7   0   -2.00    3.60
  12   8   1   -1.50    5.90
  12   8   1    1.30    5.50
  12   8   1    6.20    5.60
 -11  -3 -11   -3.30    3.60
  11   3  11   -0.10    4.10
  -9  -2 -10   69.79    7.90
   9   2  10   65.79    7.90
  -7  -1  -9   54.59    6.10
   7   1   9   46.30    5.70
  -5   0  -8   11.00    2.90
   5   0   8   13.10    2.90
  -3   1  -7   30.10    3.60
   3  -1   7   31.40    4.10
   3  -1   7   30.10    3.80
  -1   2  -6   37.90    4.70
  -1   2  -6   40.10    4.20
   1  -2   6   45.20    5.20
   1  -2   6   37.40    4.20
   1   3  -5   57.79    6.60
   1   3  -5   59.19    5.80
  -1  -3   5   60.79    5.80
  -1  -3   5   54.69    6.70
   3   4  -4  396.56   34.30
   3   4  -4  391.36   33.90
   3   4  -4  421.26   33.90
  -3  -4   4  382.36   34.50
   5   5  -3   53.19    5.90
   5   5  -3   44.90    5.20
   5   5  -3   42.30    7.30
  -5  -5   3   35.60    6.50
   7   6  -2   12.40    4.70
   7   6  -2   10.90    4.10
   7   6  -2   14.00    3.60
  -7  -6   2    6.00    4.60
   9   7  -1   24.50    5.80
   9   7  -1   45.90    7.00
   9   7  -1   39.70    7.00
  11   8   0   -0.60    5.60
  11   8   0    4.50    5.90
  11   8   0    0.50    5.00
 -12  -3 -12    9.40    5.30
 -10  -2 -11   -2.00    3.90
  10   2  11    0.80    3.90
  -8  -1 -10   30.90    5.60
   8   1  10   33.30    5.20
  -6   0  -9   13.40    3.40
   6   0   9   10.90    3.20
  -4   1  -8  138.09   12.90
  -4   1  -8  154.48   13.20
   4  -1   8  159.98   13.30
  -2   2  -7  226.88   19.70
  -2   2  -7  238.98   19.70
   2  -2   7  207.18   19.90
   2  -2   7  238.48   19.60
   0   3  -6  356.76   29.80
   0  -3   6  354.76   29.40
   0  -3   6  325.77   29.90
   2   4  -5  167.18   15.20
   2   4  -5  167.98   15.80
  -2  -4   5  176.98   16.00
  -2  -4   5  181.48   15.30
   4   5  -4  126.29   12.70
   4   5  -4  144.49   13.80
   4   5  -4  137.19   12.30
  -4  -5   4  135.19   13.40
   6   6  -3   -1.00    2.80
   6   6  -3    1.00    3.90
   6   6  -3    3.60    2.80
  -6  -6   3   -0.20    4.20
   8   7  -2    5.40    5.00
   8   7  -2   10.60    4.00
  -8  -7   2    0.10    4.90
  10   8  -1   10.40    5.70
  10   8  -1   11.90    5.90
  10   8  -1   12.20    6.00
  12   9   0    9.20    7.70
  12   9   0   -3.40    6.90
  12   9   0    6.30    5.50
 -11  -2 -12   12.10    5.30
  -9  -1 -11    7.30    4.30
   9   1  11    4.10    4.00
  -7   0 -10   70.79    7.70
   7   0  10   73.29    7.70
  -5   1  -9   25.40    4.10
   5  -1   9   22.50    3.90
  -3   2  -8   42.60    4.90
  -3   2  -8   38.30    4.60
   3  -2   8   43.40    5.40
   3  -2   8   43.10    5.00
  -1   3  -7   26.40    3.50
  -1   3  -7   19.40    4.00
   1  -3   7   24.70    3.40
   1  -3   7   21.00    4.30
   1   4  -6   15.10    2.80
   1   4  -6    7.80    3.70
  -1  -4   6    5.00    4.00
  -1  -4   6    8.60    2.60
   3   5  -5   57.59    6.20
   3   5  -5   59.39    8.80
  -3  -5   5   63.69    8.10
   5   6  -4   69.89    8.90
   5   6  -4   75.09    7.90
   5   6  -4   79.59    8.00
  -5  -6   4   93.79    9.80
   7   7  -3   46.30    6.80
   7   7  -3   60.69    8.30
   7   7  -3   56.19    7.70
  -7  -7   3   66.99    9.40
   9   8  -2   34.20    6.70
   9   8  -2   27.80    7.10
   9   8  -2   30.80    5.90
   9   8  -2   45.10    7.10
  11   9  -1   -0.50    6.10
  11   9  -1   16.10    5.80
  11   9  -1    5.20    6.10
 -10  -1 -12    8.10    4.70
  10   1  12    6.80    5.10
  -8   0 -11   17.40    5.00
   8   0  11   16.20    4.70
  -6   1 -10  140.79   12.50
   6  -1  10  126.39   12.40
  -4   2  -9   64.39    6.80
  -4   2  -9   76.69    7.20
   4  -2   9   78.19    7.30
  -2   3  -8  154.78   13.70
  -2   3  -8  140.29   13.30
   2  -3   8  155.38   14.00
   2  -3   8  154.18   13.40
   0   4  -7 1346.37  113.99
   0   4  -7 1381.46  113.69
   0  -4   7 1346.07  114.19
   0  -4   7 1347.27  113.69
   2   5  -6  135.09   14.90
   2   5  -6  142.89   12.30
  -2  -5   6  126.69   13.40
   4   6  -5    9.30    3.20
   4   6  -5    5.30    2.80
   4   6  -5   10.60    4.50
  -4  -6   5    6.10    4.80
   6   7  -4   81.59    8.10
   6   7  -4   69.49    8.10
   6   7  -4   73.69   10.00
  -6  -7   4   81.59   10.70
   8   8  -3    8.00    4.70
   8   8  -3   10.40    5.90
  10   9  -2   -2.30    6.20
  10   9  -2   -1.20    4.60
  10   9  -2    8.10    5.50
 -11  -1 -13    0.00    4.90
  -9   0 -12    1.50    4.10
   9   0  12    4.50    4.50
  -7   1 -11   51.39    6.60
   7  -1  11   31.00    5.70
  -5   2 -10   31.40    4.40
  -5   2 -10   33.40    3.80
   5  -2  10   20.00    4.10
  -3   3  -9    3.50    2.40
  -3   3  -9   -1.40    2.80
   3  -3   9    4.50    2.30
   3  -3   9   -3.80    3.20
  -1   4  -8    9.20    2.80
  -1   4  -8    5.50    3.50
   1  -4   8    5.90    3.30
   1  -4   8    8.50    4.00
   1   5  -7   75.79    7.60
  -1  -5   7   74.09    9.10
  -1  -5   7   82.49    7.80
   3   6  -6   73.29    7.20
   3   6  -6   65.39    8.20
  -3  -6   6   62.19    7.30
  -3  -6   6   80.09    9.70
   5   7  -5   75.89   10.00
   5   7  -5   87.49    8.50
   5   7  -5   76.29    8.30
  -5  -7   5   91.29   11.40
   7   8  -4   65.89    7.70
   7   8  -4   72.29    9.60
  -7  -8   4   61.99   10.30
   9   9  -3   85.09   13.30
   9   9  -3   98.79   12.20
   9   9  -3  104.89   11.00
   9   9  -3   93.79   12.70
  11  10  -2   12.80    6.60
  11  10  -2    5.00    6.70
 -10   0 -13   10.20    5.10
  -8   1 -12    6.90    3.90
   8  -1  12   12.00    4.70
  -6   2 -11   13.80    3.90
   6  -2  11   17.30    4.10
  -4   3 -10   83.39    8.50
  -4   3 -10   88.39    8.70
   4  -3  10   90.99    8.70
  -2   4  -9   33.00    4.80
  -2   4  -9   37.50    5.30
   2  -4   9   51.49    6.40
   2  -4   9   32.80    4.80
   0   5  -8   82.99    8.30
   0  -5   8   74.69    8.20
   0  -5   8   99.09    9.70
   2   6  -7   62.29    8.00
   2   6  -7   59.89    6.60
  -2  -6   7   59.79    6.60
  -2  -6   7   69.79    9.30
   4   7  -6   14.50    5.20
   4   7  -6   19.00    4.00
  -4  -7   6    7.60    3.70
  -4  -7   6   16.40    6.40
   6   8  -5   61.79    9.50
   6   8  -5   68.99    8.20
   6   8  -5   54.69    7.50
  -6  -8   5   73.39   10.50
   8   9  -4    3.30    3.80
   8   9  -4    3.70    4.60
  10  10  -3   -1.00    5.30
  10  10  -3    4.20    5.70
  -9   1 -13   28.60    6.40
  -7   2 -12   37.50    6.10
   7  -2  12   34.80    6.70
  -5   3 -11   40.60    5.60
  -5   3 -11   31.60    5.00
  -5   3 -11   39.70    4.60
   5  -3  11   26.00    5.30
  -3   4 -10   60.09    7.10
  -3   4 -10   48.60    6.50
   3  -4  10   56.39    6.80
  -1   5  -9   15.40    4.60
  -1   5  -9   15.90    3.70
   1  -5   9   17.40    3.50
   1  -5   9   16.30    5.10
   1   6  -8    8.10    2.90
   1   6  -8    6.50    3.80
  -1  -6   8   10.10    5.10
  -1  -6   8    9.10    3.00
   3   7  -7   22.10    5.50
   3   7  -7   23.60    4.30
  -3  -7   7   24.90    4.30
  -3  -7   7   17.70    6.30
   5   8  -6   35.40    5.40
   5   8  -6   30.20    6.60
   5   8  -6   31.30    5.00
  -5  -8   6   26.00    8.20
   7   9  -5   28.10    5.50
   7   9  -5   23.20    7.00
   7   9  -5   15.40    4.60
   9  10  -4    4.70    4.90
   9  10  -4    8.10    6.40
  11  11  -3   -2.70    7.30
  11  11  -3    6.00    6.10
 -10   1 -14    3.80    5.30
  -8   2 -13    1.80    4.50
   8  -2  13   -1.10    4.00
  -6   3 -12   13.10    3.30
  -6   3 -12   18.60    3.30
  -6   3 -12   26.60    5.30
   6  -3  12   19.20    4.80
  -4   4 -11   43.30    6.30
  -4   4 -11   55.29    6.70
  -4   4 -11   41.40    6.00
   4  -4  11   49.30    6.60
  -2   5 -10    1.80    2.90
  -2   5 -10    1.90    3.40
   2  -5  10    2.20    2.80
   0   6  -9  165.28   15.50
   0   6  -9  162.28   14.80
   0  -6   9  152.58   14.70
   0  -6   9  171.58   16.10
   2   7  -8  149.59   14.50
   2   7  -8  161.98   15.60
  -2  -7   8  171.98   16.40
  -2  -7   8  158.58   14.70
   4   8  -7   49.40    6.40
   4   8  -7   46.70    8.10
  -4  -8   7   34.50    8.70
  -4  -8   7   50.19    6.80
   6   9  -6   77.39    9.40
   6   9  -6  102.59   13.00
   6   9  -6   84.29    9.50
  -6  -9   6   97.79   13.50
   8  10  -5   30.00    6.40
   8  10  -5   30.90    7.60
  10  11  -4    1.60    6.90
  -9   2 -14   28.10    6.70
  -7   3 -13   17.00    5.20
   7  -3  13   17.80    5.40
  -5   4 -12   50.59    6.50
  -5   4 -12   80.39    8.70
  -5   4 -12   47.30    6.90
   5  -4  12   53.49    7.20
  -3   5 -11  120.89   11.40
  -3   5 -11  122.59   11.60
  -3   5 -11  103.79   10.90
   3  -5  11  103.19   11.10
  -1   6 -10   36.60    5.90
  -1   6 -10   53.09    7.40
   1  -6  10   47.50    6.30
   1   7  -9    5.90    4.60
   1   7  -9   16.20    3.90
  -1  -7   9    3.90    5.70
  -1  -7   9    6.70    3.40
   3   8  -8   -5.40    3.20
   3   8  -8    6.50    4.80
  -3  -8   8    0.90    3.40
  -3  -8   8   -4.60    5.20
   5   9  -7    1.60    5.60
   5   9  -7    2.00    3.70
  -5  -9   7   -8.20    5.40
   7  10  -6    5.10    6.50
   7  10  -6   13.90    6.40
   7  10  -6    2.30    4.70
   7  10  -6    0.40    5.60
   9  11  -5   -2.00    6.70
   9  11  -5    6.80    5.40
  -8   3 -14    3.10    4.90
  -6   4 -13   13.80    4.80
  -6   4 -13   10.90    3.60
  -6   4 -13   14.30    4.30
   6  -4  13   10.90    4.80
  -4   5 -12  104.19   10.80
  -4   5 -12  100.89   10.30
  -4   5 -12   90.59   10.20
   4  -5  12  103.59   11.00
  -2   6 -11   33.70    5.90
  -2   6 -11   27.60    5.30
  -2   6 -11   33.40    6.10
   2  -6  11   35.10    5.90
   0   7 -10   81.09    8.90
   0   7 -10   71.39    9.90
   0  -7  10   65.19    8.40
   2   8  -9  204.88   18.90
   2   8  -9  187.88   18.20
  -2  -8   9  171.38   17.60
  -2  -8   9  220.38   19.90
   4   9  -8   35.10    6.30
  -4  -9   8   20.30    6.20
  -4  -9   8   25.70    8.10
   6  10  -7    7.30    4.20
   6  10  -7   12.70    7.10
   6  10  -7   14.10    4.80
   6  10  -7   16.00    6.90
   8  11  -6    8.10    7.00
   8  11  -6   -0.40    5.10
  10  12  -5    0.40    7.60
  10  12  -5   -0.50    5.90
  -7   4 -14    0.40    4.30
  -5   5 -13   23.80    5.40
  -5   5 -13   26.10    5.60
   5  -5  13   27.10    6.10
  -3   6 -12   15.00    5.10
  -3   6 -12   27.60    5.20
  -3   6 -12   11.80    5.20
   3  -6  12   18.90    6.10
  -1   7 -11   24.10    6.50
  -1   7 -11   39.40    6.10
  -1   7 -11   46.40    7.40
   1  -7  11   36.20    6.10
   1   8 -10    1.30    3.90
   1   8 -10    1.40    5.10
  -1  -8  10    4.80    3.70
   3   9  -9   14.10    6.10
   3   9  -9   10.40    4.10
  -3  -9   9    9.90    4.20
   5  10  -8   12.40    4.80
   5  10  -8    4.10    6.10
   7  11  -7   22.60    6.10
   7  11  -7   26.20    8.80
   9  12  -6    9.50    7.50
   9  12  -6   14.20    6.30
  -8   4 -15    0.50    5.00
  -6   5 -14   -2.80    3.30
  -6   5 -14    0.70    3.50
  -6   5 -14   -1.00    4.20
  -4   6 -13    7.60    4.60
  -4   6 -13   -0.10    3.90
  -4   6 -13    4.30    4.10
   4  -6  13    4.40    4.70
  -2   7 -12   60.79    9.00
  -2   7 -12   57.29    8.10
  -2   7 -12   61.09    8.80
   2  -7  12   61.79    8.40
   0   8 -11    2.80    3.90
   0   8 -11    0.60    4.70
   0   8 -11    6.20    5.50
   0  -8  11    5.40    4.30
   2   9 -10    7.90    5.80
   2   9 -10   16.00    6.20
   2   9 -10   12.50    4.50
   4  10  -9   10.10    4.80
   4  10  -9   14.00    6.40
   6  11  -8    6.50    4.80
   6  11  -8   16.10    7.50
   8  12  -7   14.40    9.70
  -7   5 -15   27.30    4.90
  -7   5 -15   40.80    7.00
  -5   6 -14   53.19    8.00
  -5   6 -14   47.40    7.50
  -5   6 -14   43.50    7.00
  -3   7 -13   62.69    9.30
  -3   7 -13   57.09    8.40
  -3   7 -13   61.59    9.20
  -1   8 -12   91.79   11.20
  -1   8 -12   98.39   12.10
   1  -8  12   99.29   11.60
   1   9 -11   16.90    6.50
   1   9 -11   15.20    5.20
   1   9 -11   30.30    6.80
   3  10 -10   -4.10    4.10
   3  10 -10   -1.70    5.80
   5  11  -9    2.30    4.60
   5  11  -9   -0.10    6.50
  -6   6 -15    1.20    4.10
  -6   6 -15    1.90    4.40
  -6   6 -15   -2.50    4.30
  -4   7 -14    1.40    4.50
  -4   7 -14    0.20    4.40
  -4   7 -14   -2.50    4.60
  -2   8 -13    9.10    5.00
  -2   8 -13    6.60    4.70
   0   9 -12   11.60    6.30
   0   9 -12   11.20    5.60
   0   9 -12   14.30    5.20
   2  10 -11   18.90    5.90
   2  10 -11   19.00    6.90
   4  11 -10   83.69   10.10
   4  11 -10   64.29   12.10
   8  13  -8   20.00    7.10
  -7   6 -16    0.50    3.60
  -5   7 -15   23.20    6.10
  -5   7 -15   15.10    5.90
  -5   7 -15   12.70    5.90
  -3   8 -14    4.70    5.70
  -3   8 -14    4.60    4.70
  -3   8 -14    6.00    5.20
  -1   9 -13   16.40    5.50
  -1   9 -13   12.20    7.10
  -1   9 -13   21.00    6.90
   1  10 -12   37.30    8.70
   1  10 -12   38.30    7.20
   3  11 -11   10.50    5.20
   3  11 -11    7.10    7.30
   7  13  -9    1.20    5.40
  -6   7 -16    6.40    4.90
  -6   7 -16    0.20    4.90
  -6   7 -16   -0.90    4.80
  -4   8 -15    5.50    5.60
  -4   8 -15   -0.30    6.00
  -2   9 -14   -0.20    4.60
  -2   9 -14    4.30    4.70
  -2   9 -14    0.10    5.50
   0  10 -13    8.20    6.00
   0  10 -13    2.00    4.90
   2  11 -12   42.20   10.10
   2  11 -12   62.29    8.90
   6  13 -10   -1.30    5.20
   6  13 -10   14.20   11.10
  -5   8 -16    8.80    5.50
  -5   8 -16   10.30    6.70
  -3   9 -15    3.40    5.60
  -3   9 -15    2.30    5.60
  -1  10 -14    5.30    6.20
   1  11 -13   14.30    7.70
   3  12 -12   -4.70    6.70
   3  12 -12    0.10    6.00
   5  13 -11    6.90    6.20
  -2  10 -15   -3.50    5.50
  -2  10 -15    0.60    5.50
   0  11 -14   -1.20    6.90
   0  11 -14    0.60    5.30
   2  12 -13    7.20    5.70
   2  12 -13    1.70    7.20
  -1  11 -15   29.50    9.30
   1  12 -14   13.80    9.80
   1  14  -9   20.20    6.80
  -1  13 -10    4.40    5.80
   4  15  -7    1.70    5.60
   2  14  -8    3.20    5.10
   0  13  -9   11.60    6.60
   0  13  -9   10.40    5.60
  -2  12 -10   18.90    6.60
  -2  12 -10   21.80    8.80
  -4  11 -11   15.80    7.70
   5  15  -6    1.70    5.00
   3  14  -7   -3.40    6.00
   1  13  -8    1.80    4.80
   1  13  -8   -1.10    5.40
  -1  12  -9    0.30    5.60
  -1  12  -9    4.70    5.80
  -3  11 -10    4.80    5.90
  -3  11 -10   16.10    5.70
  -5  10 -11   13.50    7.10
  -5  10 -11    7.80    6.00
  -5  10 -11   19.80    6.70
   6  15  -5   28.70    6.90
   6  15  -5   39.90   10.40
   4  14  -6   17.70    5.80
   2  13  -7   12.80    6.30
   2  13  -7    7.30    5.10
   0  12  -8    7.70    5.90
   0  12  -8    4.30    4.80
  -2  11  -9    3.60    4.90
  -2  11  -9   -0.20    5.00
  -4  10 -10    0.90    5.20
  -4  10 -10   -0.30    5.30
  -6   9 -11   10.70    5.90
  -6   9 -11    8.30    5.60
  -6   9 -11    6.40    5.30
   7  15  -4    3.00    7.50
   5  14  -5    5.40    4.70
   3  13  -6   44.60    7.50
   3  13  -6   34.30    8.60
   1  12  -7  130.29   14.70
   1  12  -7  120.39   13.30
  -1  11  -8   44.50    9.10
  -1  11  -8   53.29    8.30
  -1  11  -8   46.20    8.80
  -3  10  -9   18.20    6.10
  -3  10  -9   11.70    5.20
  -5   9 -10   48.70    8.30
  -5   9 -10   42.20    8.40
  -7   8 -11   -0.40    4.00
  -7   8 -11    3.70    5.40
  -7   8 -11    5.60    4.70
   8  15  -3    1.10    4.70
   6  14  -4    9.00    5.00
   4  13  -5    1.50    6.00
   4  13  -5    4.50    4.60
   2  12  -6    4.20    5.60
   2  12  -6    2.10    4.10
   0  11  -7   11.30    5.90
   0  11  -7    7.50    4.80
   0  11  -7    9.10    4.20
  -2  10  -8   30.20    8.10
  -2  10  -8   20.00    6.40
  -2  10  -8   26.10    5.90
  -4   9  -9   11.50    5.00
  -4   9  -9    1.30    4.20
  -4   9  -9    3.40    5.10
  -6   8 -10   14.80    4.90
  -6   8 -10   20.10    5.50
  -8   7 -11   12.30    3.90
   7  14  -3   13.80    5.10
   5  13  -4   19.30    6.90
   5  13  -4   19.40    5.70
  -3 -12   5    7.10    4.30
   3  12  -5    8.50    4.20
   3  12  -5    7.20    5.90
  -1 -11   6   71.49    9.00
   1  11  -6   95.59   11.40
   1  11  -6   69.89    9.10
   1  11  -6  104.49   11.20
   1 -10   7   78.99    9.90
  -1  10  -7  101.59   13.30
  -1  10  -7  106.19   12.40
  -1  10  -7   72.69    9.30
  -3   9  -8    1.40    4.40
  -3   9  -8    4.20    4.30
  -3   9  -8    0.10    4.60
  -5   8  -9    4.50    4.50
  -5   8  -9    9.60    4.90
  -5   8  -9   10.20    4.90
  -7   7 -10    7.90    3.80
   8  14  -2    7.90    4.50
   6  13  -3    7.40    4.20
   6  13  -3    9.10    6.50
   6  13  -3    6.30    4.10
  -4 -12   4   14.10    5.10
   4  12  -4   16.00    6.90
   4  12  -4   16.70    4.50
   2  11  -5   75.39    9.00
   2  11  -5   92.29   11.90
   2  11  -5   66.29   10.80
   0  10  -6   -2.10    3.60
   0  10  -6   -0.20    4.70
   2  -9   7   -0.20    3.30
  -2   9  -7   -0.80    3.80
  -2   9  -7    4.00    4.70
  -2   9  -7    6.20    4.00
  -4   8  -8   10.00    4.60
  -4   8  -8   17.60    5.40
  -4   8  -8   18.00    4.70
  -6   7  -9   37.90    7.00
  -6   7  -9   33.80    6.00
  -6   7  -9   41.90    7.00
  -8   6 -10   33.70    7.80
   9  14  -1   -1.70    5.90
   9  14  -1    6.40    4.80
   7  13  -2   13.40    6.40
   7  13  -2   -0.40    3.90
   7  13  -2    6.70    4.00
  -5 -12   3   15.30    5.30
   5  12  -3   21.70    4.80
   5  12  -3   28.50    8.00
  -3 -11   4   11.00    4.00
   3  11  -4   11.40    5.70
   3  11  -4    6.10    5.30
  -1 -10   5   33.80    6.40
   1  10  -5   74.89    8.30
   1  10  -5   50.59    7.00
   1  10  -5   64.59    9.10
   1  -9   6    6.10    3.50
  -1   9  -6   20.50    5.60
  -1   9  -6   18.10    5.10
   3  -8   7    1.00    2.40
  -3   8  -7    3.90    3.80
  -3   8  -7    3.10    4.40
  -3   8  -7    8.10    4.40
  -5   7  -8   20.80    5.00
  -5   7  -8   23.20    5.00
  -5   7  -8   24.30    5.60
  -7   6  -9   24.90    4.80
  -7   6  -9   27.00    6.10
  -7   6  -9   20.30    4.60
  -9   5 -10    6.10    5.00
  10  14   0   15.80    8.50
  10  14   0   14.40    5.40
   8  13  -1   36.30    6.30
   8  13  -1   28.50    7.70
   6  12  -2   60.89   10.70
   6  12  -2   60.99    7.90
   6  12  -2   64.19   10.80
   6  12  -2   59.29    9.10
  -4 -11   3   67.69    8.40
   4  11  -3   59.89   11.20
   4  11  -3   65.29    7.70
   4  11  -3   75.19   10.70
  -2 -10   4   21.50    4.70
   2  10  -4   35.60    5.20
   2  10  -4   26.80    6.50
   2  10  -4   22.00    6.60
   0  -9   5   61.69    7.10
   0   9  -5   60.49    7.20
   0   9  -5   72.89    9.30
   0   9  -5   70.59    8.60
   2  -8   6    6.10    3.20
  -2   8  -6    5.20    3.70
  -2   8  -6    6.40    4.20
  -2   8  -6   11.30    3.50
  -4   7  -7   31.90    5.70
  -4   7  -7   37.50    5.60
  -4   7  -7   33.10    6.00
  -6   6  -8    7.40    4.50
  -6   6  -8    0.40    3.10
  -6   6  -8    6.80    3.80
  -8   5  -9    6.70    4.90
 -10   4 -10    1.20    5.40
   9  13   0   -0.70    5.60
   9  13   0    0.10    4.00
   7  12  -1    4.80    5.80
   7  12  -1    6.80    6.80
   7  12  -1    8.30    4.00
   7  12  -1    5.00    3.80
  -5 -11   2   38.20    6.00
   5  11  -2   46.90    8.40
   5  11  -2   34.70    5.50
   5  11  -2   37.60    9.30
  -3 -10   3   86.59    8.90
   3  10  -3   80.29    8.60
   3  10  -3   97.89   11.80
   3  10  -3   82.49   10.30
  -1  -9   4   63.29    7.30
   1   9  -4   46.10    7.90
   1   9  -4   65.39    9.10
   1   9  -4   58.39    6.70
   1  -8   5  111.29   11.40
  -1   8  -5  127.39   12.40
  -1   8  -5  108.19   11.50
  -1   8  -5  148.39   12.90
   3  -7   6  168.18   15.40
  -3   7  -6  162.68   15.30
  -3   7  -6  164.28   16.00
  -3   7  -6  174.18   15.90
   5  -6   7   63.69    8.40
  -5   6  -7   66.89    8.30
  -5   6  -7   52.49    7.00
  -5   6  -7   73.49    8.50
  -7   5  -8   21.30    3.90
  -7   5  -8   22.90    3.90
  -7   5  -8   26.20    6.00
  -9   4  -9   14.70    6.00
  10  13   1    2.00    4.60
  10  13   1    4.70    6.00
   8  12   0   11.10    7.40
   8  12   0    6.40    4.10
   8  12   0   12.00    4.00
   8  12   0    6.30    5.60
   6  11  -1   49.80    6.60
   6  11  -1   43.30    6.00
   6  11  -1   45.20    8.40
   6  11  -1   30.80    9.90
  -4 -10   2    6.00    3.30
   4  10  -2   -0.70    4.20
   4  10  -2    4.50    3.00
   4  10  -2    3.30    5.00
  -2  -9   3   14.30    3.70
   2   9  -3   19.20    5.40
   2   9  -3   24.90    5.20
   2   9  -3   23.40    4.00
   0  -8   4   18.50    3.60
   0   8  -4   23.30    4.30
   0   8  -4   16.20    4.80
   0   8  -4   24.20    3.80
   2  -7   5    6.10    2.70
  -2   7  -5    0.00    2.90
  -2   7  -5   -2.80    3.30
  -2   7  -5    4.80    3.00
   4  -6   6   10.20    3.20
  -4   6  -6    1.80    2.80
  -4   6  -6    3.70    3.00
  -4   6  -6    1.60    3.40
   6  -5   7   34.80    6.00
  -6   5  -7   43.40    5.90
  -6   5  -7   43.80    6.70
  -8   4  -8   17.30    5.00
 -10   3  -9    6.50    5.90
  11  13   2    7.20    4.90
  11  13   2    6.10    7.10
   9  12   1   21.80    5.30
   9  12   1   17.70    5.00
   9  12   1   13.80    6.00
   7  11   0   14.30    3.90
   7  11   0   16.60    7.60
   7  11   0   10.70    5.80
   7  11   0   14.50    4.00
   5  10  -1   53.69    8.10
   5  10  -1   25.50    6.30
   5  10  -1   34.20    5.00
  -3  -9   2  121.79   11.60
   3   9  -2  116.99   12.90
   3   9  -2  123.69   11.60
   3   9  -2  138.69   13.00
  -1  -8   3   42.40    5.50
   1   8  -3   49.90    7.10
   1   8  -3   52.79    6.30
   1   8  -3   64.19    7.90
   1  -7   4   53.69    6.00
  -1   7  -4   54.59    6.10
  -1   7  -4   64.39    7.60
  -1   7  -4   54.49    6.70
   3  -6   5   46.10    6.20
  -3   6  -5   57.49    7.00
  -3   6  -5   61.29    6.70
  -3   6  -5   67.49    7.10
   5  -5   6   28.60    5.20
  -5   5  -6   33.20    5.10
  -5   5  -6   30.20    5.20
  -5   5  -6   35.80    5.40
   7  -4   7    7.70    4.20
  -7   4  -7    8.20    2.60
  -7   4  -7   10.90    4.60
  -7   4  -7   11.40    2.80
  -9   3  -8    4.50    5.00
 -11   2  -9   16.40    6.40
  10  12   2    3.80    4.00
  10  12   2    6.90    6.30
  10  12   2    6.50    4.60
   8  11   1   -2.70    5.80
   8  11   1    4.80    3.40
   8  11   1   -0.50    4.70
   6  10   0   55.09    6.50
   6  10   0   54.79    9.20
   6  10   0   56.99    9.00
   6  10   0   60.99    6.90
  -4  -9   1   86.89    8.70
   4   9  -1   72.79    9.90
   4   9  -1   93.79    8.50
   4   9  -1   84.49    9.90
  -2  -8   2   44.10    5.40
   2   8  -2   51.49    7.10
   2   8  -2   51.69    7.40
   2   8  -2   45.70    5.30
   0  -7   3  123.19   10.50
   0   7  -3  114.09   10.60
   0   7  -3  108.29   11.10
   0   7  -3  106.69   11.60
   2  -6   4   73.19    7.00
  -2   6  -4   72.89    7.10
  -2   6  -4   69.59    7.60
  -2   6  -4   59.49    7.90
   4  -5   5    3.80    2.60
  -4   5  -5    4.10    2.90
  -4   5  -5    7.20    3.40
  -4   5  -5    4.50    2.60
   6  -4   6   12.50    3.70
  -6   4  -6    6.30    2.90
  -6   4  -6   12.60    4.40
  -6   4  -6    3.10    2.40
   8  -3   7    5.80    3.70
  -8   3  -7    2.40    4.40
 -10   2  -8   -2.60    4.50
  11  12   3    8.00    4.50
   9  11   2   10.10    6.90
   9  11   2    7.90    4.10
   9  11   2    8.20    3.80
   9  11   2   12.90    5.20
   7  10   1   17.90    3.80
   7  10   1    7.80    5.50
   7  10   1   13.20    5.10
   7  10   1    8.70    3.20
   5   9   0   35.60    4.90
   5   9   0   27.00    6.10
   5   9   0   32.70    6.80
   5   9   0   36.90    4.70
   3   8  -1  101.29   10.70
   3   8  -1  103.59   10.40
   3   8  -1   94.49    9.20
  -1  -7   2    4.70    2.20
   1   7  -2    6.50    4.30
   1   7  -2    8.00    3.10
   1   7  -2   10.70    2.50
   1  -6   3   53.59    7.00
  -1   6  -3   39.00    4.70
  -1   6  -3   43.00    5.70
   3  -5   4   16.80    3.00
  -3   5  -4    8.10    3.00
   5  -4   5  265.77   24.30
  -5   4  -5  265.17   24.30
  -5   4  -5  279.87   23.90
  -5   4  -5  296.07   24.30
   7  -3   6   51.19    7.30
  -7   3  -6   61.89    7.80
  -9   2  -7   12.30    5.00
  10  11   3   11.40    4.50
  10  11   3   13.80    4.40
  10  11   3   12.20    5.60
  10  11   3   14.40    7.40
   8  10   2   54.39    8.40
   8  10   2   55.09    7.00
   8  10   2   52.59    9.30
   8  10   2   62.99    7.50
   6   9   1  268.47   23.30
   6   9   1  243.78   23.30
   6   9   1  244.78   21.60
   6   9   1  241.68   21.70
  -4  -8   0  117.29   11.10
   4   8   0  123.89   10.80
   4   8   0  115.99   11.90
   4   8   0  114.09   12.20
  -2  -7   1  375.66   32.40
   2   7  -1  368.56   33.00
   2   7  -1  393.96   32.30
   0  -6   2  376.16   31.10
   0  -6   2  346.37   30.40
   0   6  -2  357.26   30.50
   0   6  -2  353.36   30.90
   2  -5   3   50.09    6.30
   2  -5   3   55.49    6.20
  -2   5  -3   65.39    7.50
  -2   5  -3   55.09    5.70
   4  -4   4    5.90    2.80
   4  -4   4   11.60    2.90
  -4   4  -4    9.40    2.40
  -4   4  -4    5.60    2.60
   6  -3   5   72.49    7.30
  -6   3  -5   69.49    7.60
  -6   3  -5   65.79    6.50
   8  -2   6    9.10    3.90
  -8   2  -6   10.40    4.30
 -10   1  -7   15.90    5.20
  11  11   4   11.70    7.20
  11  11   4    1.00    5.20
  11  11   4   -1.70    4.00
  11  11   4    0.20    3.70
   9  10   3   -0.20    3.30
   9  10   3    3.00    4.40
   9  10   3    7.90    3.70
   9  10   3    8.50    5.50
   7   9   2   12.60    4.90
   7   9   2   20.20    6.10
   7   9   2   25.40    4.40
   7   9   2   23.20    4.10
   5   8   1    6.50    4.10
   5   8   1    8.10    2.80
   5   8   1    6.90    3.70
   5   8   1   12.00    2.90
  -3  -7   0   40.30    5.10
   3   7   0   57.89    5.00
   3   7   0   36.60    6.00
   3   7   0   45.10    8.30
  -1  -6   1  216.08   18.20
  -1  -6   1  187.88   17.50
   1   6  -1  223.48   18.10
   1   6  -1  189.98   17.50
   1  -5   2   68.79    6.80
   1  -5   2   62.79    7.70
  -1   5  -2   82.29    6.90
  -1   5  -2   61.69    9.40
   3  -4   3  373.26   31.80
  -3   4  -3  360.46   31.60
  -3   4  -3  376.16   31.60
   5  -3   4  163.68   14.00
   5  -3   4  148.49   14.10
  -5   3  -4  153.18   14.10
  -5   3  -4  156.18   13.60
   7  -2   5  103.09   10.60
  -7   2  -5  106.19   10.60
   9  -1   6   48.40    6.90
  -9   1  -6   46.90    7.30
 -11   0  -7   28.20    6.80
  12  11   5    4.70    4.30
  12  11   5    8.80    7.50
  10  10   4    8.10    6.00
  10  10   4   13.00    4.50
  10  10   4   13.00    4.30
  10  10   4    8.70    4.90
   8   9   3   39.60    5.40
   8   9   3   31.60    6.20
   8   9   3   34.70    5.30
   8   9   3   40.70    7.20
   6   8   2   24.20    4.40
   6   8   2   26.20    5.10
   6   8   2   24.80    5.60
   6   8   2   26.20    3.90
   4   7   1   48.80    5.50
   4   7   1   62.59    6.80
   4   7   1   65.59    8.30
  -2  -6   0    8.60    3.00
  -2  -6   0   11.60    2.80
   2   6   0   12.20    3.20
   2   6   0   14.10    2.40
   0  -5   1    8.90    2.10
   0  -5   1    4.80    2.80
   0   5  -1   11.90    2.20
   0   5  -1    3.10    2.50
   2  -4   2   13.30    2.60
   2  -4   2    9.90    2.70
  -2   4  -2   12.40    2.80
  -2   4  -2   11.40    2.50
   4  -3   3   41.80    4.60
   4  -3   3   33.00    4.50
  -4   3  -3   34.90    4.30
  -4   3  -3   59.79    5.60
   6  -2   4   29.70    3.90
   6  -2   4   36.40    5.00
  -6   2  -4   45.40    5.60
  -6   2  -4   39.10    4.10
   8  -1   5    3.00    3.40
  -8   1  -5   10.70    4.20
 -10   0  -6    8.90    4.90
 -12  -1  -7    1.40    5.30
  11  10   5   17.20    5.10
  11  10   5    8.50    5.20
  11  10   5   14.50    4.70
  11  10   5   16.80    6.10
   9   9   4   44.60    7.70
   9   9   4   41.10    6.10
   9   9   4   42.40    6.40
   9   9   4   40.90    6.90
   7   8   3  127.69   11.70
   7   8   3  135.19   12.00
   7   8   3  115.19   13.00
   7   8   3  129.89   12.70
   5   7   2   66.29    6.50
   5   7   2   74.59    6.60
   5   7   2   63.29    8.10
   5   7   2   57.09    7.40
  -3  -6  -1  102.79    9.50
   3   6   1  105.69   10.20
   3   6   1  106.89    9.40
  -1  -5   0    8.70    2.70
  -1  -5   0   16.40    2.30
   1   5   0    5.40    2.50
   1   5   0   16.70    2.20
   1  -4   1  344.77   28.40
   1  -4   1  322.67   28.00
  -1   4  -1  346.67   28.20
  -1   4  -1  307.97   27.90
   3  -3   2  179.08   15.40
   3  -3   2  172.58   15.40
  -3   3  -2  175.48   15.30
  -3   3  -2  177.58   15.40
   5  -2   3    6.00    2.90
   5  -2   3    6.60    2.00
  -5   2  -3    8.50    2.00
  -5   2  -3    4.80    2.60
   7  -1   4   50.49    6.60
  -7   1  -4   58.29    7.00
   9   0   5    3.60    3.70
  -9   0  -5    4.00    4.00
 -11  -1  -6   -3.10    4.00
  12  10   6    0.00    5.30
  12  10   6    6.50    4.40
  12  10   6    5.30    5.30
  10   9   5   29.80    6.50
  10   9   5   21.20    5.00
  10   9   5   34.10    6.40
  10   9   5   37.00    6.80
   8   8   4   25.30    4.50
   8   8   4   19.60    3.70
   8   8   4   15.10    5.20
   8   8   4    9.00    4.30
   6   7   3   92.79    8.20
   6   7   3   83.69    8.30
   6   7   3   81.59    9.20
   6   7   3   85.89    9.10
   4   6   2  257.37   22.80
   4   6   2  254.67   21.90
   4   6   2  257.37   22.60
   4   6   2  255.37   21.90
  -2  -5  -1  268.87   24.10
  -2  -5  -1  284.97   23.60
   2   5   1  264.67   24.00
   2   5   1  288.17   23.50
   0  -4   0  364.26   28.80
   0  -4   0  329.87   29.20
   0   4   0  345.77   28.80
   0   4   0  322.57   29.20
   2  -3   1  241.78   21.60
   2  -3   1  258.07   21.50
  -2   3  -1  247.78   21.50
  -2   3  -1  257.67   21.40
   4  -2   2  125.59   11.50
   4  -2   2  140.79   11.80
  -4   2  -2  135.49   11.80
  -4   2  -2  126.49   11.50
   6  -1   3  215.58   18.80
   6  -1   3  205.38   18.20
  -6   1  -3  220.98   18.90
  -6   1  -3  212.38   18.20
   8   0   4   11.10    3.60
  -8   0  -4   10.60    3.90
  10   1   5   -1.00    3.80
 -10  -1  -5    2.80    4.10
  11   9   6   38.30    6.40
  11   9   6   39.20    6.60
  11   9   6   44.10    6.50
  11   9   6   29.90    6.60
   9   8   5   29.10    4.80
   9   8   5   18.60    4.80
   9   8   5   18.80    5.40
   9   8   5   28.30    4.60
   7   7   4   48.80    6.70
   7   7   4   47.40    7.10
   7   7   4   53.29    6.40
   5   6   3  126.49   11.60
   5   6   3  109.89   10.30
   5   6   3  118.59   11.00
   5   6   3  115.09   11.40
  -3  -5  -2    5.10    2.70
   3   5   2    8.50    2.00
   3   5   2    4.50    2.50
  -1  -4  -1  100.39    8.20
  -1  -4  -1   85.99    8.90
   1   4   1   83.99    8.70
   1   4   1   98.39    8.20
   1  -3   0   40.60    4.80
   1  -3   0   45.50    4.20
  -1   3   0   39.20    4.60
  -1   3   0   41.50    4.20
   3  -2   1   44.20    4.80
   3  -2   1   48.70    5.00
  -3   2  -1   50.89    4.70
   5  -1   2    9.00    1.90
   5  -1   2   10.60    4.70
  -5   1  -2    6.80    2.90
  -5   1  -2   11.90    2.30
   7   0   3   48.60    5.50
   7   0   3   31.10    4.00
  -7   0  -3   48.80    5.80
  -7   0  -3   40.20    4.10
  -9  -1  -4   44.00    6.70
 -11  -2  -5   29.20    6.50
  12   9   7   -1.60    4.50
  12   9   7    6.50    4.70
  12   9   7    4.70    4.90
  12   9   7    1.90    4.20
  10   8   6    0.70    3.20
  10   8   6   -2.60    3.00
  10   8   6    3.90    4.10
  -8  -7  -5    2.10    2.60
   8   7   5   -1.70    2.50
   8   7   5    4.50    3.30
   8   7   5    1.80    3.90
   6   6   4  155.58   13.10
   6   6   4  145.49   13.50
   6   6   4  138.69   13.80
   4   5   3  239.98   20.10
   4   5   3  240.58   20.20
   4   5   3  224.98   20.50
  -2  -4  -2  150.88   13.00
  -2  -4  -2  151.08   13.60
   2   4   2  155.08   13.00
   2   4   2  148.09   13.50
   0   3   1  229.18   17.60
   0   3   1  182.28   17.90
   2  -2   0  249.48   21.50
   2  -2   0  252.07   21.40
  -2   2   0  255.27   21.50
  -2   2   0  250.87   21.40
   4  -1   1   76.29    7.50
   4  -1   1   82.99    7.80
  -4   1  -1   83.69    7.50
  -4   1  -1   88.79    7.80
   6   0   2   53.29    5.20
   6   0   2   56.59    5.80
  -6   0  -2   59.89    5.90
  -6   0  -2   47.10    5.30
   8   1   3   14.00    3.60
   8   1   3   15.00    2.60
  -8  -1  -3   18.20    4.20
  -8  -1  -3   10.50    2.90
  10   2   4    7.00    3.80
 -10  -2  -4    5.20    4.20
 -12  -3  -5   -1.00    4.30
 -11  -8  -7   15.80    4.10
  11   8   7   10.60    4.80
  11   8   7   12.90    4.40
  -9  -7  -6    5.20    3.00
   9   7   6    4.40    2.90
   9   7   6    8.50    4.20
   9   7   6    4.90    3.10
  -7  -6  -5   38.90    4.60
   7   6   5   32.50    5.40
   7   6   5   34.20    5.10
   7   6   5   34.80    4.50
  -5  -5  -4   14.70    2.50
   5   5   4   12.20    2.50
   5   5   4   16.90    3.80
   5   5   4   11.90    2.90
  -3  -4  -3  192.98   17.60
   3   4   3  203.08   17.20
   3   4   3  212.48   17.20
   3   4   3  197.18   17.50
  -1  -3  -2  131.09   11.50
  -1  -3  -2  136.59   11.00
   1   3   2  114.09   11.40
   1   3   2  129.69   10.90
   1  -2  -1  327.27   28.00
   1  -2  -1  330.47   28.10
  -1   2   1  325.87   28.10
  -1   2   1  343.17   28.00
   3  -1   0   58.09    6.00
   3  -1   0   64.99    6.00
  -3   1   0   63.69    6.10
  -3   1   0   67.19    6.00
   5   0   1   18.60    3.20
   5   0   1   21.70    3.00
  -5   0  -1   19.60    3.40
  -5   0  -1   22.00    3.20
   7   1   2  122.99   11.20
   7   1   2  121.19   10.70
  -7  -1  -2  113.49   11.30
  -7  -1  -2  120.49   10.80
   9   2   3   85.79    8.00
   9   2   3   91.29    9.20
  -9  -2  -3   74.79    9.30
 -11  -3  -4   15.70    5.30
 -12  -8  -8    8.70    4.20
  12   8   8   16.50    4.90
  12   8   8    3.30    3.80
 -10  -7  -7   23.70    4.60
  10   7   7   22.10    4.50
  10   7   7   22.10    4.50
  10   7   7   15.50    3.90
  -8  -6  -6   49.90    6.00
   8   6   6   53.09    7.70
   8   6   6   64.29    7.30
   8   6   6   53.09    5.90
  -6  -5  -5   12.60    2.30
   6   5   5    9.70    2.50
   6   5   5    5.40    3.30
   6   5   5   11.10    2.30
  -4  -4  -4  187.38   16.70
  -4  -4  -4  195.48   16.30
   4   4   4  197.28   16.30
   4   4   4  181.18   16.60
  -2  -3  -3  185.98   17.40
   2   3   3  188.48   17.30
   2   3   3  201.28   17.00
   2   3   3  225.48   17.10
   0  -2  -2  309.07   25.00
   0  -2  -2  307.97   24.80
   0   2   2  263.67   24.70
   0   2   2  302.47   25.00
   2  -1  -1   10.90    2.30
   2  -1  -1   13.80    2.50
  -2   1   1   16.80    2.40
  -2   1   1   10.30    2.20
   4   0   0   30.10    3.60
   4   0   0   35.00    4.00
  -4   0   0   29.80    3.80
  -4   0   0   33.00    3.90
   6   1   1   14.20    2.70
   6   1   1   12.10    2.90
  -6  -1  -1   12.70    2.80
  -6  -1  -1   18.50    3.30
   8   2   2   42.50    5.80
   8   2   2   38.30    4.80
  -8  -2  -2   39.90    5.40
  -8  -2  -2   51.79    6.30
  10   3   3   -0.50    3.30
  10   3   3    0.80    2.70
 -10  -3  -3    0.30    3.50
 -12  -4  -4    1.00    4.60
 -11  -7  -8   28.60    4.80
  11   7   8   20.00    4.00
  11   7   8   22.20    4.10
  -9  -6  -7   59.89    6.50
   9   6   7   53.49    6.40
   9   6   7   42.00    5.80
   9   6   7   48.40    6.20
  -7  -5  -6  135.79   12.20
   7   5   6  134.19   12.30
   7   5   6  135.69   12.20
   7   5   6  139.79   12.50
  -5  -4  -5  407.46   33.70
   5   4   5  393.36   33.80
   5   4   5  395.06   33.70
  -3  -3  -4   68.49    6.20
  -3  -3  -4   62.49    5.80
   3   3   4   67.79    6.10
   3   3   4   61.79    5.70
  -1  -2  -3  283.97   23.90
   1   2   3  279.57   23.90
   1  -1  -2   77.89    7.00
   1  -1  -2   69.69    6.70
  -1   1   2   80.49    6.80
  -1   1   2   78.69    7.00
   3   0  -1  179.58   15.50
   3   0  -1  178.08   15.60
  -3   0   1  190.08   15.60
  -3   0   1  174.58   15.60
   5   1   0    7.30    2.50
   5   1   0    8.00    2.20
  -5  -1   0    3.30    2.70
  -5  -1   0    1.60    2.40
   7   2   1    9.30    2.80
   7   2   1    3.10    2.60
  -7  -2  -1    8.50    3.40
  -7  -2  -1   12.00    3.30
   9   3   2    6.10    3.40
   9   3   2   -0.30    2.80
  11   4   3   39.50    5.10
 -11  -4  -3   19.70    5.70
 -12  -7  -9    1.00    3.70
  12   7   9    7.10    4.90
 -10  -6  -8    7.60    3.60
  10   6   8    2.10    2.50
  10   6   8    3.90    2.20
  10   6   8    6.00    3.10
  -8  -5  -7   30.10    4.20
   8   5   7   17.80    3.70
   8   5   7   16.60    3.10
   8   5   7   24.30    3.80
  -6  -4  -6   33.70    4.10
   6   4   6   42.50    4.60
   6   4   6   34.50    3.90
   6   4   6   32.70    3.90
  -4  -3  -5   14.60    2.20
  -4  -3  -5    7.80    2.10
   4   3   5   10.30    2.00
   4   3   5   11.50    1.90
  -2  -2  -4    4.50    1.10
  -2  -2  -4    4.70    2.00
   2   2   4    4.30    1.20
   2   2   4    5.80    1.80
   0  -1  -3  571.24   48.80
   0  -1  -3  609.54   48.70
   0   1   3  542.55   48.80
   0   1   3  603.74   48.70
   2   0  -2  834.82   69.79
   2   0  -2  866.61   69.79
  -2   0   2  823.32   69.79
  -2   0   2  804.12   69.69
   4   1  -1  411.46   35.20
   4   1  -1  423.06   35.30
  -4  -1   1  431.16   35.40
  -4  -1   1  402.46   35.30
   6   2   0  187.28   16.90
   6   2   0  196.78   17.10
  -6  -2   0  195.78   17.20
  -6  -2   0  195.18   17.10
   8   3   1   46.30    5.80
   8   3   1   54.39    6.30
  -8  -3  -1   57.39    6.20
  10   4   2   14.10    4.30
  10   4   2   22.80    5.00
 -10  -4  -2   18.70    4.80
  12   5   3    4.20    4.40
  12   5   3    1.10    4.00
 -12  -5  -3    4.90    4.70
 -11  -6  -9   42.70    6.30
  -9  -5  -8   30.60    4.90
   9   5   8   39.90    5.30
   9   5   8   29.20    3.50
  -7  -4  -7   68.09    6.50
   7   4   7   64.39    6.30
   7   4   7   68.49    6.30
   7   4   7   56.69    5.80
  -5  -3  -6  138.09   11.90
   5   3   6  131.09   11.70
   5   3   6  138.39   11.80
  -3  -2  -5  140.29   11.10
  -3  -2  -5  126.99   11.20
   3   2   5  120.49   11.10
   3   2   5  128.09   11.00
  -1  -1  -4  436.46   34.90
  -1  -1  -4  406.36   35.20
   1   1   4  423.56   35.00
   1   1   4  402.56   35.10
   1   0  -3   20.60    2.90
   1   0  -3   15.10    2.30
  -1   0   3   10.50    2.70
  -1   0   3   15.80    2.20
   3   1  -2   38.30    4.20
   3   1  -2   36.50    4.50
  -3  -1   2   32.90    4.10
  -3  -1   2   47.90    5.00
   5   2  -1  105.49    9.70
   5   2  -1  107.19    9.80
  -5  -2   1  104.49    9.80
  -5  -2   1  100.19    9.70
   7   3   0   84.39    8.60
   7   3   0   79.89    8.50
  -7  -3   0   91.09    8.70
  -7  -3   0  108.19   10.10
   9   4   1   37.00    5.80
   9   4   1   42.30    5.40
  -9  -4  -1   27.50    5.80
  11   5   2    5.80    3.80
 -11  -5  -2    2.00    4.20
 -12  -6 -10    5.80    4.10
 -10  -5  -9   -1.80    2.80
  10   5   9    0.30    3.40
  -8  -4  -8   17.70    3.70
   8   4   8    9.70    3.10
  -6  -3  -7   15.90    3.10
   6   3   7   18.40    2.90
  -4  -2  -6   15.00    2.20
  -4  -2  -6   20.70    2.70
   4   2   6   15.40    2.40
  -2  -1  -5 1040.70   83.79
  -2  -1  -5  956.90   83.89
   2   1   5 1042.30   83.79
   2   1   5  969.40   83.89
   0   0  -4    9.30    2.00
   0   0  -4   13.50    2.60
   0   0   4   13.80    2.60
   0   0   4    7.40    1.90
   2   1  -3  391.66   33.70
   2   1  -3  417.36   33.90
  -2  -1   3  390.06   33.90
  -2  -1   3  397.76   33.70
   4   2  -2  572.24   46.80
   4   2  -2  552.64   46.80
  -4  -2   2  529.25   46.70
  -4  -2   2  560.34   46.90
   6   3  -1  109.49   10.40
   6   3  -1  114.09   10.50
  -6  -3   1  101.89   10.90
  -6  -3   1  118.99   10.40
   8   4   0   41.60    5.80
   8   4   0   39.60    6.00
  -8  -4   0   50.79    6.90
  -8  -4   0   44.60    5.80
  10   5   1   23.90    5.90
  10   5   1   42.20    6.30
 -10  -5  -1   44.00    6.50
  12   6   2    3.60    4.60
  12   6   2   -6.40    5.00
 -12  -6  -2    6.30    4.60
 -11  -5 -10   -0.80    3.30
  11   5  10    2.40    3.70
  -9  -4  -9   18.50    4.10
   9   4   9   14.00    3.90
  -7  -3  -8   59.69    6.30
  -5  -2  -7  277.77   23.70
   5   2   7  275.47   23.60
  -3  -1  -6   15.10    2.20
  -3  -1  -6   21.50    2.50
   3   1   6   23.40    2.60
   3   1   6   17.10    2.30
  -1   0  -5   76.69    6.40
  -1   0  -5   71.59    6.70
   1   0   5   66.09    6.40
   1   0   5   65.49    6.90
   1   1  -4  687.23   58.59
   1   1  -4  732.53   58.39
  -1  -1   4  666.43   58.59
   3   2  -3   57.79    6.10
   3   2  -3   63.39    5.70
  -3  -2   3   52.59    5.50
  -3  -2   3   50.29    6.20
   5   3  -2   39.70    4.90
   5   3  -2   29.80    4.90
  -5  -3   2   44.60    4.60
  -5  -3   2   34.90    5.90
   7   4  -1   18.80    4.00
   7   4  -1   17.00    4.00
  -7  -4   1   28.30    5.10
  -7  -4   1   17.00    3.80
   9   5   0  112.19   10.90
   9   5   0  108.99   10.80
  -9  -5   0   96.29   11.40
  -9  -5   0  104.19   10.70
  11   6   1   13.50    5.00
  11   6   1   13.60    5.10
 -11  -6  -1   12.30    4.80
 -12  -5 -11   39.20    6.60
 -10  -4 -10   17.40    4.60
  10   4  10   17.20    4.50
  -8  -3  -9   16.40    3.90
   8   3   9   11.30    3.50
  -6  -2  -8   39.90    4.90
   6   2   8   34.60    4.60
  -4  -1  -7   35.50    3.70
  -4  -1  -7   49.40    4.30
   4   1   7   37.50    3.90
   4   1   7   43.00    4.20
  -2   0  -6  123.79   11.10
  -2   0  -6  141.09   11.00
   2   0   6  118.29   11.20
   2   0   6  126.69   11.10
   0   1  -5  430.86   35.50
   0   1  -5  425.46   35.80
   0  -1   5  435.06   35.60
   0  -1   5  394.76   35.80
   2   2  -4    3.90    2.80
   2   2  -4    5.90    2.10
   2   2  -4   -0.30    1.80
  -2  -2   4    0.40    3.00
   4   3  -3   14.50    3.20
   4   3  -3   16.90    3.80
  -4  -3   3   12.50    4.30
  -4  -3   3   20.20    3.30
   6   4  -2   62.59    7.00
   6   4  -2   64.89    6.60
  -6  -4   2   64.09    7.70
  -6  -4   2   56.49    6.40
   8   5  -1    2.70    3.40
   8   5  -1   -1.70    3.50
  -8  -5   1   -0.10    4.50
  -8  -5   1    1.00    3.20
  10   6   0   -2.80    4.30
  10   6   0    6.10    4.10
 -10  -6   0    0.70    3.80
  12   7   1    2.10    5.70
  12   7   1   18.10    5.90
 -12  -7  -1   20.80    5.90
 -11  -4 -11   26.40    5.60
  11   4  11   20.80    5.40
  -9  -3 -10   67.59    7.90
   9   3  10   76.09    8.70
  -7  -2  -9   85.19    8.40
   7   2   9   83.99    8.30
  -5  -1  -8  588.34   48.60
   5   1   8  561.84   48.50
  -3   0  -7  379.46   31.30
  -3   0  -7  379.76   31.40
   3   0   7  335.97   31.40
   3   0   7  392.56   31.40
  -1   1  -6   33.20    4.10
  -1   1  -6   26.60    3.40
   1  -1   6   32.30    3.60
   1  -1   6   32.00    4.20
   1   2  -5  957.90   77.69
   1   2  -5  941.91   77.49
  -1  -2   5  871.21   77.49
  -1  -2   5  924.61   77.69
   3   3  -4   23.20    3.30
   3   3  -4   23.50    4.20
   3   3  -4   20.70    3.40
  -3  -3   4   23.90    4.70
   5   4  -3    9.70    3.70
   5   4  -3   13.60    3.20
  -5  -4   3   10.10    4.40
   7   5  -2    4.30    3.00
   7   5  -2    2.00    3.60
  -7  -5   2    7.90    3.00
  -7  -5   2    6.10    4.40
   9   6  -1    4.40    4.30
  -9  -6   1    9.40    4.20
  -9  -6   1    1.10    5.10
  11   7   0    5.40    5.20
  11   7   0    0.80    5.20
 -11  -7   0    8.70    4.60
 -12  -4 -12   -1.40    4.40
 -10  -3 -11   16.00    4.70
  10   3  11   10.80    4.80
  -8  -2 -10   21.30    4.10
   8   2  10   13.20    3.90
  -6  -1  -9    4.00    2.60
  -4   0  -8   11.60    2.40
  -4   0  -8    6.90    1.70
   4   0   8    4.60    2.10
   4   0   8   10.30    2.40
  -2   1  -7    7.40    2.40
  -2   1  -7    6.50    2.00
   2  -1   7    9.30    2.60
   2  -1   7   12.50    2.20
   0   2  -6  707.13   56.99
   0   2  -6  690.73   57.19
   0  -2   6  677.83   56.99
   0  -2   6  635.94   57.19
   2   3  -5   84.49    8.10
   2   3  -5   78.19    8.30
  -2  -3   5   70.69    8.80
  -2  -3   5   85.99    7.70
   4   4  -4  385.86   33.40
   4   4  -4  410.36   33.90
   4   4  -4  392.26   33.50
  -4  -4   4  379.26   34.00
   6   5  -3   52.49    6.40
   6   5  -3   59.69    7.20
   6   5  -3   60.39    7.60
  -6  -5   3   65.09    8.30
   8   6  -2   55.29    7.40
   8   6  -2   45.80    6.60
  -8  -6   2   50.09    8.30
  10   7  -1   79.79   10.90
  10   7  -1   73.79    9.70
  12   8   0    5.00    6.40
  12   8   0   10.90    5.70
 -11  -3 -12   -0.80    3.80
  11   3  12    2.20    4.70
  -9  -2 -11   72.49    8.40
   9   2  11   77.49    8.50
  -7  -1 -10   29.80    4.90
   7   1  10   24.60    4.40
  -5   0  -9  129.89   11.40
   5   0   9  121.39   11.40
  -3   1  -8  235.38   18.20
  -3   1  -8  202.08   18.10
   3  -1   8  201.48   18.10
   3  -1   8  204.48   18.30
  -1   2  -7   36.40    4.80
  -1   2  -7   38.20    4.30
   1  -2   7   37.80    4.30
   1  -2   7   28.50    4.80
   1   3  -6    5.20    2.40
   1   3  -6    1.10    2.90
  -1  -3   6   -4.50    3.10
  -1  -3   6    3.20    2.10
   3   4  -5   16.90    3.10
   3   4  -5   14.80    3.20
   3   4  -5   15.50    4.10
  -3  -4   5    5.20    3.90
   5   5  -4    2.40    2.80
   5   5  -4    4.70    2.70
   5   5  -4   -2.70    3.80
  -5  -5   4   -1.60    4.20
   7   6  -3   -0.20    2.80
   7   6  -3   -5.50    3.70
   7   6  -3   -1.30    3.40
  -7  -6   3    3.40    4.90
   9   7  -2    2.70    4.80
   9   7  -2   12.40    5.20
   9   7  -2    7.50    4.00
  -9  -7   2    7.70    5.40
  11   8  -1    6.30    6.30
  11   8  -1    5.10    5.00
  11   8  -1   13.40    6.50
 -10  -2 -12    8.50    4.40
  10   2  12    4.70    4.60
  -8  -1 -11   89.19    9.10
   8   1  11   78.49    9.00
  -6   0 -10  130.29   11.40
   6   0  10  111.39   11.20
  -4   1  -9   37.90    4.30
  -4   1  -9   42.30    5.00
   4  -1   9   44.00    4.90
   4  -1   9   33.00    4.70
  -2   2  -8    2.80    2.60
  -2   2  -8    7.00    2.40
   2  -2   8    7.00    2.30
   2  -2   8    1.40    2.90
   0   3  -7   37.90    4.60
   0   3  -7   37.90    5.40
   0  -3   7   38.50    4.50
   0  -3   7   35.50    5.80
   2   4  -6  238.88   21.60
   2   4  -6  277.27   22.20
  -2  -4   6  246.88   21.70
  -2  -4   6  238.88   22.30
   4   5  -5  197.08   17.00
   4   5  -5  193.28   16.90
   4   5  -5  193.08   17.60
  -4  -5   5  176.38   17.90
   6   6  -4    5.40    4.90
   6   6  -4   15.90    4.00
   6   6  -4   20.30    4.00
  -6  -6   4   25.20    6.30
   8   7  -3    4.30    4.50
   8   7  -3   -0.60    3.40
   8   7  -3    3.00    5.10
  -8  -7   3   -6.30    5.50
  10   8  -2    6.80    5.70
  10   8  -2    4.10    5.10
  10   8  -2    8.60    6.00
  12   9  -1    2.50    5.10
  12   9  -1  -13.40    6.50
  12   9  -1   -1.60    5.40
 -11  -2 -13    4.10    4.50
  -9  -1 -12    7.30    4.20
  -7   0 -11   -1.10    3.10
   7   0  11   -0.80    3.00
  -5   1 -10   28.50    4.20
  -5   1 -10   23.00    3.30
   5  -1  10   26.30    4.00
  -3   2  -9   25.60    3.70
  -3   2  -9   26.90    3.60
   3  -2   9   22.90    4.10
   3  -2   9   22.90    3.60
  -1   3  -8  138.59   12.70
  -1   3  -8  154.08   13.20
   1  -3   8  134.89   13.40
   1  -3   8  143.59   12.80
   1   4  -7  405.66   36.40
   1   4  -7  442.76   36.90
  -1  -4   7  425.66   36.50
  -1  -4   7  442.26   37.10
   3   5  -6   50.19    5.60
   3   5  -6   48.80    6.80
  -3  -5   6   47.10    7.40
  -3  -5   6   48.80    5.70
   5   6  -5   74.59    9.00
   5   6  -5   80.29    8.30
   5   6  -5   80.99    8.10
  -5  -6   5   84.29    9.90
   7   7  -4   32.50    6.50
   7   7  -4   30.50    5.70
   7   7  -4   21.50    4.90
  -7  -7   4   37.40    7.90
   9   8  -3   15.00    5.30
   9   8  -3    5.60    5.90
   9   8  -3   13.60    4.70
  11   9  -2    4.40    5.70
  11   9  -2    8.60    5.90
  11   9  -2    1.90    6.30
 -10  -1 -13   76.09    9.70
  10   1  13   67.29   10.10
  -8   0 -12   81.09    9.50
   8   0  12   58.59    8.50
  -6   1 -11   14.20    3.70
   6  -1  11    7.00    3.10
  -4   2 -10  107.49   10.00
  -4   2 -10  106.99    9.80
   4  -2  10  105.79   10.10
  -2   3  -9    3.90    2.40
  -2   3  -9    7.50    3.00
   2  -3   9   -1.20    3.00
   0   4  -8  178.28   17.20
   0   4  -8  199.58   16.70
   0  -4   8  185.58   17.50
   0  -4   8  191.78   17.20
   2   5  -7   25.00    3.80
   2   5  -7   20.40    5.00
  -2  -5   7   17.70    5.20
  -2  -5   7   16.20    3.60
   4   6  -6   16.90    3.60
   4   6  -6   13.90    3.40
   4   6  -6   12.80    4.80
  -4  -6   6   10.80    5.00
   6   7  -5    4.70    3.20
   6   7  -5   16.50    4.10
   6   7  -5   13.40    5.30
  -6  -7   5    4.60    5.10
   8   8  -4   74.79    9.00
   8   8  -4   78.59   10.90
   8   8  -4   89.49    9.60
  10   9  -3   16.90    7.30
  10   9  -3   24.00    6.50
  10   9  -3   13.20    5.90
 -11  -1 -14   -7.90    4.60
  -9   0 -13    8.90    5.20
   9   0  13   13.60    5.10
  -7   1 -12    5.80    4.10
   7  -1  12    6.20    3.80
  -5   2 -11   91.69    9.00
  -5   2 -11  102.49    9.60
   5  -2  11  101.39    9.70
  -3   3 -10  136.29   12.70
  -3   3 -10  146.09   12.80
   3  -3  10  143.19   13.30
   3  -3  10  134.59   12.80
  -1   4  -9   80.69    8.10
  -1   4  -9   88.69    8.80
   1  -4   9   76.29    9.00
   1  -4   9   84.89    8.10
   1   5  -8  501.85   41.00
   1   5  -8  452.65   40.30
  -1  -5   8  464.35   40.50
  -1  -5   8  482.75   41.30
   3   6  -7  166.48   16.30
   3   6  -7  192.78   17.20
  -3  -6   7  174.18   17.70
  -3  -6   7  197.48   16.60
   5   7  -6   11.10    5.60
   5   7  -6   16.90    4.10
   5   7  -6   12.80    3.90
  -5  -7   6   14.50    7.00
   7   8  -5   32.60    7.40
   7   8  -5   25.30    5.50
   9   9  -4    5.10    6.10
   9   9  -4   -0.10    4.70
  11  10  -3    2.40    6.40
  11  10  -3    3.20    5.60
 -10   0 -14   -3.40    4.60
  -8   1 -13   10.40    4.80
   8  -1  13   11.20    4.60
  -6   2 -12   18.90    4.50
   6  -2  12   26.00    4.90
  -4   3 -11   41.40    5.70
  -4   3 -11   58.99    6.70
   4  -3  11   58.09    6.60
  -2   4 -10    3.10    2.70
  -2   4 -10    8.50    3.60
   2  -4  10    4.20    3.90
   2  -4  10    6.20    2.80
   0   5  -9   55.69    7.30
   0   5  -9   57.99    6.60
   0  -5   9   57.79    8.00
   0  -5   9   47.90    6.30
   2   6  -8    0.80    2.60
   2   6  -8    4.00    3.90
  -2  -6   8   -1.90    4.60
  -2  -6   8    1.90    2.60
   4   7  -7   75.59    8.50
   4   7  -7   88.19   10.00
  -4  -7   7   88.49   11.80
   6   8  -6   14.80    5.70
   6   8  -6   10.50    4.30
   6   8  -6    6.30    3.70
   8   9  -5   55.49    8.00
   8   9  -5   67.59    9.20
   8   9  -5   67.69   10.30
  -8  -9   5   66.49   11.10
  10  10  -4   13.70    6.40
  10  10  -4   26.80    7.40
  -9   1 -14   -0.30    4.70
  -7   2 -13    3.80    4.30
   7  -2  13   -1.00    4.70
  -5   3 -12   10.20    4.00
  -5   3 -12    9.30    3.10
  -5   3 -12    7.70    3.10
   5  -3  12    2.00    3.40
  -3   4 -11   49.60    6.30
  -3   4 -11   57.79    7.00
   3  -4  11   65.59    7.30
  -1   5 -10   98.09    9.40
  -1   5 -10  101.19   10.10
   1  -5  10   85.09    9.40
   1  -5  10  106.29   11.00
   1   6  -9   23.40    4.90
   1   6  -9   15.20    3.60
  -1  -6   9   25.30    5.90
  -1  -6   9    7.50    3.40
   3   7  -8    4.10    3.10
   3   7  -8    3.50    4.60
  -3  -7   8    3.50    5.50
  -3  -7   8    2.30    3.10
   5   8  -7    7.90    3.60
   5   8  -7    5.70    5.30
   7   9  -6   25.20    6.20
   7   9  -6   43.30    8.80
   7   9  -6   36.80    6.10
  -7  -9   6   44.80    9.40
   9  10  -5   10.10    5.40
   9  10  -5    2.70    6.30
 -10   1 -15   36.40    7.80
  -8   2 -14   23.00    6.20
  -6   3 -13   33.20    5.60
  -6   3 -13    7.70    4.00
  -6   3 -13   15.40    3.60
  -4   4 -12   73.09    7.90
  -4   4 -12   72.19    8.30
  -4   4 -12   78.59    8.10
   4  -4  12   74.19    8.20
  -2   5 -11   43.30    6.30
  -2   5 -11   40.50    5.90
   2  -5  11   35.90    6.90
   2  -5  11   36.00    5.70
   0   6 -10   18.40    5.60
   0   6 -10   30.60    5.10
   0  -6  10   24.20    6.50
   0  -6  10   21.90    4.60
   2   7  -9    2.50    3.20
   2   7  -9    8.00    4.80
  -2  -7   9    4.70    3.10
  -2  -7   9   -1.20    5.30
   4   8  -8   10.90    5.50
  -4  -8   8   16.80    4.40
   6   9  -7   27.30    7.40
   6   9  -7   28.10    5.70
   6   9  -7   21.80    4.90
  -6  -9   7   30.70    8.90
   8  10  -6   20.40    5.70
   8  10  -6   14.80    7.80
  10  11  -5   -9.30    6.30
  10  11  -5    7.80    5.90
  -9   2 -15    3.20    4.70
  -7   3 -14   10.90    4.70
   7  -3  14   12.80    5.30
  -5   4 -13    5.60    3.90
  -5   4 -13    3.90    4.10
  -5   4 -13   13.80    3.70
  -3   5 -12   28.70    5.40
  -3   5 -12   28.00    5.30
  -3   5 -12   27.10    5.60
   3  -5  12   30.70    5.50
  -1   6 -11   31.40    5.80
  -1   6 -11   35.50    6.60
   1  -6  11   41.40    6.10
   1  -6  11   39.30    7.20
   1   7 -10   49.00    6.80
   1   7 -10   53.89    8.30
  -1  -7  10   53.79    7.00
  -1  -7  10   44.10    9.10
   3   8  -9  166.38   16.60
  -3  -8   9  156.88   15.20
   5   9  -8   60.59    8.00
   5   9  -8   70.09    7.90
  -5  -9   8   57.69   11.80
   7  10  -7   42.40    7.60
   9  11  -6   20.20    7.70
  -8   3 -15   51.49    8.20
  -6   4 -14   26.60    5.60
  -6   4 -14   20.50    4.50
   6  -4  14   35.20    6.50
  -4   5 -13   74.49   10.10
  -4   5 -13  104.09    9.50
  -4   5 -13   70.49    9.20
   4  -5  13  103.79   10.00
  -2   6 -12   58.69    8.20
  -2   6 -12   50.29    8.60
   2  -6  12   54.99    7.30
   0   7 -11   33.80    6.60
   0  -7  11   30.30    5.80
   0  -7  11   58.99    8.40
   2   8 -10    1.00    3.50
   2   8 -10   -9.90    4.50
  -2  -8  10    4.70    3.70
  -2  -8  10    2.60    6.60
   4   9  -9   -1.20    3.90
  -4  -9   9    3.90    3.40
  -4  -9   9   -3.00    6.80
   6  10  -8    5.70    4.60
  -6 -10   8   12.60    7.30
   8  11  -7    7.80    7.20
   8  11  -7   -1.10    5.10
  -7   4 -15    1.30    4.20
  -5   5 -14    7.80    4.30
  -5   5 -14    8.20    4.50
  -5   5 -14    9.20    4.20
   5  -5  14    9.90    5.10
  -3   6 -13   26.20    6.10
  -3   6 -13   32.50    6.00
  -3   6 -13   26.70    5.80
   3  -6  13   37.10    6.50
  -1   7 -12  180.38   17.00
  -1   7 -12  153.48   15.70
   1  -7  12  179.08   16.60
   1   8 -11   10.80    4.60
   1   8 -11    2.70    4.60
  -1  -8  11    8.10    4.50
  -1  -8  11    9.80    6.90
   3   9 -10   59.49    9.70
   3   9 -10   51.29    7.80
  -3  -9  10   77.09   11.80
   5  10  -9  155.38   16.00
  -5 -10   9  177.78   19.30
   7  11  -8    8.80    7.80
   7  11  -8    5.00    4.80
   9  12  -7    1.60    6.00
   9  12  -7   -0.60    7.30
  -6   5 -15    3.90    4.50
  -6   5 -15    2.50    4.10
  -4   6 -14   -0.80    4.20
  -4   6 -14   -1.80    3.90
  -4   6 -14    0.40    4.20
  -2   7 -13   15.00    5.70
  -2   7 -13   23.40    5.10
  -2   7 -13   16.80    6.10
   2  -7  13   13.40    5.20
   0   8 -12   48.80    7.10
   0   8 -12   47.50    8.10
   0   8 -12   37.40    7.90
   0  -8  12   36.90    6.80
   2   9 -11   11.70    5.90
   2   9 -11   12.90    5.00
   4  10 -10    5.50    4.60
   6  11  -9    5.20    5.30
   6  11  -9    8.10    7.00
   8  12  -8    4.40    5.60
   8  12  -8   11.00    8.60
  -7   5 -16   -4.80    3.30
  -5   6 -15   -2.80    4.00
  -5   6 -15    5.00    4.60
  -5   6 -15   -0.90    4.30
  -3   7 -14   -3.10    4.30
  -3   7 -14   -3.30    3.90
  -3   7 -14    0.80    4.40
  -1   8 -13   10.00    4.90
  -1   8 -13    8.20    5.70
   1   9 -12   15.00    5.40
   1   9 -12   22.60    6.50
   1   9 -12   19.90    6.80
   3  10 -11   -3.60    4.10
   3  10 -11    2.30    5.50
   5  11 -10    2.70    4.70
   5  11 -10    6.10    6.80
   7  12  -9   -5.20    7.80
   7  12  -9    3.10    5.50
  -6   6 -16   14.90    5.40
  -6   6 -16   13.30    5.30
  -4   7 -15   38.00    7.40
  -4   7 -15   46.40    7.50
  -4   7 -15   33.20    7.90
  -2   8 -14   32.20    7.80
  -2   8 -14   47.20    9.20
  -2   8 -14   38.50    6.70
   0   9 -13   78.19   11.70
   0   9 -13   63.69    9.50
   2  10 -12   35.30    8.30
   2  10 -12   33.90    7.20
   4  11 -11   -2.20    4.30
   4  11 -11    7.50    7.10
   6  12 -10    5.60    8.60
   6  12 -10   -3.90    4.90
  -5   7 -16    6.70    6.50
  -5   7 -16    5.10    5.10
  -5   7 -16    2.30    5.20
  -3   8 -15    9.90    5.70
  -3   8 -15    5.30    5.80
  -3   8 -15   11.30    5.20
  -1   9 -14    8.20    5.00
  -1   9 -14    9.40    6.00
   1  10 -13    8.40    6.80
   1  10 -13    6.40    5.30
   3  11 -12   19.30    5.80
   3  11 -12   21.50    8.30
   5  12 -11   17.20    6.10
   5  12 -11   28.80   11.60
  -4   8 -16   11.20    5.60
  -4   8 -16    8.50    6.30
  -4   8 -16    8.60    6.40
  -2   9 -15   20.30    7.00
   0  10 -14    7.90    5.50
   0  10 -14    5.00    6.50
   2  11 -13   11.70    7.90
   4  12 -12    8.20    5.50
   4  12 -12   14.90    8.50
  -3   9 -16    1.90    5.50
  -3   9 -16   -1.50    5.90
  -1  10 -15    2.80    4.90
  -1  10 -15    8.90    7.70
   1  11 -14    0.00    5.20
   1  11 -14    0.30    6.60
   3  12 -13   33.80    9.90
   3  12 -13   35.60    8.20
  -2  10 -16   12.60    7.60
  -2  10 -16    8.40    7.80
   0  11 -15    5.80    5.70
   2  12 -14   12.00    8.50
   0  14  -9   24.90    9.80
   3  15  -7    6.50    5.30
   3  15  -7   -1.40    6.90
   1  14  -8   19.80    7.90
   1  14  -8   11.60    6.00
  -1  13  -9   -1.00    5.90
  -1  13  -9    3.20    5.70
  -3  12 -10   11.00    7.30
   4  15  -6   22.00    6.70
   4  15  -6   13.40    9.10
   0  13  -8   15.10    7.10
  -2  12  -9   13.70    6.20
  -2  12  -9    8.60    6.20
  -4  11 -10   17.40    7.70
  -4  11 -10   23.80    6.80
   5  15  -5   15.30    8.10
   3  14  -6    0.30    4.30
   1  13  -7   10.40    5.30
   1  13  -7    3.60    5.70
  -1  12  -8   13.50    5.70
  -1  12  -8   21.90    7.20
  -3  11  -9   15.90    7.10
  -5  10 -10    8.30    5.60
  -5  10 -10   12.10    5.60
  -5  10 -10    8.90    6.50
   6  15  -4   16.30    9.00
   4  14  -5    0.70    4.30
   2  13  -6    1.50    5.60
   2  13  -6   -1.40    3.80
   0  12  -7   12.90    6.00
   0  12  -7   18.80    5.80
  -2  11  -8    2.10    5.70
  -2  11  -8    4.20    5.00
  -2  11  -8    1.20    4.60
  -4  10  -9    3.70    5.20
  -4  10  -9    8.40    5.50
  -6   9 -10    7.40    5.70
  -6   9 -10    4.70    4.80
  -6   9 -10    6.80    5.30
   7  15  -3   21.30    6.50
   7  15  -3   21.70    8.40
   5  14  -4   35.30    6.90
   5  14  -4   45.10   10.60
   3  13  -5   29.00    7.70
   3  13  -5   20.70    5.60
   1  12  -6   11.90    5.80
   1  12  -6    3.40    4.40
  -1  11  -7    1.60    4.30
  -1  11  -7   -1.50    4.60
  -1  11  -7    5.70    5.70
  -3  10  -8   11.80    6.30
  -3  10  -8    4.60    4.80
  -3  10  -8    2.60    4.20
  -5   9  -9   -2.20    4.70
  -5   9  -9    2.60    5.30
  -5   9  -9   -1.40    4.20
  -7   8 -10    0.70    5.10
  -7   8 -10    5.00    4.10
  -7   8 -10    6.90    4.80
   8  15  -2    0.50    4.20
   8  15  -2    3.20    7.00
   6  14  -3    8.70    4.80
   4  13  -4   16.00    4.70
   4  13  -4   12.80    7.60
   2  12  -5   64.69    8.50
   2  12  -5   62.89   10.20
   0  11  -6  133.59   16.10
   0  11  -6  179.08   16.70
   0  11  -6  149.69   15.00
  -2  10  -7   85.49   11.90
  -2  10  -7   78.39   10.30
  -4   9  -8   12.50    5.30
  -4   9  -8   11.40    5.30
  -4   9  -8   11.10    4.90
  -6   8  -9   15.70    5.10
  -6   8  -9   21.80    5.80
  -6   8  -9   22.10    5.70
  -8   7 -10   13.70    6.00
  -8   7 -10    9.80    3.90
   7  14  -2    7.70    4.30
   7  14  -2   -2.10    6.30
  -5 -13   3    1.40    4.70
   5  13  -3   12.40    4.40
   5  13  -3   11.10    7.30
  -3 -12   4    3.80    4.30
   3  12  -4   -2.60    4.30
   3  12  -4    1.30    3.80
  -1 -11   5    8.10    4.20
   1  11  -5    3.90    5.30
   1  11  -5    6.40    5.00
   1  11  -5    8.20    4.10
   1 -10   6    5.10    3.80
  -1  10  -6   -1.10    4.80
  -1  10  -6   -3.50    3.60
  -3   9  -7   48.40    8.70
  -3   9  -7   50.59    8.20
  -3   9  -7   80.99    8.00
  -5   8  -8   15.00    4.90
  -5   8  -8   12.10    5.30
  -5   8  -8    9.60    4.60
  -7   7  -9   11.00    5.70
  -7   7  -9    6.90    3.60
   8  14  -1    5.80    4.10
   8  14  -1   15.70    8.20
   6  13  -2   31.70    5.50
   6  13  -2   36.50    6.10
   6  13  -2   70.19   10.10
   4  12  -3   58.19   10.40
   4  12  -3   75.79    8.40
  -2 -11   4   82.29   10.00
   2  11  -4  109.99   10.80
   2  11  -4  125.19   15.00
   2  11  -4   98.59   12.00
   0 -10   5   14.50    4.00
   0  10  -5   13.00    5.30
   0  10  -5   14.80    5.70
   0  10  -5    9.70    4.10
   2  -9   6   94.99   10.40
  -2   9  -6   95.09   10.70
  -2   9  -6  107.29   11.30
  -2   9  -6   86.49   10.90
  -4   8  -7   60.39    8.20
  -4   8  -7   70.79    9.00
  -4   8  -7   53.39    8.60
  -6   7  -8    0.10    4.00
  -6   7  -8    5.30    4.50
  -6   7  -8    0.60    3.50
  -8   6  -9    9.90    3.30
  -8   6  -9    6.50    3.20
   9  14   0    0.90    4.10
   7  13  -1    6.90    6.10
   7  13  -1   -0.70    3.50
   7  13  -1    5.40    3.70
  -5 -12   2   56.79    7.60
   5  12  -2   38.40    8.60
   5  12  -2   44.30    6.70
   5  12  -2   43.20    9.60
  -3 -11   3   66.29    8.10
   3  11  -3   78.99   10.80
   3  11  -3   79.59    8.40
  -1 -10   4   10.10    3.70
   1  10  -4   12.90    5.10
   1  10  -4   17.20    3.90
   1  10  -4    9.80    5.00
   1  -9   5   64.99    8.20
  -1   9  -5   65.79    8.10
  -1   9  -5   74.79    9.40
  -1   9  -5   60.89    9.40
  -3   8  -6    9.10    4.30
  -3   8  -6    6.30    4.50
  -3   8  -6    9.30    3.50
  -5   7  -7   28.30    5.10
  -5   7  -7   13.30    4.50
  -5   7  -7   19.80    5.30
  -7   6  -8   12.30    5.10
  -7   6  -8   11.60    3.50
  -7   6  -8   15.80    4.40
  -9   5  -9   37.00    8.20
  10  14   1    0.60    4.00
   8  13   0    0.80    3.50
   8  13   0    2.20    6.80
   8  13   0   -0.30    3.50
   6  12  -1    8.60    3.80
   6  12  -1    5.40    6.40
   6  12  -1    8.80    5.80
   6  12  -1   10.20    3.60
  -4 -11   2    8.80    3.90
   4  11  -2   13.90    3.80
   4  11  -2   19.80    5.40
  -2 -10   3    3.10    3.30
   2  10  -3   -2.50    3.70
   2  10  -3    1.70    2.90
   2  10  -3    2.00    4.40
   0  -9   4    6.70    3.10
   0   9  -4   13.90    5.00
   0   9  -4   13.40    4.10
   2  -8   5   71.09    8.10
  -2   8  -5   89.99    9.00
  -2   8  -5   72.99    9.10
  -2   8  -5   75.49    8.20
   4  -7   6    0.40    3.40
  -4   7  -6    9.20    4.20
  -4   7  -6   -1.20    3.30
  -4   7  -6    7.80    4.10
  -6   6  -7    2.80    4.20
  -6   6  -7    1.70    3.20
  -6   6  -7   10.30    4.10
  -8   5  -8   18.80    5.70
 -10   4  -9   16.00    6.50
   9  13   1   20.30    5.40
   9  13   1   32.30    8.30
   9  13   1   20.50    5.20
   7  12   0   56.99    7.40
   7  12   0   80.39   11.00
   7  12   0   55.29   11.10
   7  12   0   81.19    8.20
  -5 -11   1  111.09   11.10
   5  11  -1  125.09   13.20
   5  11  -1  114.99   17.10
   5  11  -1  101.49   10.80
  -3 -10   2   55.29    6.70
   3  10  -2   53.39    8.70
   3  10  -2   51.29    6.00
   3  10  -2   38.50    8.00
  -1  -9   3   32.30    4.60
   1   9  -3   28.20    4.50
   1   9  -3   27.20    6.10
   1   9  -3   18.60    5.00
   1  -8   4   61.39    6.90
  -1   8  -4   59.09    7.70
  -1   8  -4   48.80    6.20
  -1   8  -4   59.69    8.80
   3  -7   5   21.90    4.00
  -3   7  -5   23.50    4.90
  -3   7  -5   12.90    4.70
  -3   7  -5   14.00    3.80
  -5   6  -6   54.39    6.10
  -5   6  -6   43.50    6.50
  -5   6  -6   42.20    6.30
  -7   5  -7   25.70    5.20
  -7   5  -7   26.90    4.50
  -7   5  -7   15.80    3.60
  -9   4  -8    1.70    5.40
  10  13   2    0.10    5.50
  10  13   2    3.80    4.30
   8  12   1   -0.30    4.30
   8  12   1   -0.40    6.30
   8  12   1    3.30    5.10
   8  12   1    3.90    3.30
   6  11   0    4.00    6.60
   6  11   0    5.10    4.70
   6  11   0    4.00    3.10
   6  11   0    6.20    3.10
  -4 -10   1   23.90    4.40
   4  10  -1   20.80    6.20
   4  10  -1   23.80    4.20
   4  10  -1   15.10    5.30
  -2  -9   2   40.40    5.20
   2   9  -2   39.30    5.20
   2   9  -2   32.00    6.60
   2   9  -2   33.40    5.90
   0  -8   3  134.59   12.10
   0   8  -3  135.19   13.00
   0   8  -3  126.69   13.20
   0   8  -3  127.99   12.10
   2  -7   4  115.39   11.50
  -2   7  -4  116.09   12.00
  -2   7  -4  135.59   12.50
  -2   7  -4  129.99   11.60
   4  -6   5   99.59   10.60
  -4   6  -5  121.59   11.40
  -4   6  -5  116.29   10.90
  -4   6  -5  109.19   10.80
   6  -5   6   84.39    9.80
  -6   5  -6   93.19    9.80
  -6   5  -6   93.19    9.40
  -8   4  -7   16.90    5.20
  11  13   3   -1.60    3.90
  11  13   3    4.60    5.90
   9  12   2   32.80    7.40
   9  12   2   36.90    6.00
   9  12   2   31.10    5.80
   9  12   2   23.50    8.80
   7  11   1   28.50    5.00
   7  11   1   34.50    5.20
   7  11   1   29.80    9.90
   7  11   1   35.20    7.20
   5  10   0   12.70    3.40
   5  10   0    9.40    5.10
   5  10   0   10.40    4.90
  -3  -9   1   40.00    5.20
   3   9  -1   25.40    6.30
   3   9  -1   46.10    5.10
   3   9  -1   29.80    5.90
  -1  -8   2    3.00    2.30
   1   8  -2    1.80    2.50
   1   8  -2    4.80    3.70
   1   8  -2    8.00    3.40
   1  -7   3   45.10    5.10
  -1   7  -3   47.30    5.80
  -1   7  -3   41.40    5.10
   3  -6   4   14.90    3.40
  -3   6  -4   15.40    3.50
  -3   6  -4   19.00    3.90
   5  -5   5    3.60    2.80
  -5   5  -5   -0.10    3.00
  -5   5  -5    1.30    3.40
  -5   5  -5    1.30    2.50
   7  -4   6   24.60    5.10
  -7   4  -6   20.60    3.40
  -7   4  -6   19.50    4.90
  -7   4  -6   19.60    3.80
  -9   3  -7   25.90    6.40
 -11   2  -8   17.90    6.60
  10  12   3    8.30    4.40
  10  12   3   15.60    6.80
  10  12   3    5.20    3.90
  10  12   3    9.80    6.10
   8  11   2   21.10    4.30
   8  11   2   13.60    3.90
   8  11   2   10.20    5.30
   6  10   1   51.39    6.40
   6  10   1   72.59   10.10
   6  10   1   54.39    6.50
   6  10   1   75.19    8.70
  -4  -9   0   49.10    7.00
   4   9   0   81.49    8.50
   4   9   0   70.49    7.00
   4   9   0   94.79    9.40
   2   8  -1  166.38   14.70
   2   8  -1  147.69   13.80
   2   8  -1  153.08   15.20
   0  -7   2  131.59   12.00
   0  -7   2  143.89   13.00
   0   7  -2  120.59   11.40
   0   7  -2  114.89   12.00
   2  -6   3   94.59    9.10
   2  -6   3   86.79    8.40
  -2   6  -3   85.29    8.80
  -2   6  -3   84.29    8.40
   4  -5   4   73.89    8.50
   4  -5   4  102.79    9.00
  -4   5  -4   84.09    8.70
  -4   5  -4   91.39    8.60
   6  -4   5    0.70    2.80
  -6   4  -5    0.90    2.20
  -6   4  -5    8.10    3.50
   8  -3   6   21.60    5.10
  -8   3  -6   27.00    6.40
 -10   2  -7    4.00    4.60
  11  12   4   10.30    7.30
  11  12   4    6.60    4.50
   9  11   3    4.30    4.90
   9  11   3   10.40    4.00
   7  10   2   23.10    4.20
   7  10   2   17.00    6.70
   7  10   2   25.50    4.30
   7  10   2   19.80    5.40
   5   9   1   55.59    5.70
   5   9   1   63.89    8.00
   5   9   1   58.79    8.50
   5   9   1   46.50    5.60
  -3  -8   0  107.59    9.30
   3   8   0   98.79    9.00
   3   8   0   88.29   10.00
   3   8   0   88.69   10.50
  -1  -7   1  160.18   13.90
   1   7  -1  153.38   14.50
   1   7  -1  155.58   13.80
   1  -6   2  205.88   17.70
   1  -6   2  194.08   16.90
  -1   6  -2  186.18   17.30
  -1   6  -2  190.08   16.90
   3  -5   3   87.89    8.20
   3  -5   3   83.59    8.70
  -3   5  -3   86.79    8.50
  -3   5  -3   79.49    8.20
   5  -4   4    7.00    3.20
   5  -4   4    9.30    2.90
  -5   4  -4   11.90    3.40
  -5   4  -4    7.50    2.70
   7  -3   5    2.50    3.30
  -7   3  -5    9.60    4.10
  -7   3  -5    1.30    2.30
  -9   2  -6   18.00    5.30
  10  11   4   43.50    9.00
  10  11   4   47.60    6.90
   8  10   3   16.90    4.20
   8  10   3   15.60    6.40
   8  10   3   24.80    5.80
   8  10   3   26.30    4.40
   6   9   2    9.00    3.00
   6   9   2   12.80    3.10
   6   9   2    5.80    4.80
   6   9   2    4.10    4.00
  -4  -8  -1   12.80    2.80
   4   8   1    4.50    4.10
   4   8   1    5.50    2.20
   4   8   1    3.70    3.20
  -2  -7   0   45.50    6.40
  -2  -7   0   40.30    4.80
   2   7   0   38.00    4.40
   2   7   0   35.60    5.40
   0  -6   1   66.19    7.90
   0  -6   1   72.79    6.90
   0   6  -1   70.59    7.60
   0   6  -1   78.79    7.00
   2  -5   2   22.80    3.30
   2  -5   2   10.60    3.40
  -2   5  -2   16.90    3.00
  -2   5  -2   15.90    4.30
   4  -4   3  111.09   10.60
   4  -4   3  116.79   10.80
  -4   4  -3  116.09   10.60
  -4   4  -3  119.59   10.80
   6  -3   4   59.99    7.10
   6  -3   4   73.39    6.70
  -6   3  -4   57.39    7.10
  -6   3  -4   59.39    6.30
   8  -2   5   33.10    6.20
  -8   2  -5   39.10    6.50
 -10   1  -6   17.70    5.70
  11  11   5    2.20    3.60
  11  11   5    0.30    7.00
  11  11   5    5.80    4.40
  11  11   5    0.20    4.70
   9  10   4   46.90    8.20
   9  10   4   33.40    7.20
   9  10   4   44.60    6.10
   9  10   4   43.20    6.30
   7   9   3   53.49    6.20
   7   9   3   47.60    8.30
   7   9   3   55.39    6.20
   7   9   3   58.09    8.00
   5   8   2  238.38   20.30
   5   8   2  229.58   19.80
   5   8   2  205.28   18.70
   5   8   2  205.18   18.80
  -3  -7  -1  724.43   61.19
  -3  -7  -1  707.83   60.49
   3   7   1  697.03   61.09
   3   7   1  742.53   60.49
  -1  -6   0  466.05   38.80
  -1  -6   0  454.65   38.10
   1   6   0  452.65   38.10
   1   6   0  428.36   38.50
   1  -5   1  364.56   31.00
   1  -5   1  366.26   30.60
  -1   5  -1  348.97   30.50
   3  -4   2  173.38   14.90
   3  -4   2  167.48   15.10
  -3   4  -2  169.38   14.90
  -3   4  -2  165.08   14.90
   5  -3   3   27.20    4.30
   5  -3   3   26.60    3.90
  -5   3  -3   29.20    3.70
  -5   3  -3   29.20    4.40
   7  -2   4    4.40    2.10
   7  -2   4    2.60    3.10
  -7   2  -4    4.40    3.30
  -7   2  -4    4.40    2.20
   9  -1   5    8.50    4.00
  -9   1  -5   15.00    4.70
 -11   0  -6   18.00    6.00
  12  11   6    1.40    5.40
  12  11   6    9.20    6.40
  12  11   6    1.60    3.90
  10  10   5    0.40    3.30
  10  10   5   -0.40    4.70
  10  10   5    6.70    5.40
   8   9   4    5.00    4.70
   8   9   4    0.90    2.70
   8   9   4   -3.80    2.50
   8   9   4    1.90    3.70
   6   8   3   54.69    6.20
   6   8   3   41.90    7.00
   6   8   3   45.80    5.10
   6   8   3   42.00    5.10
   4   7   2   13.40    3.60
   4   7   2   18.30    2.90
  -2  -6  -1    7.20    3.20
  -2  -6  -1    8.10    2.20
   2   6   1   10.60    3.00
   0  -5   0  282.17   22.60
   0  -5   0  241.28   21.90
   0   5   0  285.07   22.60
   0   5   0  233.28   21.90
   2  -4   1  166.58   17.00
   2  -4   1  211.58   16.80
  -2   4  -1  176.88   16.90
  -2   4  -1  219.58   16.80
   4  -3   2   87.49    8.10
   4  -3   2   79.99    7.80
  -4   3  -2   82.59    7.60
  -4   3  -2   79.69    7.90
   6  -2   3   85.29    8.60
   6  -2   3   85.79    8.00
  -6   2  -3   87.59    8.70
  -6   2  -3   87.49    8.00
   8  -1   4  110.39   11.40
  -8   1  -4  120.19   11.80
 -10   0  -5   61.99    9.00
 -12  -1  -6   10.00    6.20
  11  10   6   13.90    5.70
  11  10   6    0.00    4.00
  11  10   6    0.50    3.80
  11  10   6    3.50    4.00
   9   9   5   17.10    5.30
   9   9   5   13.40    3.70
   9   9   5   19.90    4.90
   9   9   5   20.10    4.30
   7   8   4   32.10    4.60
   7   8   4   20.60    5.60
   7   8   4   22.50    5.00
   7   8   4   24.90    4.10
   5   7   3    4.50    2.10
   5   7   3    4.20    2.10
   5   7   3    2.40    3.60
   5   7   3    2.70    2.90
  -3  -6  -2  128.49   12.30
  -3  -6  -2  174.08   13.30
   3   6   2  130.89   12.20
   3   6   2  143.69   13.00
  -1  -5  -1   35.30    3.80
  -1  -5  -1   31.30    4.90
   1   5   1   31.90    4.70
   1   5   1   42.20    3.80
   1  -4   0   55.39    5.00
   1  -4   0   49.80    5.60
  -1   4   0   42.60    5.40
  -1   4   0   51.99    5.00
   3  -3   1    3.80    2.30
   3  -3   1    2.90    2.10
  -3   3  -1    6.70    2.40
  -3   3  -1    0.10    2.00
   5  -2   2   41.10    4.60
   5  -2   2   45.70    5.50
  -5   2  -2   45.90    5.50
  -5   2  -2   42.60    4.60
   7  -1   3   36.60    4.30
   7  -1   3   54.89    6.00
  -7   1  -3   34.20    4.30
  -7   1  -3   53.19    6.20
   9   0   4    1.70    3.50
  -9   0  -4   -1.00    3.50
 -11  -1  -5    5.60    5.10
  12  10   7   25.40    6.30
  12  10   7   19.90    5.50
  12  10   7   19.50    6.30
  12  10   7   17.40    5.50
  10   9   6   47.40    6.70
  10   9   6   41.40    7.40
  10   9   6   49.20    7.50
  10   9   6   56.19    7.50
   8   8   5   34.40    6.60
   8   8   5   52.79    6.40
   8   8   5   41.30    6.40
   8   8   5   39.30    5.30
   6   7   4  124.69   12.30
   6   7   4  122.99   11.10
   6   7   4  120.19   11.20
   6   7   4  126.69   11.80
  -4  -6  -3  165.68   15.40
   4   6   3  172.28   14.80
   4   6   3  175.08   15.40
   4   6   3  169.68   14.70
  -2  -5  -2    9.80    2.00
  -2  -5  -2    8.90    2.90
   2   5   2    9.80    2.80
   2   5   2   11.00    1.80
   0  -4  -1    3.30    2.30
   0  -4  -1    3.30    1.50
   0   4   1    3.30    2.10
   0   4   1    5.30    1.50
   2  -3   0   62.79    5.60
   2  -3   0   49.50    5.30
  -2   3   0   56.39    5.50
  -2   3   0   48.80    5.20
   4  -2   1   18.30    2.80
   4  -2   1   12.70    2.90
  -4   2  -1   18.50    3.10
  -4   2  -1   15.30    2.60
   6  -1   2   66.89    7.40
   6  -1   2   75.99    6.90
  -6   1  -2   79.99    7.70
  -6   1  -2   73.69    7.00
   8   0   3   16.60    2.70
   8   0   3   21.80    4.10
  -8   0  -3   23.00    4.50
 -10  -1  -4    5.30    4.30
  11   9   7    0.90    4.00
  11   9   7    3.20    4.30
  11   9   7   -2.70    3.60
  11   9   7   -0.20    3.80
   9   8   6   37.80    6.40
   9   8   6   26.30    4.70
   9   8   6   29.00    5.20
   7   7   5   16.10    3.10
   7   7   5   10.60    4.50
   7   7   5   13.30    2.60
   7   7   5    7.50    3.00
   5   6   4  185.78   15.80
   5   6   4  180.78   16.30
   5   6   4  180.38   15.80
   3   5   3   71.79    6.40
   3   5   3   74.79    6.40
   3   5   3   62.79    7.00
  -1  -4  -2  188.28   16.70
  -1  -4  -2  210.88   17.40
   1   4   2  201.78   17.30
   1   4   2  194.78   16.70
   1  -3  -1  951.00   78.89
   1  -3  -1  963.30   78.69
  -1   3   1  949.51   78.89
  -1   3   1  894.71   78.59
   3  -2   0   59.89    5.60
   3  -2   0   54.79    5.50
  -3   2   0   54.39    5.50
   5  -1   1  191.28   16.40
   5  -1   1  209.78   16.90
  -5   1  -1  183.08   16.70
  -5   1  -1  180.88   16.40
   7   0   2   74.89    7.50
   7   0   2   70.49    6.60
  -7   0  -2   69.89    6.80
  -7   0  -2   63.69    7.50
   9   1   3   10.60    2.40
  -9  -1  -3   14.90    4.20
 -11  -2  -4   -0.70    4.50
  12   9   8    8.00    4.70
  12   9   8    9.40    4.70
  12   9   8   12.60    4.80
  10   8   7   30.70    5.30
  10   8   7   36.20    5.50
  -8  -7  -6  106.69    9.50
   8   7   6   84.39   10.30
   8   7   6   93.99    9.90
   8   7   6  106.79    9.60
   6   6   5   45.50    4.90
   6   6   5   63.69    7.00
   6   6   5   44.40    5.50
  -4  -5  -4    2.70    2.60
   4   5   4    3.60    1.80
   4   5   4    2.50    1.50
   4   5   4    1.50    2.10
  -2  -4  -3   36.00    3.60
  -2  -4  -3   46.10    4.90
   2   4   3   44.60    4.70
   2   4   3   33.50    3.50
   0  -3  -2   46.60    4.70
   0  -3  -2   34.00    3.40
   0   3   2   28.80    3.40
   0   3   2   31.90    4.00
   2  -2  -1  165.18   14.90
   2  -2  -1  176.08   14.80
  -2   2   1  180.48   14.80
  -2   2   1  166.08   14.90
   4  -1   0   66.59    7.40
   4  -1   0   89.19    7.40
  -4   1   0   66.59    7.50
  -4   1   0   92.59    7.50
   6   0   1    6.20    2.70
   6   0   1    7.30    2.30
  -6   0  -1    9.70    3.10
  -6   0  -1    4.40    2.60
   8   1   2   27.50    4.60
   8   1   2   26.90    3.70
  -8  -1  -2   24.80    3.80
  -8  -1  -2   24.50    5.00
  10   2   3   46.60    5.40
  10   2   3   52.09    7.40
 -10  -2  -3   55.69    7.80
 -12  -3  -4   -2.00    4.50
 -11  -8  -8    1.80    4.40
  11   8   8    8.70    3.90
  11   8   8   10.50    3.80
  11   8   8   12.30    4.00
  -9  -7  -7    7.00    3.00
   9   7   7    8.90    3.90
   9   7   7    2.50    2.90
   9   7   7    8.40    3.10
  -7  -6  -6   10.60    2.60
   7   6   6    4.40    2.30
   7   6   6    6.10    3.50
   7   6   6    6.20    2.60
  -5  -5  -5   33.80    3.80
   5   5   5   28.30    4.10
   5   5   5   31.50    3.70
  -3  -4  -4  511.35   44.10
   3   4   4  504.35   44.00
   3   4   4  539.45   43.70
   3   4   4  526.85   43.70
  -1  -3  -3  114.49    9.20
  -1  -3  -3  110.09    9.90
   1   3   3  106.19    9.20
   1   3   3  101.59    9.70
   1  -2  -2   51.29    5.20
   1  -2  -2   60.49    5.60
  -1   2   2   49.99    5.10
  -1   2   2   61.79    5.50
   3  -1  -1  465.05   39.00
   3  -1  -1  464.55   39.00
  -3   1   1  457.55   39.00
  -3   1   1  459.85   38.90
   5   0   0  121.99   10.80
   5   0   0  120.19   10.60
  -5   0   0  118.79   10.70
  -5   0   0  112.19   10.80
   7   1   1    8.30    2.50
   7   1   1    8.70    3.00
  -7  -1  -1    2.90    2.80
  -7  -1  -1    1.60    2.70
   9   2   2   15.10    3.40
   9   2   2   19.70    4.70
  -9  -2  -2   18.00    5.00
  -9  -2  -2   15.80    4.00
  11   3   3    3.70    3.10
  11   3   3    3.90    2.80
 -11  -3  -3   -2.90    3.60
 -12  -8  -9    2.70    3.70
  12   8   9    3.20    4.90
 -10  -7  -8   12.80    3.80
  10   7   8   18.80    4.10
  10   7   8   12.80    3.90
  -8  -6  -7   22.10    3.80
   8   6   7   19.90    4.40
   8   6   7   18.30    4.50
   8   6   7   16.30    3.60
  -6  -5  -6    1.20    2.20
   6   5   6   -0.90    1.70
   6   5   6    4.40    3.00
   6   5   6    0.70    1.90
  -4  -4  -5  203.58   16.40
  -4  -4  -5  181.18   16.80
   4   4   5  195.08   16.70
   4   4   5  189.68   16.40
  -2  -3  -4  177.68   15.30
   2   3   4  175.98   14.70
   2   3   4  176.28   14.70
   2   3   4  171.08   15.20
   0  -2  -3  440.86   38.50
   0  -2  -3  483.65   38.30
   0   2   3  442.06   38.50
   0   2   3  458.05   38.20
   2  -1  -2   30.10    3.80
   2  -1  -2   36.80    4.00
  -2   1   2   29.70    3.70
  -2   1   2   33.00    3.90
   4   0  -1  527.35   43.00
   4   0  -1  501.15   43.10
  -4   0   1  492.25   43.10
  -4   0   1  515.65   43.00
   6   1   0   18.00    3.30
   6   1   0   16.00    3.00
  -6  -1   0   10.10    3.10
  -6  -1   0   14.40    3.30
   8   2   1   27.50    4.50
   8   2   1   28.20    5.00
  -8  -2  -1   41.00    5.70
  -8  -2  -1   36.40    5.30
  10   3   2   48.70    6.20
  10   3   2   43.80    7.20
 -10  -3  -2   61.89    7.50
  12   4   3   22.10    4.60
 -12  -4  -3   23.70    5.90
 -11  -7  -9   46.30    7.90
  11   7   9   42.20    5.60
  11   7   9   77.69    7.90
  -9  -6  -8   22.70    4.20
   9   6   8   22.00    4.00
   9   6   8   19.90    4.00
   9   6   8   17.20    3.30
  -7  -5  -7   17.60    2.80
   7   5   7   11.80    2.40
  -5  -4  -6  125.19   10.70
  -5  -4  -6  122.89   11.10
   5   4   6  117.99   10.80
   5   4   6  122.39   10.70
  -3  -3  -5   24.40    2.60
  -3  -3  -5   31.90    3.40
   3   3   5   20.40    2.50
   3   3   5   31.80    3.30
  -1  -2  -4   34.70    4.00
   1   2   4   32.00    3.90
   1  -1  -3   41.50    4.20
   1  -1  -3   29.80    3.60
  -1   1   3   40.50    4.20
  -1   1   3   30.70    3.60
   3   0  -2    2.20    1.80
   3   0  -2    1.70    2.00
  -3   0   2    2.20    2.30
  -3   0   2   -1.40    1.80
   5   1  -1   11.40    3.00
   5   1  -1   17.50    3.00
  -5  -1   1   15.50    3.20
  -5  -1   1   18.50    3.60
   7   2   0   13.00    3.30
   7   2   0   19.40    3.30
  -7  -2   0   18.40    3.70
  -7  -2   0   14.60    3.50
   9   3   1   19.70    4.00
   9   3   1   12.80    4.10
  -9  -3  -1   19.50    4.80
  -9  -3  -1   11.20    4.20
  11   4   2    3.70    3.70
 -11  -4  -2    9.30    4.60
 -12  -7 -10   -1.40    3.30
  12   7  10   10.10    4.50
 -10  -6  -9   57.79    7.20
  10   6   9   56.59    7.40
  -8  -5  -8   68.09    6.50
   8   5   8   60.59    6.40
   8   5   8   53.89    6.40
   8   5   8   61.09    6.00
   6   4   7  169.68   13.80
   6   4   7  147.99   13.70
  -4  -3  -6  807.42   64.39
  -4  -3  -6  739.53   64.49
   4   3   6  794.72   64.29
   4   3   6  730.03   64.39
  -2  -2  -5  404.36   36.50
  -2  -2  -5  443.56   36.20
   2   2   5  404.26   36.50
   2   2   5  475.35   36.30
   0  -1  -4  171.78   14.10
   0  -1  -4  163.28   14.40
   0   1   4  160.88   14.40
   2   0  -3  212.98   18.20
   2   0  -3  222.28   18.40
  -2   0   3  210.18   18.40
  -2   0   3  205.58   18.20
   4   1  -2   57.99    5.90
   4   1  -2   60.79    5.90
  -4  -1   2   54.09    5.80
  -4  -1   2   49.90    6.00
   6   2  -1   49.10    5.80
   6   2  -1   59.79    5.90
  -6  -2   1   45.00    5.70
  -6  -2   1   63.59    6.90
   8   3   0   23.30    4.80
   8   3   0   30.70    4.60
  -8  -3   0   25.00    4.60
  -8  -3   0   23.00    5.20
  10   4   1    5.40    3.90
  10   4   1    2.80    3.90
 -10  -4  -1    4.00    3.90
  12   5   2    5.10    4.70
 -12  -5  -2   -0.90    4.30
 -11  -6 -10   -1.50    3.10
  11   6  10   -0.80    3.50
  -9  -5  -9    3.10    2.70
   9   5   9    1.30    2.90
  -7  -4  -8    2.00    2.50
   7   4   8   -0.60    2.00
   7   4   8    0.70    2.00
   7   4   8   -1.70    1.70
  -5  -3  -7   26.80    3.70
  -5  -3  -7   34.80    3.70
   5   3   7   32.60    3.60
   5   3   7   36.20    3.60
  -3  -2  -6    7.40    1.80
  -3  -2  -6    8.50    1.60
   3   2   6    7.40    1.50
   3   2   6   11.50    1.90
  -1  -1  -5  593.74   51.89
  -1  -1  -5  632.84   51.69
   1   1   5  651.43   51.69
   1   1   5  592.74   51.89
   1   0  -4    6.50    2.70
   1   0  -4    5.80    1.90
  -1   0   4    9.10    2.00
  -1   0   4    4.00    2.90
   3   1  -3  209.48   18.30
   3   1  -3  203.38   18.10
  -3  -1   3  226.28   18.40
  -3  -1   3  204.18   18.10
   5   2  -2 1030.10   83.09
   5   2  -2  976.10   82.99
  -5  -2   2  968.50   82.99
  -5  -2   2  975.90   83.19
   7   3  -1  100.39    9.80
   7   3  -1  105.39    9.70
  -7  -3   1   98.29   10.00
  -7  -3   1   96.79    9.70
   9   4   0   48.60    7.20
   9   4   0   56.39    8.10
  -9  -4   0   49.30    7.60
  -9  -4   0   49.30    7.00
  11   5   1    5.30    4.70
 -11  -5  -1   10.10    4.80
 -12  -6 -11   -1.90    3.40
  12   6  11    0.50    4.20
 -10  -5 -10   60.29    7.80
  10   5  10   69.79    8.30
  -8  -4  -9  139.89   12.90
   8   4   9  140.29   12.90
  -6  -3  -8   35.60    4.10
   6   3   8   22.80    3.70
   6   3   8   27.50    3.10
  -4  -2  -7  236.08   21.20
  -4  -2  -7  260.37   21.20
   4   2   7  261.77   21.20
   4   2   7  240.88   21.10
  -2  -1  -6  597.84   52.49
  -2  -1  -6  656.23   52.39
   2   1   6  677.43   52.39
   2   1   6  569.44   52.49
   0   0  -5   38.10    4.30
   0   0   5   53.69    5.40
   0   0   5   32.00    4.30
   2   1  -4   31.00    3.70
   2   1  -4   37.50    4.50
  -2  -1   4   28.30    3.70
  -2  -1   4   28.50    4.40
   4   2  -3    5.60    2.80
   4   2  -3    0.30    2.20
  -4  -2   3    0.10    3.10
  -4  -2   3    1.00    2.30
   6   3  -2   21.40    3.90
   6   3  -2   21.40    4.00
  -6  -3   2   22.90    4.60
  -6  -3   2   21.30    3.80
   8   4  -1   70.19    9.70
   8   4  -1   62.19    7.60
  -8  -4   1   60.89    7.60
  -8  -4   1   89.59    9.10
  10   5   0   13.20    4.70
  10   5   0   20.30    5.10
 -10  -5   0   17.00    4.50
  12   6   1    3.80    4.90
  12   6   1   -7.00    5.30
 -12  -6  -1   -0.90    4.50
 -11  -5 -11   16.50    4.60
  -9  -4 -10   41.60    5.80
   9   4  10   31.90    5.30
  -7  -3  -9    3.80    2.50
  -5  -2  -8    4.20    2.20
  -5  -2  -8    4.80    1.50
   5   2   8    4.10    2.00
   5   2   8    6.10    1.70
  -3  -1  -7  184.98   15.70
  -3  -1  -7  189.38   15.70
   3   1   7  173.98   15.70
   3   1   7  184.98   15.70
  -1   0  -6  349.27   30.10
  -1   0  -6  367.86   29.90
   1   0   6  362.16   29.90
   1   0   6  338.67   30.10
   1   1  -5  463.75   39.20
   1   1  -5  484.95   39.00
  -1  -1   5  439.16   39.20
   3   2  -4  257.07   20.60
   3   2  -4  220.08   20.20
  -3  -2   4  207.58   20.70
  -3  -2   4  254.87   20.70
   5   3  -3  392.86   31.80
   5   3  -3  380.56   31.80
  -5  -3   3  351.56   31.50
  -5  -3   3  352.26   31.90
   7   4  -2   92.09    8.90
   7   4  -2   89.79   10.60
  -7  -4   2   89.29    9.90
  -7  -4   2   78.49    8.60
   9   5  -1   29.30    5.70
  -9  -5   1   34.10    5.50
  -9  -5   1   27.00    6.70
  11   6   0    7.10    5.00
 -11  -6   0    4.60    4.60
 -12  -5 -12    1.50    3.90
 -10  -4 -11    2.10    3.60
  10   4  11   -1.70    3.40
  -8  -3 -10   47.70    6.50
   8   3  10   55.09    6.70
  -6  -2  -9   76.89    7.60
   6   2   9   78.19    7.50
  -4  -1  -8  147.19   13.20
  -4  -1  -8  163.68   13.50
   4   1   8  141.79   13.30
   4   1   8  168.28   13.40
  -2   0  -7   31.10    3.60
  -2   0  -7   26.10    3.20
   2   0   7   31.20    3.90
   2   0   7   31.30    3.30
   0   1  -6  502.45   44.10
   0   1  -6  558.74   43.90
   0  -1   6  545.55   44.00
   0  -1   6  478.95   44.10
   2   2  -5  436.56   36.30
   2   2  -5  420.16   36.00
   2   2  -5  432.66   36.10
  -2  -2   5  414.56   36.40
   4   3  -4   48.70    5.60
   4   3  -4   49.90    6.30
  -4  -3   4   55.29    6.80
   6   4  -3    6.80    5.40
   6   4  -3   12.60    3.20
  -6  -4   3   10.70    3.00
  -6  -4   3   -1.10    3.60
   8   5  -2    0.50    3.60
   8   5  -2    4.20    4.00
  -8  -5   2    1.00    3.50
  -8  -5   2    5.10    5.00
  10   6  -1    4.60    4.80
  10   6  -1    8.80    4.70
 -10  -6   1   12.40    5.40
 -10  -6   1   17.20    4.80
  12   7   0   -0.60    5.70
  12   7   0   11.50    5.60
 -11  -4 -12    6.40    4.30
  11   4  12   17.00    5.20
  -9  -3 -11  107.09   10.50
   9   3  11   99.59   10.40
  -7  -2 -10   52.89    5.80
   7   2  10   44.60    5.50
  -5  -1  -9    2.40    2.30
   5   1   9    0.80    2.20
  -3   0  -8   52.99    5.40
  -3   0  -8   60.59    5.40
   3   0   8   50.99    5.60
  -1   1  -7  122.59   10.40
  -1   1  -7  126.59   10.70
   1  -1   7  105.99   10.30
   1  -1   7  117.59   10.80
   1   2  -6   57.99    6.70
   1   2  -6   67.99    6.00
  -1  -2   6   56.89    6.80
  -1  -2   6   60.09    6.10
   3   3  -5   25.50    3.60
   3   3  -5   16.20    3.30
   3   3  -5   19.90    4.00
  -3  -3   5   22.50    4.60
   5   4  -4   23.40    5.80
   5   4  -4   32.10    4.60
   5   4  -4   25.70    4.20
  -5  -4   4   32.60    5.50
   7   5  -3   11.30    3.60
   7   5  -3    5.80    3.80
  -7  -5   3   14.60    3.80
  -7  -5   3   10.90    5.10
   9   6  -2   27.80    5.70
   9   6  -2   22.40    5.60
  -9  -6   2   27.00    6.80
  -9  -6   2   37.70    5.80
  11   7  -1    8.80    5.70
 -10  -3 -12    7.00    4.30
  10   3  12   11.80    4.60
  -8  -2 -11   63.09    7.40
   8   2  11   49.30    6.90
  -6  -1 -10    8.70    3.00
   6   1  10    8.30    2.90
  -4   0  -9  289.47   24.70
  -4   0  -9  303.07   24.90
   4   0   9  302.67   24.90
   4   0   9  271.67   24.80
  -2   1  -8  622.54   51.39
  -2   1  -8  618.44   51.49
   2  -1   8  625.34   51.39
   2  -1   8  576.34   51.59
   0   2  -7  429.26   36.60
   0   2  -7  452.05   36.90
   0  -2   7  406.56   36.90
   0  -2   7  443.26   36.70
   2   3  -6  144.09   12.40
   2   3  -6  136.49   12.80
  -2  -3   6  127.49   12.40
  -2  -3   6  147.99   13.00
   4   4  -5  129.29   13.20
   4   4  -5  144.39   12.40
   4   4  -5  127.79   12.40
  -4  -4   5  140.39   13.30
   6   5  -4   -1.70    2.50
   6   5  -4   -2.20    3.40
   6   5  -4    5.30    3.40
  -6  -5   4   -5.00    4.30
   8   6  -3    1.30    4.00
   8   6  -3    4.10    3.40
   8   6  -3    4.10    4.60
  -8  -6   3    0.50    5.40
  10   7  -2   -3.30    5.20
  10   7  -2    5.80    5.40
  12   8  -1    4.30    6.00
  12   8  -1  -12.60    6.00
  12   8  -1    4.80    6.40
 -11  -3 -13    2.40    4.20
  11   3  13    2.30    5.30
  -9  -2 -12   16.90    4.50
   9   2  12   20.00    4.90
  -7  -1 -11   12.40    3.70
   7   1  11   15.90    3.70
  -5   0 -10    9.30    2.00
  -5   0 -10   15.00    3.20
   5   0  10   10.90    2.60
   5   0  10   14.00    3.50
  -3   1  -9   10.00    2.60
  -3   1  -9    7.40    2.40
   3  -1   9    5.60    2.20
   3  -1   9    3.80    2.70
  -1   2  -8   49.99    5.10
  -1   2  -8   46.60    5.50
   1  -2   8   44.30    5.00
   1  -2   8   51.99    6.10
   1   3  -7   29.50    5.00
   1   3  -7   28.70    4.00
  -1  -3   7   31.80    4.30
  -1  -3   7   30.00    5.20
   3   4  -6  306.47   24.90
   3   4  -6  305.97   25.30
   3   4  -6  261.07   24.40
  -3  -4   6  263.67   25.00
   5   5  -5   69.99    7.20
   5   5  -5   64.79    8.60
   5   5  -5   61.79    7.00
  -5  -5   5   71.89    9.10
   7   6  -4   42.90    6.60
   7   6  -4   41.40    6.80
   7   6  -4   36.30    5.90
  -7  -6   4   44.30    8.20
   9   7  -3  143.79   15.20
   9   7  -3  180.88   16.00
   9   7  -3  151.08   15.60
  -9  -7   3  156.78   16.80
  11   8  -2   25.00    7.50
  11   8  -2   34.00    7.70
  11   8  -2   21.30    6.30
 -10  -2 -13    4.30    4.30
  10   2  13    5.70    4.90
  -8  -1 -12    5.50    3.90
   8   1  12    3.80    3.60
  -6   0 -11  104.29    9.90
   6   0  11   97.19    9.80
  -4   1 -10   57.09    5.50
  -4   1 -10   48.60    5.40
   4  -1  10   55.19    5.60
   4  -1  10   46.50    5.70
  -2   2  -9   58.29    6.30
  -2   2  -9   68.99    6.70
   2  -2   9   71.79    7.10
   2  -2   9   60.09    6.40
   0   3  -8  243.88   21.30
   0   3  -8  261.37   21.80
   0  -3   8  242.08   21.90
   0  -3   8  242.38   21.40
   2   4  -7    4.20    2.50
   2   4  -7    7.20    4.10
  -2  -4   7    4.80    2.50
  -2  -4   7    1.90    4.00
   4   5  -6   10.50    3.00
   4   5  -6    9.60    4.50
   4   5  -6   15.40    3.60
  -4  -5   6   10.40    5.00
   6   6  -5   -5.90    4.40
   6   6  -5    1.50    3.10
   6   6  -5    2.00    3.70
  -6  -6   5   -1.00    5.20
   8   7  -4   -1.10    3.60
   8   7  -4   -3.10    3.90
   8   7  -4    1.80    5.20
  -8  -7   4   -0.30    6.00
  10   8  -3   -0.20    5.60
  10   8  -3    9.20    5.70
  12   9  -2    1.20    6.20
  12   9  -2    1.80    6.20
 -11  -2 -14    6.10    5.20
  -9  -1 -13   42.00    7.00
  -7   0 -12   10.60    4.00
   7   0  12    9.40    3.60
  -5   1 -11  123.09   10.90
  -5   1 -11  112.89   10.40
   5  -1  11  115.09   10.90
  -3   2 -10  112.09    9.30
  -3   2 -10   94.09    9.30
   3  -2  10   91.79    9.70
  -1   3  -9    1.80    3.10
  -1   3  -9    0.60    2.20
   1  -3   9   -3.50    3.10
   1  -3   9   -0.10    2.20
   1   4  -8   13.10    5.20
   1   4  -8   22.00    3.50
  -1  -4   8    8.70    4.40
   3   5  -7    6.20    4.10
   3   5  -7    2.00    2.70
  -3  -5   7    0.70    2.60
  -3  -5   7   -0.40    4.10
   5   6  -6  209.78   18.00
   5   6  -6  186.68   17.00
   5   6  -6  176.58   16.80
  -5  -6   6  181.38   18.30
   7   7  -5   17.10    5.80
   7   7  -5   23.00    4.80
   7   7  -5   31.90    5.90
  -7  -7   5   19.50    7.30
   9   8  -4    9.80    6.60
   9   8  -4   20.80    6.40
  -9  -8   4   24.90    7.30
  11   9  -3    3.10    5.80
 -10  -1 -14    8.00    4.90
   8   0  13   28.80    5.80
  -6   1 -12    1.30    3.50
   6  -1  12   -3.10    3.00
  -4   2 -11    8.20    3.00
  -4   2 -11   -0.40    2.80
   4  -2  11    6.20    3.60
   4  -2  11    5.60    2.90
  -2   3 -10   51.79    5.90
  -2   3 -10   52.89    6.20
   2  -3  10   57.29    6.80
   2  -3  10   58.49    6.00
   0   4  -9  184.78   15.70
   0   4  -9  142.59   13.30
   0  -4   9  151.58   14.30
   0  -4   9  136.39   13.40
   2   5  -8  163.08   15.10
   2   5  -8  170.68   15.90
  -2  -5   8  170.58   16.40
  -2  -5   8  171.28   15.30
   4   6  -7  116.79   11.00
   4   6  -7  114.79   10.90
   4   6  -7  121.69   12.20
  -4  -6   7  106.19   12.70
   6   7  -6   55.89    7.60
   6   7  -6   61.59    9.40
   6   7  -6   68.59    8.40
  -6  -7   6   76.09   11.00
   8   8  -5   31.30    6.30
   8   8  -5   29.60    8.90
   8   8  -5   25.20    5.60
  -8  -8   5   24.40    8.40
  10   9  -4   -3.10    5.50
  -9   0 -14   93.79   10.50
   9   0  14   94.19   11.30
  -7   1 -13   97.79    9.40
   7  -1  13   73.99    9.30
  -5   2 -12   30.60    5.30
  -5   2 -12   35.70    4.50
   5  -2  12   30.50    5.10
  -3   3 -11   82.49    8.10
  -3   3 -11   83.99    8.30
   3  -3  11   73.99    8.30
   3  -3  11   85.89    9.00
  -1   4 -10   47.20    5.80
   1  -4  10   65.89    8.00
   1  -4  10   56.99    6.40
   1   5  -9    5.40    3.90
   1   5  -9    8.90    3.30
  -1  -5   9   10.40    3.20
  -1  -5   9    9.70    4.80
   3   6  -8    2.50    3.90
   3   6  -8    0.60    2.90
  -3  -6   8    7.20    3.30
  -3  -6   8    3.90    4.80
   5   7  -7    5.10    3.30
   5   7  -7   19.20    4.10
   5   7  -7    1.20    5.10
  -5  -7   7   -2.00    5.60
   7   8  -6    7.80    4.80
   7   8  -6    1.90    3.70
  -7  -8   6   14.40    7.20
   9   9  -5    5.80    5.80
   9   9  -5    6.40    6.40
  -9  -9   5   16.70    7.40
  11  10  -4   13.20    6.50
  11  10  -4   23.50    7.40
 -10   0 -15    4.30    5.10
  -8   1 -14    4.40    4.00
   8  -1  14    0.30    4.30
  -6   2 -13   14.40    4.30
  -6   2 -13   12.10    3.00
  -6   2 -13   13.00    2.90
   6  -2  13   11.40    4.40
  -4   3 -12   42.50    5.60
  -4   3 -12   33.20    5.20
   4  -3  12   36.90    5.60
  -2   4 -11  161.08   14.10
  -2   4 -11  138.59   15.70
   2  -4  11  153.48   15.00
   2  -4  11  159.08   14.20
   0   5 -10  288.57   24.40
   0   5 -10  255.67   23.70
   0  -5  10  273.17   23.90
   0  -5  10  274.27   24.80
   2   6  -9   86.09    9.40
   2   6  -9  105.39   10.50
  -2  -6   9   92.89    9.60
  -2  -6   9  107.29   11.20
   4   7  -8  222.48   19.80
   4   7  -8  210.88   20.60
  -4  -7   8  224.18   21.70
   6   8  -7   55.49    7.50
   6   8  -7   45.20    7.60
  -6  -8   7   62.79   10.50
   8   9  -6    4.70    6.40
   8   9  -6    1.10    4.60
  -8  -9   6   11.20    6.90
  10  10  -5    3.90    6.50
  -9   1 -15   -0.60    4.60
  -7   2 -14    1.30    4.20
   7  -2  14    2.20    4.20
  -5   3 -13   11.20    4.00
  -5   3 -13    1.60    4.20
  -5   3 -13    7.10    3.40
   5  -3  13   10.50    3.90
  -3   4 -12   23.30    7.30
  -3   4 -12   38.90    5.60
   3  -4  12   38.70    7.00
   3  -4  12   42.10    5.80
  -1   5 -11    7.20    4.10
  -1   5 -11   16.60    3.90
   1  -5  11   14.30    5.10
   1  -5  11   12.60    3.60
   1   6 -10    5.50    3.30
   1   6 -10    1.70    4.30
  -1  -6  10    3.10    3.00
  -1  -6  10   -0.50    4.80
   3   7  -9    3.90    4.40
   3   7  -9    2.10    3.30
  -3  -7   9    6.00    5.80
  -3  -7   9    4.00    3.40
   5   8  -8    4.70    4.20
  -5  -8   8    1.90    6.50
   7   9  -7   30.90    7.80
   7   9  -7   32.30    6.60
   7   9  -7   29.50    6.40
  -7  -9   7   31.90    9.20
   9  10  -6    1.60    5.40
  -8   2 -15    5.30    4.80
  -6   3 -14   -1.50    3.60
  -6   3 -14   -3.90    3.00
  -6   3 -14    3.70    2.80
   6  -3  14    4.40    4.20
  -4   4 -13   -1.80    3.40
  -4   4 -13    3.20    3.80
   4  -4  13   -6.60    3.30
  -2   5 -12   26.20    5.40
  -2   5 -12   20.30    4.50
   2  -5  12   22.50    4.60
   2  -5  12   17.30    6.20
   0   6 -11  200.78   18.90
   0   6 -11  189.28   18.00
   0  -6  11  227.48   19.60
   0  -6  11  186.58   18.00
   2   7 -10   45.30    7.40
   2   7 -10   36.70    5.90
  -2  -7  10   70.79    9.50
  -2  -7  10   25.60    5.40
   4   8  -9    4.80    3.70
  -4  -8   9    3.80    7.00
   6   9  -8    9.80    4.30
   6   9  -8    5.60    4.70
   6   9  -8    8.60    6.00
  -6  -9   8   31.60    9.10
   8  10  -7    9.50    5.50
  10  11  -6    6.10    8.10
  10  11  -6    8.50    6.30
  -9   2 -16   14.10    5.60
  -7   3 -15   59.99    8.40
  -5   4 -14   41.00    6.00
  -5   4 -14   28.60    5.20
  -5   4 -14    8.20    5.90
   5  -4  14   41.90    6.40
  -3   5 -13   44.40   10.10
  -3   5 -13   60.89    8.00
   3  -5  13   67.09    8.40
  -1   6 -12   33.50    6.60
  -1   6 -12   22.60    5.30
   1  -6  12   29.50    7.60
   1  -6  12   36.90    5.90
   1   7 -11   17.50    5.80
  -1  -7  11   18.60    7.10
  -1  -7  11   19.50    4.80
   3   8 -10    4.80    3.70
  -3  -8  10    4.70    8.70
   5   9  -9   -2.90    4.10
  -5  -9   9   12.40    7.70
   7  10  -8    2.80    4.80
  -7 -10   8    1.50    7.20
   9  11  -7    4.80    5.90
  -8   3 -16   13.50    5.90
  -6   4 -15   -2.30    3.50
  -6   4 -15   10.50    4.40
  -6   4 -15    6.00    3.50
  -4   5 -14    6.10    4.40
  -4   5 -14   14.80    4.70
  -4   5 -14   12.70    4.80
   4  -5  14   15.70    5.10
  -2   6 -13   49.90    7.90
  -2   6 -13   50.79    7.10
   0   7 -12    4.00    3.90
   0   7 -12    5.40    4.90
   0  -7  12    1.60    6.10
   2   8 -11   -0.30    3.80
  -2  -8  11   13.90    7.70
   4   9 -10   87.49    9.60
  -4  -9  10   74.89   13.20
   6  10  -9   75.99    9.70
  -6 -10   9   59.89   12.10
   8  11  -8   -2.50    8.00
  -7   4 -16    8.80    3.20
  -7   4 -16    4.30    4.80
  -7   4 -16   -3.40    3.10
  -5   5 -15   47.30    6.80
  -5   5 -15   38.40    6.80
  -5   5 -15   28.90    6.00
  -3   6 -14   56.49    8.00
  -3   6 -14   42.60    7.70
  -3   6 -14   56.89    7.60
   3  -6  14   29.70    7.00
  -1   7 -13   64.79    8.50
  -1   7 -13   80.39    9.80
   1  -7  13   62.69    8.90
   1   8 -12   10.90    5.90
   1   8 -12    7.60    4.70
  -1  -8  12    8.50    7.00
  -1  -8  12    6.20    4.30
   3   9 -11    9.90    4.70
  -3  -9  11    7.60    7.70
   5  10 -10    3.80    4.80
  -5 -10  10    9.10    8.30
   7  11  -9    1.40    7.30
   7  11  -9    0.20    5.10
   9  12  -8   -3.80    8.80
  -6   5 -16   -0.30    3.70
  -6   5 -16   -3.80    4.10
  -6   5 -16    3.50    4.60
  -4   6 -15    3.50    4.70
  -4   6 -15    4.60    4.80
  -4   6 -15    5.10    4.40
  -2   7 -14    8.00    5.10
  -2   7 -14   -0.30    3.90
  -2   7 -14   -2.20    4.70
   2  -7  14    3.70    5.60
   0   8 -13   53.39    8.00
   0   8 -13   51.99    8.70
   0  -8  13   52.19    8.20
   2   9 -12   96.99   11.30
  -2  -9  12   94.39   14.40
   4  10 -11   33.30    6.50
  -4 -10  11   31.80    9.60
   6  11 -10   21.40    9.00
   6  11 -10   20.60    6.50
   8  12  -9   18.40    6.80
   8  12  -9    7.10    8.50
  -7   5 -17   -7.10    3.70
  -7   5 -17   -0.50    4.00
  -7   5 -17    4.30    5.00
  -5   6 -16   -7.80    4.30
  -5   6 -16    0.30    4.60
  -5   6 -16   -1.30    4.40
  -3   7 -15    4.20    5.10
  -3   7 -15    0.60    4.30
  -3   7 -15    6.80    5.50
  -1   8 -14   25.80    6.90
  -1   8 -14   26.50    6.00
  -1   8 -14   25.90    7.70
   1   9 -13   16.00    5.80
   1   9 -13   17.90    7.30
   3  10 -12    1.90    4.90
   5  11 -11    2.70    4.50
   5  11 -11    8.20    9.00
   7  12 -10   -6.50    5.50
   7  12 -10   -4.00    7.30
  -6   6 -17    3.20    5.00
  -6   6 -17   -6.40    4.40
  -6   6 -17    1.10    4.90
  -4   7 -16    2.50    4.60
  -4   7 -16   -2.30    5.20
  -4   7 -16    2.90    5.80
  -2   8 -15    2.30    4.70
  -2   8 -15    5.80    5.70
  -2   8 -15    8.00    6.10
   0   9 -14    1.60    6.10
   0   9 -14   -4.50    4.40
   2  10 -13   18.20    6.00
   2  10 -13   19.80    7.70
   4  11 -12   12.00    6.50
   4  11 -12   13.90    8.20
   6  12 -11   -4.50    5.30
   6  12 -11    6.90    8.70
  -5   7 -17    8.50    5.70
  -5   7 -17   12.80    6.20
  -5   7 -17    4.20    5.10
  -3   8 -16   23.60    7.10
  -3   8 -16   27.60    7.60
  -1   9 -15   74.99   11.70
  -1   9 -15   82.09   10.60
   1  10 -14   22.60    6.40
   1  10 -14   19.40    8.30
   3  11 -13   26.10    7.90
   5  12 -12   12.20    6.10
   5  12 -12    1.00    9.40
  -4   8 -17    2.50    6.10
  -4   8 -17   -1.30    5.20
  -4   8 -17   -0.80    5.70
  -2   9 -16   -3.50    4.80
  -2   9 -16    9.80    6.80
   0  10 -15    7.80    5.20
   0  10 -15    1.20    6.10
   2  11 -14   10.40    6.00
   4  12 -13   19.30   10.50
   4  12 -13   -0.20    5.70
  -3   9 -17    7.60    7.50
  -1  10 -16   21.50    8.20
  -1  10 -16   24.60    6.60
   1  11 -15   28.70   10.10
   1  11 -15   20.40    7.00
   3  12 -14   10.00    8.40
   2  15  -7   -3.30    5.10
   0  14  -8    9.30    7.00
   0  14  -8    3.80    5.90
   3  15  -6   18.40    8.30
   3  15  -6    6.70    5.50
   1  14  -7   19.10    6.20
  -1  13  -8   33.70    9.40
  -1  13  -8   43.30    8.70
  -3  12  -9   17.90    6.50
  -3  12  -9    8.60    6.80
   4  15  -5   -0.20    6.50
   2  14  -6    0.90    4.50
   0  13  -7   30.30    8.40
   0  13  -7   39.40    7.20
  -2  12  -8    3.40    5.60
  -4  11  -9    4.50    5.60
  -4  11  -9    8.10    5.50
   5  15  -4   24.50    9.10
   5  15  -4   29.80    6.40
   3  14  -5   37.30   10.00
   3  14  -5   35.70    6.80
   1  13  -6   31.60    8.40
   1  13  -6   50.79    8.00
  -1  12  -7   19.60    5.80
  -1  12  -7   20.40    7.50
  -3  11  -8   50.99    9.30
  -3  11  -8   36.60    7.20
  -3  11  -8   30.00    7.70
  -5  10  -9    3.40    5.20
  -5  10  -9    2.20    5.00
   6  15  -3    1.60    4.20
   4  14  -4   30.20    8.60
   4  14  -4   36.30    6.90
   2  13  -5   19.80    6.70
   2  13  -5   19.60    5.90
   0  12  -6   -1.10    4.30
   0  12  -6   10.10    5.60
  -2  11  -7   15.90    6.40
  -2  11  -7   11.20    5.60
  -2  11  -7   15.00    5.20
  -4  10  -8   18.20    6.90
  -4  10  -8   25.10    6.10
  -4  10  -8   25.70    7.30
  -6   9  -9    3.80    4.80
  -6   9  -9    7.20    5.60
  -6   9  -9   19.60    6.40
   7  15  -2    3.90    6.80
   7  15  -2    8.00    4.80
   5  14  -3    4.40    5.80
   5  14  -3   -1.50    3.90
   3  13  -4   47.60    7.30
   3  13  -4   33.60    9.10
   1  12  -5    1.40    5.10
   1  12  -5   -1.60    3.70
  -1  11  -6    6.40    5.70
  -1  11  -6   13.80    5.60
  -1  11  -6    6.50    4.40
  -3  10  -7    5.30    4.40
  -3  10  -7    5.10    5.10
  -5   9  -8   17.80    5.90
  -5   9  -8    9.90    5.30
  -5   9  -8   12.40    5.30
  -7   8  -9    8.80    4.30
  -7   8  -9    8.50    5.50
  -7   8  -9   15.00    5.10
   8  15  -1   26.20    5.90
   6  14  -2   13.60    6.90
   6  14  -2   13.60    4.70
  -4 -13   3   88.39   11.30
   4  13  -3  136.99   14.20
   4  13  -3  111.89   11.30
  -2 -12   4   88.49   10.60
   2  12  -4   88.89   12.30
   2  12  -4   87.29    9.60
   0 -11   5    4.70    3.90
   0  11  -5    0.70    5.00
   0  11  -5    3.70    4.60
   0  11  -5    8.50    4.30
  -2  10  -6   13.90    4.60
  -2  10  -6   12.00    5.40
  -4   9  -7    2.90    4.10
  -4   9  -7    9.60    5.50
  -4   9  -7   13.40    5.10
  -6   8  -8    7.50    4.80
  -6   8  -8    1.30    4.00
  -6   8  -8    2.70    5.00
  -8   7  -9    6.00    3.70
  -8   7  -9   -0.20    5.00
  -8   7  -9    1.00    3.30
   7  14  -1    5.70    7.30
   7  14  -1   -0.10    3.50
  -5 -13   2    5.40    4.60
   5  13  -2    5.90    3.60
   5  13  -2    7.30    5.90
   3  12  -3   82.49    9.40
   3  12  -3   90.19   12.30
  -1 -11   4   24.40    6.10
   1  11  -4   31.10    7.00
   1  11  -4   41.10    6.00
   1 -10   5   41.10    6.80
  -1  10  -5   50.99    7.00
  -1  10  -5   50.19    8.10
  -1  10  -5   51.79    8.70
   3  -9   6  175.08   17.80
  -3   9  -6  189.98   18.90
  -3   9  -6  181.48   17.90
  -3   9  -6  231.58   19.30
  -5   8  -7   62.89    8.40
  -5   8  -7   62.19    8.70
  -5   8  -7   59.29    8.60
  -7   7  -8   13.80    5.20
  -7   7  -8    8.40    3.70
  -9   6  -9   10.00    6.90
   8  14   0   10.10    7.70
   8  14   0   11.00    4.90
   6  13  -1   31.20    5.40
   6  13  -1   40.50    6.10
   6  13  -1   32.70    8.20
  -4 -12   2    4.40    4.30
   4  12  -2    4.40    4.90
  -2 -11   3   19.50    4.90
   2  11  -3   24.80    6.10
   2  11  -3   23.70    4.80
   0 -10   4   12.70    3.90
   0  10  -4    9.50    5.50
   0  10  -4    9.80    4.60
   0  10  -4   15.50    4.40
   2  -9   5   33.10    5.70
  -2   9  -5   30.50    6.40
  -2   9  -5   43.40    6.10
  -2   9  -5   16.50    6.10
  -4   8  -6   47.50    6.90
  -4   8  -6   48.30    7.00
  -4   8  -6   40.20    7.10
  -6   7  -7   20.30    5.10
  -6   7  -7   19.60    4.70
  -6   7  -7   19.80    5.20
  -8   6  -8    0.20    4.90
  -8   6  -8   13.10    3.60
   9  14   1    3.70    6.90
   9  14   1    2.80    4.70
   7  13   0    5.20    3.50
   7  13   0    8.30    5.80
   7  13   0    4.50    3.70
  -5 -12   1   35.60    5.90
   5  12  -1   28.20    8.30
   5  12  -1   28.70    5.70
   5  12  -1   39.20    8.00
  -3 -11   2    7.40    3.70
   3  11  -2   -2.30    4.40
   3  11  -2    5.30    3.20
   3  11  -2   -1.10    4.00
  -1 -10   3  122.59   11.50
   1  10  -3  141.69   13.20
   1  10  -3  102.99   11.60
   1  10  -3  123.79   13.20
   1  -9   4   42.90    5.90
  -1   9  -4   41.60    6.10
  -1   9  -4   29.30    7.20
  -1   9  -4   41.90    6.90
   3  -8   5   16.90    4.50
  -3   8  -5   20.00    4.90
  -3   8  -5   22.80    5.70
  -3   8  -5   26.20    5.30
  -5   7  -6  136.39   14.20
  -5   7  -6  147.39   14.00
  -5   7  -6  146.89   14.00
  -7   6  -7   14.10    5.10
  -7   6  -7    8.10    4.10
  -7   6  -7   10.50    3.60
  -9   5  -8    4.30    5.50
  10  14   2    3.10    4.00
   8  13   1    3.30    3.50
   8  13   1    6.60    5.90
   8  13   1    6.00    4.00
   6  12   0    7.40    3.30
   6  12   0   16.60    7.30
   6  12   0    5.00    5.30
   6  12   0    9.20    3.30
  -4 -11   1   30.70    5.20
   4  11  -1   21.20    4.60
   4  11  -1   24.70    7.10
   4  11  -1   19.60    5.70
  -2 -10   2   81.49    8.90
   2  10  -2   85.59   11.50
   2  10  -2   92.29    9.10
   2  10  -2   99.29   10.80
   0  -9   3  101.19   10.40
   0   9  -3  115.99   10.70
   0   9  -3  103.59   12.10
   0   9  -3  122.39   11.70
   2  -8   4   53.29    5.80
  -2   8  -4   42.90    6.70
  -2   8  -4   44.90    7.20
  -2   8  -4   41.80    6.20
   4  -7   5    5.20    3.20
  -4   7  -5    4.40    4.30
  -4   7  -5    5.30    3.70
  -4   7  -5    3.30    3.40
  -6   6  -6   34.10    5.30
  -6   6  -6   31.50    6.20
  -6   6  -6   44.20    6.30
  -8   5  -7    2.20    2.90
  -8   5  -7    3.60    4.60
  -8   5  -7    8.90    3.10
 -10   4  -8    9.20    5.80
   9  13   2   18.00    5.00
   9  13   2   16.00    4.80
   9  13   2   16.60    6.70
   7  12   1    7.10    6.40
   7  12   1    7.20    3.60
   7  12   1    2.20    3.40
   7  12   1    4.50    5.20
  -5 -11   0    7.10    3.70
   5  11   0   13.30    3.60
   5  11   0   15.50    5.60
   5  11   0   15.00    5.90
  -3 -10   1   10.30    3.30
   3  10  -1   10.10    5.00
   3  10  -1   13.30    4.30
   3  10  -1   16.30    3.50
  -1  -9   2    0.80    2.80
   1   9  -2    0.10    2.50
   1   9  -2    4.90    3.50
   1   9  -2   -0.50    4.20
   1  -8   3    6.70    2.90
  -1   8  -3    1.40    2.90
  -1   8  -3    7.20    2.80
   3  -7   4   31.90    5.00
  -3   7  -4   39.30    5.40
  -3   7  -4   32.20    5.40
   5  -6   5   56.79    7.50
  -5   6  -5   59.39    7.30
  -5   6  -5   58.39    8.20
  -5   6  -5   72.79    8.10
  -7   5  -6    6.40    4.00
  -7   5  -6    1.90    3.50
  -7   5  -6   -4.10    3.90
  -9   4  -7    9.20    5.50
  10  13   3    1.20    4.50
  10  13   3    7.70    4.20
  10  13   3    0.50    5.30
   8  12   2   22.30    7.60
   8  12   2   20.90    4.70
   8  12   2   18.40    6.20
   6  11   1   38.60    8.60
   6  11   1   38.70    5.70
   6  11   1   42.00    5.60
   6  11   1   45.80    8.00
  -4 -10   0  166.88   14.70
   4  10   0  151.58   14.40
   4  10   0  147.39   16.20
   4  10   0  175.78   16.20
  -2  -9   1  171.58   15.40
   2   9  -1  174.28   15.50
   2   9  -1  178.18   16.40
   2   9  -1  167.68   16.70
   0  -8   2   98.99    9.20
   0  -8   2   99.79   10.10
   0   8  -2   92.49    9.20
   0   8  -2   94.89   10.10
   2  -7   3   60.09    7.00
   2  -7   3   48.30    6.00
  -2   7  -3   54.79    6.10
  -2   7  -3   66.99    7.70
   4  -6   4    2.60    2.70
   4  -6   4   11.30    3.90
  -4   6  -4    8.50    3.20
  -4   6  -4    4.90    3.00
  -6   5  -5    1.70    2.70
  -6   5  -5    9.90    3.70
  -8   4  -6   33.20    6.70
  11  13   4    2.80    6.90
  11  13   4    0.70    4.50
   9  12   3    3.70    3.60
   9  12   3   11.00    6.10
   9  12   3    4.60    4.00
   9  12   3    6.40    6.50
   7  11   2    2.70    4.60
   7  11   2   10.10    3.20
   7  11   2    7.40    3.50
   7  11   2   20.30    6.90
   5  10   1    5.50    4.40
   5  10   1   13.20    5.40
   5  10   1    9.00    3.00
  -3  -9   0   31.70    5.00
   3   9   0   41.80    6.30
   3   9   0   46.80    7.10
   3   9   0   44.40    4.90
  -1  -8   1   22.40    3.80
  -1  -8   1   24.00    4.80
   1   8  -1   20.90    4.50
   1   8  -1   41.50    4.10
   1  -7   2   67.29    6.80
   1  -7   2   76.59    8.10
  -1   7  -2   72.09    6.90
  -1   7  -2   58.59    7.30
   3  -6   3  130.39   11.60
   3  -6   3  113.49   10.90
  -3   6  -3  102.59   10.90
  -3   6  -3  124.19   11.30
   5  -5   4   89.49    9.20
   5  -5   4   75.19    8.80
  -5   5  -4   88.49    8.90
  -5   5  -4   92.49    8.60
   7  -4   5   73.79    8.10
  -7   4  -5   51.49    6.40
  -7   4  -5   66.59    7.50
  -9   3  -6  107.79   13.00
 -11   2  -7    3.00    5.20
  10  12   4   13.10    4.50
  10  12   4   16.80    7.70
  10  12   4   13.20    4.80
  10  12   4   18.20    6.40
   8  11   3   19.50    7.00
   8  11   3   23.20    4.60
   8  11   3   27.30    4.90
   8  11   3   31.50    6.60
   6  10   2   31.70    4.80
   6  10   2   34.20    4.90
   6  10   2   37.20    6.70
   6  10   2   36.60    7.60
   4   9   1   53.99    8.30
   4   9   1   46.30    5.20
   4   9   1   48.00    7.30
  -2  -8   0  124.69   11.20
  -2  -8   0  122.29   12.00
   2   8   0  123.29   11.10
   2   8   0  121.99   12.00
   0  -7   1   85.89   11.50
   0  -7   1   57.89    6.10
   0   7  -1   55.69    6.90
   0   7  -1   64.99    6.30
   2  -6   2   10.20    3.30
   2  -6   2    6.80    2.60
  -2   6  -2    6.30    3.00
  -2   6  -2   10.10    2.60
   4  -5   3   12.00    3.10
   4  -5   3    9.20    3.40
  -4   5  -3    9.30    3.00
  -4   5  -3   16.90    3.60
   6  -4   4   20.70    4.20
   6  -4   4   20.40    4.10
  -6   4  -4   24.00    4.60
  -6   4  -4   20.30    3.60
   8  -3   5    7.30    3.90
  -8   3  -5    2.70    4.20
 -10   2  -6   11.60    5.30
  11  12   5   18.40    7.80
  11  12   5   10.90    4.50
  11  12   5    5.20    5.00
  11  12   5    2.40    5.10
   9  11   4   96.49   12.50
   9  11   4   75.99   10.60
   9  11   4   76.19    8.60
   9  11   4   81.99    8.80
   7  10   3   37.20    5.50
   7  10   3   47.30    5.80
   7  10   3   46.70    8.40
   7  10   3   38.90    7.00
   5   9   2    8.60    2.60
   5   9   2    7.70    2.80
   5   9   2    9.30    5.10
   5   9   2   12.80    4.10
  -3  -8  -1   48.20    5.40
  -3  -8  -1   51.99    6.30
   3   8   1   47.70    6.80
   3   8   1   49.60    5.10
  -1  -7   0  369.06   35.30
  -1  -7   0  364.16   33.10
   1   7   0  389.76   33.10
   1   7   0  437.76   33.90
   1  -6   1   82.29    8.80
   1  -6   1   82.49    8.10
  -1   6  -1   99.79    8.20
  -1   6  -1   80.69    8.60
   3  -5   2  111.99   10.40
   3  -5   2  116.49   10.70
  -3   5  -2  105.99   10.30
  -3   5  -2  114.09   10.50
   5  -4   3   13.30    3.00
   5  -4   3   11.10    3.00
  -5   4  -3   15.10    3.30
  -5   4  -3   16.10    2.70
   7  -3   4   64.29    7.40
   7  -3   4   60.39    6.70
  -7   3  -4   61.19    6.60
  -7   3  -4   87.29    9.40
  -9   2  -5    9.00    4.50
  10  11   5    3.00    3.50
  10  11   5    5.70    5.40
  10  11   5    2.90    6.10
   8  10   4   32.60    7.30
   8  10   4   30.20    6.20
   8  10   4   41.40    5.40
   8  10   4   33.40    5.30
   6   9   3    8.90    5.70
   6   9   3    9.70    2.80
   6   9   3    8.10    3.80
  -4  -8  -2  168.38   14.90
   4   8   2  168.38   14.80
   4   8   2  170.98   15.80
  -2  -7  -1  270.67   23.50
  -2  -7  -1  263.87   22.40
   2   7   1  251.57   23.10
   0  -6   0   42.10    4.50
   0  -6   0   46.20    6.00
   0   6   0   39.00    4.50
   0   6   0   45.40    5.60
   2  -5   1  259.97   21.30
   2  -5   1  226.68   20.80
  -2   5  -1  233.08   20.90
  -2   5  -1  250.07   21.20
   4  -4   2  238.08   19.80
   4  -4   2  212.98   19.70
  -4   4  -2  224.78   19.60
  -4   4  -2  224.78   19.70
   6  -3   3   40.70    5.40
   6  -3   3   60.59    6.60
  -6   3  -3   49.50    5.50
  -6   3  -3   51.69    6.60
   8  -2   4    1.10    2.20
   8  -2   4   -2.50    3.20
  -8   2  -4    4.10    4.00
 -10   1  -5    3.10    4.60
 -12   0  -6    9.10    6.00
  11  11   6   22.00    7.40
  11  11   6   23.20    5.00
  11  11   6   25.70    5.60
  11  11   6   30.80    7.90
   9  10   5   35.20    7.20
   9  10   5   31.60    5.20
   9  10   5   26.40    6.40
   9  10   5   33.80    5.40
   7   9   4  152.38   13.90
   7   9   4  139.19   12.40
   7   9   4  131.99   12.50
   7   9   4  119.19   13.80
   5   8   3   -0.40    3.90
   5   8   3    1.90    2.20
   5   8   3    5.00    2.20
   5   8   3    3.70    2.90
  -3  -7  -2   10.70    3.80
  -3  -7  -2   14.90    2.80
   3   7   2   14.50    2.50
   3   7   2   15.60    3.60
  -1  -6  -1   20.50    2.80
  -1  -6  -1   12.60    3.60
   1   6   1   19.70    2.70
   1   6   1   10.80    3.30
   1  -5   0    8.70    2.80
   1  -5   0   11.20    2.50
  -1   5   0   11.70    2.40
  -1   5   0   12.50    3.80
   3  -4   1   43.70    5.30
   3  -4   1   49.30    5.00
  -3   4  -1   42.20    5.10
  -3   4  -1   47.10    5.00
   5  -3   2    3.60    2.10
   5  -3   2    1.40    2.50
  -5   3  -2    1.40    2.00
  -5   3  -2    2.80    2.60
   7  -2   3   50.69    5.40
   7  -2   3   51.39    6.40
  -7   2  -3   46.70    6.50
  -7   2  -3   44.60    5.30
   9  -1   4   36.70    6.80
  -9   1  -4   52.99    7.80
 -11   0  -5    3.60    4.90
  12  11   7    8.50    6.20
  12  11   7    0.30    3.70
  12  11   7   -1.60    4.30
  10  10   6   16.90    5.60
  10  10   6    5.60    4.00
  10  10   6   12.20    3.90
  10  10   6    4.30    3.50
   8   9   5    6.70    5.00
   8   9   5    5.40    3.80
   8   9   5    8.70    3.10
   8   9   5   18.50    3.70
   6   8   4  194.38   16.00
   6   8   4  168.88   17.20
   6   8   4  181.58   16.00
   6   8   4  177.18   16.90
  -4  -7  -3  147.39   15.30
   4   7   3  172.18   14.60
   4   7   3  179.18   15.50
   4   7   3  171.68   14.60
  -2  -6  -2  666.63   56.49
  -2  -6  -2  645.04   55.89
   2   6   2  692.53   55.89
   2   6   2  655.83   56.39
   0  -5  -1  841.52   67.69
   0  -5  -1  828.02   68.09
   0   5   1  773.02   67.59
   0   5   1  782.32   68.49
   2  -4   0  203.38   17.70
   2  -4   0  206.08   17.40
  -2   4   0  194.28   17.40
  -2   4   0  203.08   17.60
   4  -3   1  149.99   13.30
   4  -3   1  150.28   13.60
  -4   3  -1  146.69   13.10
  -4   3  -1  149.69   13.30
   6  -2   2   49.20    5.90
   6  -2   2   40.50    4.70
  -6   2  -2   50.19    6.10
  -6   2  -2   42.50    4.90
   8  -1   3    1.40    2.10
   8  -1   3    4.60    3.60
  -8   1  -3    3.20    2.30
  -8   1  -3    3.10    3.50
 -10   0  -4   -0.50    4.30
 -12  -1  -5   14.10    6.30
  11  10   7    0.10    5.00
  11  10   7    3.00    3.70
  11  10   7   -0.70    3.70
  11  10   7   -0.60    4.00
   9   9   6   -0.40    4.60
   9   9   6    4.60    3.50
   9   9   6    0.80    3.10
   9   9   6    3.30    3.00
   7   8   5   13.50    3.00
   7   8   5   11.30    3.60
   7   8   5   13.40    5.00
   7   8   5   10.40    2.90
   5   7   4   88.49    7.80
   5   7   4   80.99    7.80
   5   7   4   80.59    8.50
  -3  -6  -3  242.68   23.10
  -3  -6  -3  267.37   22.50
   3   6   3  280.57   22.40
   3   6   3  258.97   23.00
  -1  -5  -2    6.30    1.70
  -1  -5  -2    3.50    2.40
   1   5   2    7.10    1.50
   1   5   2    1.80    2.40
   1  -4  -1  144.49   13.80
   1  -4  -1  188.58   14.40
  -1   4   1  165.88   14.20
  -1   4   1  151.48   13.90
   3  -3   0  111.59   10.70
  -3   3   0  120.19   10.60
  -3   3   0  119.99   10.60
   5  -2   1  146.29   12.90
   5  -2   1  143.69   12.70
  -5   2  -1  138.19   12.90
  -5   2  -1  142.39   12.60
   7  -1   2   63.19    6.50
   7  -1   2   70.09    8.00
  -7   1  -2   62.69    7.30
  -7   1  -2   68.09    6.60
   9   0   3   48.10    5.40
   9   0   3   59.99    7.70
  -9   0  -3   69.69    8.20
 -11  -1  -4   46.20    8.40
  12  10   8   12.30    4.90
  12  10   8    2.60    3.90
  12  10   8   11.70    5.40
  10   9   7   -1.30    2.70
  10   9   7   -0.50    3.40
  10   9   7   13.10    4.90
  10   9   7    5.30    3.80
   8   8   6   22.50    4.70
   8   8   6   29.10    4.60
   8   8   6   17.30    5.40
   8   8   6   26.00    3.90
   6   7   5    0.70    1.90
   6   7   5    3.30    3.60
   6   7   5    6.20    2.70
   6   7   5    2.10    2.00
  -4  -6  -4    0.80    2.70
   4   6   4    3.60    2.50
   4   6   4    6.50    1.80
   4   6   4    6.40    1.80
  -2  -5  -3   82.59    8.20
  -2  -5  -3   84.39    7.40
   2   5   3   79.29    8.10
   2   5   3   85.29    7.30
   0  -4  -2   52.39    4.30
   0  -4  -2   31.20    5.00
   0   4   2   47.70    4.20
   0   4   2   36.10    4.80
   2  -3  -1    1.90    2.10
   2  -3  -1    2.80    1.80
  -2   3   1    1.20    1.90
  -2   3   1    0.40    1.50
   4  -2   0   30.00    4.30
   4  -2   0   35.70    4.20
  -4   2   0   34.10    4.10
  -4   2   0   32.60    4.50
   6  -1   1   81.29    7.40
   6  -1   1   77.49    7.80
  -6   1  -1   75.89    7.80
  -6   1  -1   76.59    7.50
   8   0   2   28.50    5.10
   8   0   2   21.50    3.50
  -8   0  -2   19.20    3.70
  -8   0  -2   26.00    5.30
  10   1   3    2.80    2.00
 -10  -1  -3    6.30    4.70
 -12  -2  -4   -3.20    4.50
  11   9   8    9.40    4.70
  11   9   8    5.30    4.90
  11   9   8    3.20    3.70
  11   9   8    5.60    3.60
   9   8   7  114.09   11.30
   9   8   7   93.99    9.90
   9   8   7   88.99    9.40
   7   7   6  178.28   17.00
   7   7   6  181.08   15.90
   7   7   6  182.58   16.40
  -5  -6  -5  153.98   14.00
   5   6   5  157.58   13.40
   5   6   5  152.68   13.90
   5   6   5  150.48   13.30
  -3  -5  -4  676.63   58.39
   3   5   4  659.23   58.29
   3   5   4  713.93   57.79
   3   5   4  707.23   57.79
  -1  -4  -3  125.89   11.80
  -1  -4  -3  133.99   11.10
   1   4   3  120.29   11.60
   1   4   3  134.89   11.10
   1  -3  -2   83.19    8.40
   1  -3  -2   94.59    8.10
  -1   3   2   97.89    8.50
  -1   3   2   86.79    8.00
   3  -2  -1   30.90    3.80
   3  -2  -1   26.10    3.60
  -3   2   1   30.20    5.20
  -3   2   1   25.40    3.50
   5  -1   0   30.40    4.60
   5  -1   0   31.90    4.20
  -5   1   0   43.20    4.90
  -5   1   0   41.70    4.40
   7   0   1   66.79    7.70
   7   0   1   73.39    7.20
  -7   0  -1   81.49    7.50
  -7   0  -1   76.69    7.90
   9   1   2   17.30    4.30
   9   1   2   15.20    3.20
  -9  -1  -2   14.60    3.90
  -9  -1  -2   23.30    4.90
  11   2   3    5.00    2.50
 -11  -2  -3    4.00    4.30
  12   9   9    1.30    4.50
  12   9   9    0.60    4.60
  10   8   8    5.50    3.20
  10   8   8   10.70    4.60
  10   8   8   -0.70    3.20
  -8  -7  -7   13.70    3.10
   8   7   7   12.70    3.30
   8   7   7    4.10    3.20
   8   7   7   14.10    4.50
   6   6   6   38.60    4.10
  -4  -5  -5   72.19    7.60
   4   5   5   68.89    7.30
   4   5   5   78.99    6.80
   4   5   5   77.39    6.70
  -2  -4  -4   40.10    4.30
   2   4   4   25.90    2.70
   0  -3  -3  100.69    8.60
   0  -3  -3   91.39    7.90
   0   3   3   84.09    7.90
   0   3   3   93.69    8.50
   2  -2  -2   37.80    4.60
   2  -2  -2   42.40    4.30
  -2   2   2   42.90    4.40
  -2   2   2   43.60    4.60
   4  -1  -1  813.42   69.59
   4  -1  -1  884.31   69.69
  -4   1   1  825.42   69.69
  -4   1   1  792.72   69.59
   6   0   0   74.29    8.00
   6   0   0   84.79    7.80
  -6   0   0   85.99    8.00
  -6   0   0   81.19    8.20
   8   1   1   48.90    6.50
   8   1   1   49.70    5.70
  -8  -1  -1   47.20    6.10
  -8  -1  -1   51.39    7.10
  10   2   2   20.40    5.20
  10   2   2   27.00    4.20
 -10  -2  -2   23.00    5.30
 -11  -8  -9    7.20    3.70
  11   8   9    2.70    3.30
  11   8   9    5.40    3.70
  11   8   9    8.80    3.60
  -9  -7  -8   33.40    4.60
   9   7   8   22.10    5.00
   9   7   8   21.70    4.20
   9   7   8   30.60    4.50
  -7  -6  -7  156.18   14.10
   7   6   7  163.28   14.20
   7   6   7  169.98   15.00
   7   6   7  154.28   14.90
  -5  -5  -6  326.47   28.00
  -5  -5  -6  332.07   27.50
   5   5   6  322.47   27.50
   5   5   6  318.67   27.80
  -3  -4  -5   38.60    4.60
   3   4   5   42.80    3.70
   3   4   5   45.40    4.50
   3   4   5   38.70    3.90
  -1  -3  -4   37.80    3.20
  -1  -3  -4   30.20    4.30
   1   3   4   35.70    4.40
   1  -2  -3   25.20    3.30
   1  -2  -3   34.10    4.00
  -1   2   3   35.20    3.90
  -1   2   3   26.20    3.20
  -3   1   2   54.89    5.50
   5   0  -1   21.80    3.20
  -5   0   1   15.70    3.40
  -5   0   1   24.50    3.70
   7   1   0    7.70    2.60
   7   1   0    2.30    2.50
  -7  -1   0    2.00    3.00
  -7  -1   0    2.30    3.10
   9   2   1   22.60    4.10
  -9  -2  -1   20.90    4.90
  11   3   2    4.40    3.50
 -11  -3  -2    9.70    4.70
 -12  -8 -10    1.70    3.80
  12   8  10    2.80    4.70
 -10  -7  -9   19.80    4.20
  10   7   9   27.30    4.50
  10   7   9   22.50    4.40
  -8  -6  -8    1.60    2.30
   8   6   8   -0.70    3.10
   8   6   8    0.50    2.10
  -6  -5  -7   40.20    4.50
   6   5   7   42.00    4.40
   6   5   7   48.80    4.70
  -4  -4  -6    7.80    2.60
  -4  -4  -6   11.60    1.80
   4   4   6    7.60    2.10
   4   4   6   10.20    1.70
  -2  -3  -5    5.90    2.30
   2   3   5    7.10    2.20
   0  -2  -4  478.25   39.80
   0  -2  -4  480.25   40.10
   0   2   4  490.25   39.80
   0   2   4  449.56   40.10
   2  -1  -3  148.69   12.70
   2  -1  -3  151.78   12.90
  -2   1   3  136.49   12.70
  -2   1   3  149.19   12.90
   4   0  -2  384.46   33.50
   4   0  -2  412.06   33.50
  -4   0   2  379.96   33.50
  -4   0   2  401.16   33.50
   6   1  -1  145.89   13.40
   6   1  -1  149.79   13.20
  -6  -1   1  150.28   13.40
  -6  -1   1  144.49   13.40
   8   2   0   14.70    3.80
   8   2   0   22.20    4.10
  -8  -2   0   23.20    4.60
  -8  -2   0   21.80    4.20
  10   3   1    7.10    4.00
  10   3   1    4.50    3.50
 -10  -3  -1    6.40    4.00
 -10  -3  -1    2.50    3.90
  12   4   2    7.30    4.30
  12   4   2    6.10    4.20
 -11  -7 -10    0.50    3.20
  11   7  10    8.00    3.70
  -9  -6  -9   31.90    5.10
   9   6   9   37.30    5.30
   9   6   9   46.70    5.20
   9   6   9   34.90    4.40
  -7  -5  -8    3.40    2.30
   7   5   8    0.90    2.70
   7   5   8    2.10    2.00
   7   5   8    3.50    2.10
  -5  -4  -7   27.10    3.50
  -5  -4  -7   34.80    4.30
   5   4   7   31.80    3.90
   5   4   7   34.60    3.60
  -3  -3  -6   58.09    5.60
  -3  -3  -6   57.29    5.00
   3   3   6   54.59    5.00
   3   3   6   58.49    5.50
  -1  -2  -5   39.60    4.40
   1   2   5   37.00    4.30
   1  -1  -4  137.49   12.20
   1  -1  -4  150.38   12.50
  -1   1   4  136.89   12.20
  -1   1   4  141.79   12.50
   3   0  -3   59.69    6.20
   3   0  -3   59.99    6.00
  -3   0   3   60.09    5.90
  -3   0   3   61.59    6.20
   5   1  -2  132.79   11.40
   5   1  -2  149.79   12.50
  -5  -1   2  127.69   11.60
  -5  -1   2  101.49   11.30
   7   2  -1   35.90    4.80
   7   2  -1   29.30    4.90
  -7  -2   1   39.40    5.10
  -7  -2   1   40.20    5.30
   9   3   0    1.70    3.40
  -9  -3   0    7.40    4.10
  -9  -3   0    9.40    4.60
 -11  -4  -1   13.20    5.00
 -12  -7 -11   16.50    4.60
  12   7  11   19.00    5.50
 -10  -6 -10   19.90    4.50
  10   6  10   31.40    5.00
  -8  -5  -9   50.49    6.00
   8   5   9   57.69    6.20
   8   5   9   63.69    5.80
   8   5   9   50.79    6.10
   6   4   8   17.70    2.60
  -4  -3  -7   72.79    6.70
  -4  -3  -7   71.29    7.00
   4   3   7   68.79    6.70
   4   3   7   88.69    7.00
  -2  -2  -6    1.40    1.10
  -2  -2  -6    2.70    1.90
   2   2   6    3.50    1.70
   2   2   6    3.30    1.80
   0  -1  -5    7.10    1.80
   0  -1  -5   -0.50    1.80
   0  -1  -5    8.40    2.50
   0   1   5    6.80    2.50
   2   0  -4  208.58   17.60
   2   0  -4  202.78   17.40
  -2   0   4  193.68   17.30
  -2   0   4  204.68   17.60
   4   1  -3   12.50    3.10
   4   1  -3    6.40    2.70
  -4  -1   3   13.70    3.50
  -4  -1   3    9.20    2.70
   6   2  -2   64.99    6.80
   6   2  -2   59.39    6.60
  -6  -2   2   59.99    7.10
  -6  -2   2   70.49    6.80
   8   3  -1    4.00    3.20
   8   3  -1    1.30    3.30
  -8  -3   1   -1.40    3.10
  -8  -3   1    3.60    4.10
  10   4   0    5.40    4.20
  10   4   0   13.30    4.50
 -10  -4   0   12.80    5.20
 -10  -4   0   11.50    4.40
  12   5   1   -6.80    4.40
  12   5   1   -1.10    4.40
  11   6  11   14.30    4.40
  -9  -5 -10   65.89    7.50
   9   5  10   60.09    7.40
  -7  -4  -9   68.09    7.10
   7   4   9   81.39    6.80
   7   4   9   67.89    7.00
   7   4   9   69.19    7.10
  -5  -3  -8  140.29   13.40
  -5  -3  -8  163.28   13.50
   5   3   8  161.28   13.40
   5   3   8  155.18   13.40
  -3  -2  -7  787.32   61.29
  -3  -2  -7  688.33   61.39
   3   2   7  751.02   61.29
   3   2   7  698.93   61.39
  -1  -1  -6  490.95   40.40
  -1  -1  -6  473.95   40.70
   1   1   6  499.05   40.50
   1   1   6  464.95   40.70
   1   0  -5   20.50    2.90
   1   0  -5   19.40    3.40
   1   0  -5   19.80    2.70
  -1   0   5   16.20    3.40
   3   1  -4  130.09   10.60
   3   1  -4  119.19   10.80
  -3  -1   4  108.49   11.40
  -3  -1   4  107.89   10.90
   5   2  -3   70.99    7.30
   5   2  -3   70.69    7.30
  -5  -2   3   62.99    7.60
  -5  -2   3   74.79    7.10
   7   3  -2   18.40    4.00
   7   3  -2    8.70    3.30
  -7  -3   2   20.40    3.90
  -7  -3   2   18.00    4.40
   9   4  -1    2.70    4.30
   9   4  -1   -2.30    3.70
  -9  -4   1    3.40    3.80
  -9  -4   1    1.10    4.50
  11   5   0   -7.80    4.40
 -11  -5   0    2.10    4.30
 -12  -6 -12    7.80    4.20
  12   6  12   11.30    5.00
 -10  -5 -11    5.30    3.40
  10   5  11    0.70    3.40
  -8  -4 -10   26.80    4.30
   8   4  10   22.80    4.10
  -6  -3  -9    9.60    2.60
   6   3   9   12.90    2.20
   6   3   9    8.70    2.50
  -4  -2  -8    7.70    1.90
  -4  -2  -8    2.70    1.90
   4   2   8    5.00    1.80
   4   2   8    8.90    2.10
  -2  -1  -7   11.70    1.80
  -2  -1  -7   10.60    2.10
   2   1   7    7.60    1.70
   2   1   7   10.80    2.20
   0   0  -6    9.50    2.80
   0   0  -6   14.90    2.30
   0   0   6   14.60    3.10
   0   0   6   10.80    2.20
   2   1  -5   64.79    6.00
   2   1  -5   56.89    6.50
  -2  -1   5   63.19    6.70
   4   2  -4  352.66   30.70
   4   2  -4  374.46   30.90
  -4  -2   4  371.76   31.00
  -4  -2   4  339.37   30.60
   6   3  -3  206.18   18.90
   6   3  -3  217.38   19.00
  -6  -3   3  224.68   19.30
  -6  -3   3  207.38   18.80
   8   4  -2  174.18   16.60
   8   4  -2  170.58   16.50
  -8  -4   2  188.88   16.60
  -8  -4   2  189.68   17.50
  10   5  -1   39.90    6.70
  10   5  -1   43.00    7.50
 -10  -5   1   38.90    6.50
 -10  -5   1   38.40    7.70
  12   6   0    3.60    5.00
  12   6   0  -11.40    5.30
 -11  -5 -12    1.30    3.60
  -9  -4 -11   12.10    3.70
   9   4  11    8.30    3.50
  -7  -3 -10  102.59    9.50
   7   3  10   99.69   10.00
  -5  -2  -9  124.59   11.40
  -5  -2  -9  142.99   11.60
   5   2   9  129.09   11.40
   5   2   9  127.89   11.60
  -3  -1  -8  171.08   15.20
  -3  -1  -8  185.68   15.10
   3   1   8  172.88   15.30
   3   1   8  175.78   15.10
  -1   0  -7  278.77   23.60
  -1   0  -7  280.67   23.30
   1   0   7  275.87   23.30
   1   0   7  264.37   23.60
   1   1  -6   59.69    6.30
   1   1  -6   61.69    5.70
  -1  -1   6   51.79    6.30
   3   2  -5    9.50    3.30
   3   2  -5    9.50    2.50
   3   2  -5   14.60    2.70
  -3  -2   5    4.70    3.40
   5   3  -4   26.20    4.50
   5   3  -4   22.10    3.90
  -5  -3   4   28.70    5.10
  -5  -3   4   32.30    4.10
   7   4  -3   16.40    4.20
   7   4  -3   10.80    3.60
  -7  -4   3   11.50    3.40
  -7  -4   3   18.20    4.80
   9   5  -2   10.10    4.40
   9   5  -2    8.20    3.90
  -9  -5   2   14.20    6.20
  -9  -5   2   12.60    4.20
  11   6  -1   -1.40    4.70
 -11  -6   1    1.60    4.50
 -12  -5 -13    0.10    3.60
 -10  -4 -12    4.20    3.80
  10   4  12    4.90    3.90
  -8  -3 -11  124.29   10.90
   8   3  11  101.79   10.70
  -6  -2 -10   19.70    3.50
   6   2  10   20.00    3.60
  -4  -1  -9    1.90    2.00
  -4  -1  -9   -0.70    1.70
   4   1   9   -3.40    2.00
   4   1   9    1.50    1.90
  -2   0  -8   36.80    3.90
  -2   0  -8   36.80    4.30
   2   0   8   38.40    3.90
   2   0   8   36.60    4.60
   0   1  -7  103.69    9.40
   0   1  -7  106.69    8.90
   0  -1   7   93.19    9.50
   0  -1   7   92.29    8.90
   2   2  -6  217.48   18.20
   2   2  -6  196.88   18.40
   2   2  -6  217.18   18.60
  -2  -2   6  206.68   18.60
   4   3  -5  255.07   21.80
   4   3  -5  246.68   22.00
   4   3  -5  273.27   22.50
  -4  -3   5  233.08   22.20
   6   4  -4  126.49   12.40
   6   4  -4  125.39   11.90
  -6  -4   4  128.39   11.80
  -6  -4   4  129.09   12.80
   8   5  -3  106.69   10.90
   8   5  -3  104.49   11.20
  -8  -5   3  116.89   12.60
  10   6  -2   24.50    6.00
 -10  -6   2   23.10    6.60
 -10  -6   2   15.50    5.30
  12   7  -1    2.00    5.30
  12   7  -1   -3.50    6.00
 -11  -4 -13    0.20    3.90
  11   4  13    4.80    4.60
  -9  -3 -12   56.49    7.50
   9   3  12   57.19    7.40
  -7  -2 -11    2.10    3.10
   7   2  11   11.20    3.10
  -5  -1 -10  261.87   21.40
  -5  -1 -10  256.77   21.70
   5   1  10  243.48   21.40
   5   1  10  241.08   21.60
  -3   0  -9  163.58   13.50
  -3   0  -9  159.68   13.40
   3   0   9  140.99   13.60
   3   0   9  149.99   13.40
  -1   1  -8  132.19   11.60
  -1   1  -8  135.79   12.00
   1  -1   8  132.59   11.60
   1  -1   8  128.29   12.10
   1   2  -7  121.19   11.80
  -1  -2   7  128.69   11.30
  -1  -2   7  126.79   11.90
   3   3  -6  306.77   25.30
   3   3  -6  290.47   25.40
   3   3  -6  296.37   25.70
  -3  -3   6  282.27   25.80
   5   4  -5   96.19    8.90
   5   4  -5   79.69    9.30
   5   4  -5  102.09    9.10
  -5  -4   5   80.99    9.80
   7   5  -4    0.40    3.00
   7   5  -4   -6.30    3.70
  -7  -5   4   -5.90    5.10
   9   6  -3   14.30    5.40
   9   6  -3   12.00    4.90
  -9  -6   3   13.30    6.60
  11   7  -2    6.10    5.70
  11   7  -2    1.40    5.60
 -10  -3 -13   19.60    5.20
  10   3  13   21.70    5.60
  -8  -2 -12   66.29    7.70
   8   2  12   55.59    7.30
  -6  -1 -11  106.09    9.20
   6   1  11   82.69    8.90
  -4   0 -10   40.70    5.10
  -4   0 -10   54.99    5.30
   4   0  10   56.89    5.80
   4   0  10   50.59    5.20
  -2   1  -9   10.30    2.90
  -2   1  -9    5.50    3.90
   2  -1   9    4.60    3.10
   2  -1   9   10.30    2.30
   0   2  -8  107.69   10.40
   0   2  -8  107.19    9.90
   0  -2   8  113.39   10.00
   0  -2   8  107.99   10.60
   2   3  -7   13.00    3.10
   2   3  -7   19.30    3.90
  -2  -3   7   15.60    3.20
  -2  -3   7   13.30    4.30
   4   4  -6    9.70    3.90
   4   4  -6   18.30    3.50
   4   4  -6   11.40    3.10
  -4  -4   6    9.00    4.40
   6   5  -5   16.00    4.20
   6   5  -5   13.40    4.70
   6   5  -5   10.40    3.50
  -6  -5   5   19.20    5.80
   8   6  -4   -1.50    4.50
   8   6  -4    3.30    4.20
  -8  -6   4   -5.50    5.90
  10   7  -3   17.30    6.50
  10   7  -3   39.10    7.70
 -10  -7   3   30.70    8.40
  12   8  -2   -1.20    5.60
  12   8  -2    2.30    6.40
 -11  -3 -14   11.90    5.10
  -9  -2 -13   15.50    4.60
   9   2  13   14.10    4.50
  -7  -1 -12   55.29    7.00
   7   1  12   61.89    7.20
  -5   0 -11  172.08   14.50
  -5   0 -11  161.68   14.10
   5   0  11  158.58   14.80
   5   0  11  155.28   14.30
  -3   1 -10   18.80    3.30
  -3   1 -10   17.00    2.90
   3  -1  10   17.00    3.00
   3  -1  10    8.80    3.30
  -1   2  -9  489.15   40.40
  -1   2  -9  479.45   40.20
   1  -2   9  481.05   40.20
   1  -2   9  446.06   40.50
   1   3  -8  902.01   73.79
   1   3  -8  920.21   74.19
  -1  -3   8  830.02   74.19
  -1  -3   8  855.91   73.89
   3   4  -7   46.10    5.70
   3   4  -7   54.49    7.00
   3   4  -7   57.99    5.80
  -3  -4   7   50.79    7.30
   5   5  -6   43.90    6.40
   5   5  -6   51.99    6.00
   5   5  -6   49.70    7.00
  -5  -5   6   65.29    8.30
   7   6  -5   58.99    8.40
   7   6  -5   38.60    7.00
   7   6  -5   46.90    6.50
  -7  -6   5   49.10    8.40
   9   7  -4    5.30    5.30
   9   7  -4    1.90    5.00
   9   7  -4   10.80    4.70
  -9  -7   4    7.60    8.10
  11   8  -3   -6.40    6.00
  11   8  -3    4.10    6.80
 -10  -2 -14   -1.80    4.20
  10   2  14    1.50    4.20
  -8  -1 -13    4.00    3.80
   8   1  13    8.70    4.00
  -6   0 -12   31.70    4.80
   6   0  12   24.80    4.50
  -4   1 -11   20.20    3.30
  -4   1 -11   24.70    3.90
   4  -1  11   19.50    3.90
   4  -1  11   20.60    4.00
  -2   2 -10    2.20    2.70
  -2   2 -10    2.50    2.30
   2  -2  10   -1.40    3.00
   2  -2  10    5.10    2.30
   0   3  -9  203.38   18.30
   0   3  -9  204.98   18.80
   0  -3   9  216.28   19.10
   0  -3   9  217.68   18.40
   2   4  -8   19.50    3.50
   2   4  -8   13.90    4.20
  -2  -4   8   17.10    5.00
  -2  -4   8   19.10    3.70
   4   5  -7   45.80    5.70
   4   5  -7   36.80    5.40
   4   5  -7   39.90    6.50
  -4  -5   7   37.40    7.20
   6   6  -6   91.09   10.40
   6   6  -6   97.49    9.60
   6   6  -6   82.39    9.20
  -6  -6   6   90.89   11.10
   8   7  -5   29.20    6.70
   8   7  -5   44.10    7.10
   8   7  -5   22.30    5.10
  10   8  -4   34.80    7.90
  10   8  -4   36.00    7.70
 -10  -8   4   33.90    9.30
 -11  -2 -15    3.30    4.70
  -9  -1 -14   14.00    5.00
  -7   0 -13   -1.20    3.70
   7   0  13    0.80    3.50
  -5   1 -12   89.79    8.90
  -5   1 -12  102.69    9.40
   5  -1  12   89.29    9.40
   5  -1  12  105.19    9.60
  -3   2 -11   99.89    9.60
  -3   2 -11  103.19    9.80
   3  -2  11  108.89    9.80
   3  -2  11  101.19   10.20
  -1   3 -10   47.10    5.80
  -1   3 -10   60.59    6.40
   1  -3  10   58.19    6.90
   1  -3  10   56.39    7.00
   1   4  -9  104.89    9.80
   1   4  -9   92.49    8.90
  -1  -4   9   90.69   10.20
  -1  -4   9   83.39    9.00
   3   5  -8   58.79    6.70
   3   5  -8   53.19    7.60
  -3  -5   8   48.90    7.90
  -3  -5   8   52.09    6.60
   5   6  -7   -0.40    2.80
   5   6  -7    5.40    3.40
   5   6  -7   -9.60    3.80
  -5  -6   7   -6.10    5.20
   7   7  -6    5.30    4.30
   7   7  -6    2.10    4.70
   7   7  -6    2.40    5.30
   9   8  -5    9.90    5.40
   9   8  -5    0.60    5.80
  -9  -8   5    9.20    6.50
  11   9  -4   -2.60    5.70
  11   9  -4    7.50    6.60
 -10  -1 -15    8.00    5.00
  -8   0 -14   69.99   10.00
   8   0  14   66.59    8.90
  -6   1 -13   16.80    4.20
  -6   1 -13   11.20    2.70
   6  -1  13   12.30    4.00
  -4   2 -12   28.60    4.50
  -4   2 -12   28.70    4.40
   4  -2  12   23.60    4.50
   4  -2  12   30.20    5.20
  -2   3 -11   98.99   10.00
  -2   3 -11  104.89    9.70
   2  -3  11  105.99    9.80
   2  -3  11   98.79   10.60
   0   4 -10   66.39    7.20
   0   4 -10   65.69    8.00
   0  -4  10   74.09    7.40
   0  -4  10   82.79    9.40
   2   5  -9   11.30    4.40
   2   5  -9   10.30    3.30
  -2  -5   9    6.60    5.10
  -2  -5   9    5.50    3.00
   4   6  -8    3.70    3.30
   4   6  -8   -1.70    4.20
   4   6  -8   -0.90    2.70
  -4  -6   8   -7.90    4.80
   6   7  -7   12.50    5.40
   6   7  -7    6.50    3.90
   6   7  -7   17.40    4.90
  -6  -7   7    8.50    8.50
   8   8  -6   64.89   10.60
   8   8  -6   82.89   10.00
   8   8  -6   81.89   11.10
  -8  -8   6   62.59   11.60
  10   9  -5   -1.60    5.40
  -9   0 -15    2.10    4.40
   9   0  15    8.30    5.60
  -7   1 -14    0.60    5.90
   7  -1  14    4.00    3.90
  -5   2 -13   13.10    3.30
  -5   2 -13   19.10    4.10
   5  -2  13    7.30    3.80
  -3   3 -12    5.40    3.20
  -3   3 -12    5.90    3.10
   3  -3  12   12.00    3.40
   3  -3  12    1.90    3.90
  -1   4 -11   46.30    6.60
  -1   4 -11   54.09    6.20
   1  -4  11   40.30    5.90
   1  -4  11   53.29    7.70
   1   5 -10  139.29   13.20
   1   5 -10  164.18   14.20
  -1  -5  10  129.89   13.30
  -1  -5  10  145.59   14.60
   3   6  -9   98.49    9.80
   3   6  -9   97.79   10.80
  -3  -6   9  104.49   10.10
  -3  -6   9   90.69   11.60
   5   7  -8  139.19   13.80
   5   7  -8  119.99   12.50
  -5  -7   8  149.39   15.90
   7   8  -7   34.60    8.40
   7   8  -7   50.79    7.30
   7   8  -7   55.99    8.00
  -7  -8   7   68.69   11.70
   9   9  -6   10.10    6.00
  -9  -9   6   18.60    8.10
  11  10  -5    7.20    6.90
  11  10  -5   16.50    7.30
 -10   0 -16   14.10    6.10
  -8   1 -15   92.39   11.00
   8  -1  15   82.19   11.50
  -6   2 -14  112.09    9.90
  -6   2 -14   94.19   10.20
  -6   2 -14  112.19   11.10
   6  -2  14  105.39   10.90
  -4   3 -13   67.29    8.00
  -4   3 -13   74.79    8.10
   4  -3  13   89.99    9.50
   4  -3  13   82.49    8.40
  -2   4 -12   23.80    4.50
  -2   4 -12   23.30    4.60
   2  -4  12   30.10    5.80
   2  -4  12   21.90    4.40
   0   5 -11   44.80    7.20
   0   5 -11   47.60    6.50
   0  -5  11   54.89    6.80
   0  -5  11   58.19    8.30
   2   6 -10   26.60    4.80
   2   6 -10   31.30    6.20
  -2  -6  10   16.40    6.40
  -2  -6  10   29.70    5.10
   4   7  -9    2.50    3.80
   4   7  -9    4.00    4.80
   4   7  -9    7.50    3.70
  -4  -7   9    4.10    5.90
   6   8  -8    6.80    5.90
   6   8  -8    3.00    5.40
   6   8  -8   10.00    4.50
  -6  -8   8    7.20    7.30
   8   9  -7   12.00    5.70
  -8  -9   7   17.10    8.20
  10  10  -6    8.20    6.50
  -9   1 -16    2.70    4.90
  -7   2 -15    0.40    4.20
   7  -2  15   -3.30    4.20
  -5   3 -14   32.80    7.20
  -5   3 -14   25.20    4.50
  -5   3 -14   14.10    4.60
   5  -3  14   19.50    5.20
  -3   4 -13   19.60    4.30
  -3   4 -13   18.00    4.60
   3  -4  13   19.50    4.70
   3  -4  13    9.80    5.20
  -1   5 -12   87.99   10.20
  -1   5 -12   90.49    9.60
   1  -5  12  110.39   11.40
   1  -5  12  102.49    9.90
   1   6 -11  230.78   20.10
   1   6 -11  192.98   18.90
  -1  -6  11  204.78   19.10
  -1  -6  11  226.98   20.80
   3   7 -10   58.59    9.20
   3   7 -10   66.99    8.60
  -3  -7  10   49.00    7.60
  -3  -7  10   64.79   11.40
   5   8  -9   75.99   12.70
   5   8  -9   78.89    8.90
  -5  -8   9   66.09   11.90
   7   9  -8   27.80    6.10
  -7  -9   8   20.40    8.70
  -8   2 -16    4.60    5.00
  -6   3 -15   -4.40    3.20
  -6   3 -15    8.50    4.20
   6  -3  15    2.90    4.30
  -4   4 -14   10.30    4.60
  -4   4 -14   13.50    5.00
   4  -4  14    3.80    4.10
  -2   5 -13   18.90    4.50
  -2   5 -13    7.10    4.40
   2  -5  13    4.50    3.90
   2  -5  13    9.80    5.50
   0   6 -12   40.60    6.40
   0   6 -12   44.00    7.50
   0  -6  12   41.50    6.60
   0  -6  12   41.40    8.00
   2   7 -11   -2.20    5.60
   2   7 -11   -4.40    4.90
  -2  -7  11    5.90    3.80
   4   8 -10    2.30    4.00
  -4  -8  10   -1.10    6.70
   6   9  -9    2.10    4.60
  -6  -9   9   19.70    8.90
   8  10  -8    3.60    5.30
  -8 -10   8   14.80    7.70
  10  11  -7    3.30    8.30
  -9   2 -17    6.70    5.40
  -7   3 -16   20.50    5.90
  -5   4 -15    1.30    3.90
  -5   4 -15    1.10    4.00
  -5   4 -15    3.00    3.60
   5  -4  15    0.80    4.30
  -3   5 -14    6.40    4.30
  -3   5 -14   -3.10    4.10
   3  -5  14   -2.10    5.60
  -1   6 -13    7.00    4.00
  -1   6 -13   -3.00    4.50
   1  -6  13   -5.90    6.00
   1  -6  13    2.00    3.90
   1   7 -12   84.79   10.40
   1   7 -12   64.09    8.10
   3   8 -11   54.59    9.40
   3   8 -11   48.30    7.60
  -3  -8  11   60.69   10.80
   5   9 -10    5.60    4.60
  -5  -9  10   10.00    8.00
   7  10  -9    6.30    5.40
  -7 -10   9    6.50    8.70
   9  11  -8    0.80    6.10
   9  11  -8    1.10    8.20
  -8   3 -17   17.00    5.80
  -6   4 -16   25.70    5.90
  -6   4 -16   20.80    5.60
  -6   4 -16   32.00    5.50
  -4   5 -15   77.39    9.50
  -4   5 -15   80.99    9.10
  -4   5 -15   75.49    9.70
   4  -5  15   93.69   10.60
  -2   6 -14   51.99    7.90
  -2   6 -14   62.59    8.80
   2  -6  14   72.39    8.90
   2  -6  14   63.99   10.30
   0   7 -13   78.49    9.40
   0   7 -13   66.79    9.80
   0  -7  13   66.99    9.10
   0  -7  13   67.39   11.60
   2   8 -12   26.50    5.60
   2   8 -12   21.80    6.60
  -2  -8  12   18.60    8.50
   4   9 -11    4.40    4.50
  -4  -9  11   13.60    7.70
   6  10 -10   -2.40    4.60
  -6 -10  10   -1.10    7.20
   8  11  -9    1.40    5.50
  -7   4 -17   -3.90    3.20
  -7   4 -17   -0.20    4.70
  -5   5 -16   -1.90    4.20
  -5   5 -16    5.00    4.50
  -5   5 -16   -2.10    4.10
  -3   6 -15   -2.20    4.30
  -3   6 -15   -0.30    4.60
  -3   6 -15   -3.10    3.90
   3  -6  15    1.50    5.20
  -1   7 -14    8.80    5.20
  -1   7 -14    3.80    4.50
   1  -7  14    4.30    4.60
   1  -7  14    5.00    6.70
   1   8 -13   54.99    7.60
   1   8 -13   18.50    7.00
  -1  -8  13   26.50    8.60
  -1  -8  13   33.40    6.70
  -3  -9  12   42.10    9.90
   5  10 -11    4.40    5.20
  -5 -10  11    9.30    7.90
   7  11 -10   38.80    7.80
  -6   5 -17   21.90    5.90
  -6   5 -17   13.60    5.50
  -6   5 -17   23.50    5.80
  -4   6 -16   39.40    7.10
  -4   6 -16   36.50    7.40
  -4   6 -16   30.20    6.90
  -2   7 -15   55.39    9.70
  -2   7 -15   57.19    8.10
  -2   7 -15   50.69    9.30
   0   8 -14   52.99    7.90
   0   8 -14   47.20    8.80
   0  -8  14   63.79   10.80
   2   9 -13   43.70    7.80
  -2  -9  13   67.69   12.10
   4  10 -12   -4.00    4.40
  -4 -10  12   -2.30    6.90
   6  11 -11   -2.30    5.70
  -5   6 -17  -10.20    4.70
  -5   6 -17    3.40    5.60
  -5   6 -17   -3.70    4.30
  -3   7 -16   -0.30    5.20
  -3   7 -16   -1.20    4.60
  -1   8 -15   -0.20    4.90
  -1   8 -15    4.20    4.70
  -1   8 -15    0.40    5.70
   1   9 -14   11.80    5.10
  -1  -9  14   11.00    7.60
   3  10 -13   81.59   10.50
  -3 -10  13   69.29   13.00
   5  11 -12   31.10    6.90
  -4   7 -17    6.80    6.10
  -2   8 -16    4.90    5.70
  -2   8 -16   -0.80    4.80
   0   9 -15   -3.00    5.90
   0   9 -15   10.80    5.20
   2  10 -14    9.60    7.00
   2  10 -14    7.40    5.60
   4  11 -13   23.80    9.10
   4  11 -13   18.50    6.30
  -3   8 -17   14.80    6.50
  -3   8 -17    4.10    5.60
  -1   9 -16    1.70    5.80
  -1   9 -16    6.10    6.90
   1  10 -15   -2.40    5.10
   1  10 -15    6.30    6.90
   3  11 -14    8.10    8.10
   3  11 -14   13.60    6.40
  -2   9 -17    9.70    7.40
  -2   9 -17    5.80    5.60
   0  10 -16   18.90    6.50
   0  10 -16   22.80    8.50
   2  11 -15   17.80    6.60
   2  11 -15   18.60    8.50
   1  11 -16   19.00    9.30
   2  15  -6    0.90    4.90
   2  15  -6   -0.60    6.40
   0  14  -7   -2.10    4.70
  -2  13  -8    2.00    5.10
  -2  13  -8    5.10    6.40
   3  15  -5   15.70    8.10
  -1  13  -7    6.60    6.60
  -3  12  -8    1.70    5.00
  -3  12  -8    3.90    6.00
  -5  11  -9    3.60    6.70
   4  15  -4    2.00    4.20
   4  15  -4   -1.10    6.80
   2  14  -5   34.40    6.90
   0  13  -6   42.50    7.50
   0  13  -6   27.20    8.60
  -2  12  -7   31.00    7.50
  -2  12  -7   30.70    9.40
  -4  11  -8   34.60    7.70
  -4  11  -8   43.70    9.70
  -6  10  -9   16.40    6.50
   5  15  -3   18.80    5.90
   5  15  -3   27.60    9.30
   3  14  -4    0.90    5.70
   3  14  -4   -3.80    3.60
   1  13  -5   -1.70    4.10
   1  13  -5    6.50    5.80
  -1  12  -6   14.90    5.80
  -1  12  -6   21.50    5.60
  -3  11  -7   12.50    6.50
  -3  11  -7   10.70    6.30
  -3  11  -7   17.90    5.40
  -5  10  -8    4.40    4.50
  -5  10  -8    5.10    5.00
  -7   9  -9    1.30    4.30
   6  15  -2    6.80    4.30
   4  14  -3    7.40    4.60
   4  14  -3   11.70    6.80
   2  13  -4   44.60    9.90
   2  13  -4   64.59    8.60
   0  12  -5   47.70    8.80
   0  12  -5   43.80    7.60
  -2  11  -6   64.09    9.00
  -2  11  -6   56.49    9.70
  -2  11  -6   45.70    8.90
  -4  10  -7   47.10    8.70
  -4  10  -7   39.70    7.80
  -4  10  -7   43.20    8.50
  -6   9  -8   17.50    5.80
  -6   9  -8   18.50    6.10
  -6   9  -8   11.40    6.10
   7  15  -1    3.20    4.20
   7  15  -1   -2.20    6.40
   5  14  -2    7.30    6.20
   5  14  -2    1.10    3.50
  -3 -13   3   49.10    8.20
   3  13  -3   65.49    8.30
   3  13  -3   69.79   10.90
  -1 -12   4   15.40    4.90
   1  12  -4   23.70    6.60
   1  12  -4   20.70    5.50
  -1  11  -5    8.50    6.00
  -1  11  -5   11.20    4.60
  -1  11  -5    7.20    4.80
  -3  10  -6   28.10    5.80
  -3  10  -6   23.90    6.60
  -5   9  -7    4.40    4.30
  -5   9  -7    3.90    4.30
  -5   9  -7    9.80    5.40
  -7   8  -8   17.30    5.60
  -7   8  -8    4.90    4.20
  -7   8  -8    9.10    5.50
   8  15   0    6.30    6.80
   8  15   0    8.10    4.20
   6  14  -1   14.50    4.50
   6  14  -1   23.50    7.40
  -4 -13   2    4.60    4.50
   4  13  -2    4.50    5.50
   4  13  -2    3.70    3.70
  -2 -12   3   -7.90    4.20
   2  12  -3    0.30    4.60
   2  12  -3    5.80    5.30
   2  12  -3    1.30    3.50
   0 -11   4   69.89    8.80
   0  11  -4   71.09   13.90
   0  11  -4   93.49    9.40
   0  11  -4   87.19   10.70
   2 -10   5    1.80    3.80
  -2  10  -5    2.50    4.40
  -2  10  -5    0.90    3.70
  -2  10  -5    3.20    4.90
  -4   9  -6   22.40    5.80
  -4   9  -6   35.00    6.80
  -4   9  -6   22.50    5.80
  -6   8  -7   -0.40    4.60
  -6   8  -7    4.60    4.10
  -6   8  -7    6.40    4.90
  -8   7  -8   -0.70    3.30
  -8   7  -8   11.90    4.30
  -8   7  -8    7.40    5.60
   9  15   1    0.40    4.00
   7  14   0   37.60   11.40
   7  14   0   47.20    6.80
   7  14   0   55.39    7.20
  -5 -13   1   97.69   12.10
   5  13  -1   73.99   11.80
   5  13  -1   80.69    9.00
  -3 -12   2   40.30    6.80
   3  12  -2   51.89    9.10
   3  12  -2   51.09    8.20
  -1 -11   3  116.89   12.20
   1  11  -3  142.09   14.20
   1 -10   4   22.80    5.00
  -1  10  -4   22.10    6.40
  -1  10  -4   25.30    5.00
  -1  10  -4   17.30    5.50
   3  -9   5   13.20    4.20
  -3   9  -5   14.40    5.00
  -3   9  -5   15.00    5.70
  -3   9  -5   19.80    4.70
  -5   8  -6   25.50    5.90
  -5   8  -6   32.80    7.10
  -5   8  -6   45.80    6.80
  -7   7  -7   11.90    4.80
  -7   7  -7   10.60    5.20
  -7   7  -7    7.00    3.60
  -9   6  -8   -3.30    5.70
   8  14   1    8.10    7.00
   8  14   1    5.10    4.20
   8  14   1    7.00    3.60
   6  13   0    7.80    3.50
   6  13   0   -1.20    5.30
   6  13   0    9.40    4.00
  -4 -12   1    8.00    4.10
   4  12  -1   13.20    3.60
   4  12  -1   11.80    5.60
  -2 -11   2   27.00    5.00
   2  11  -2   24.70    6.40
   2  11  -2   18.10    6.50
   2  11  -2   21.90    4.50
   0 -10   3  102.99   10.50
   0  10  -3  102.39   12.50
   0  10  -3  110.89   10.80
   0  10  -3  112.99   11.90
   2  -9   4   30.50    5.10
  -2   9  -4   27.40    5.70
  -2   9  -4   18.90    6.00
   4  -8   5   55.99    8.50
  -4   8  -5   89.59    9.70
  -4   8  -5   68.49   10.00
  -4   8  -5   84.19    8.90
  -6   7  -6  115.49   11.60
  -6   7  -6  110.99   11.20
  -6   7  -6   97.69   11.90
  -8   6  -7   -3.00    3.90
  -8   6  -7    5.40    3.50
   9  14   2   11.20    4.40
   9  14   2   15.80    5.10
   9  14   2    2.20    6.40
   7  13   1   16.70    4.60
   7  13   1   28.00    5.10
   7  13   1   24.70    7.10
  -5 -12   0   64.79    7.90
   5  12   0   50.09    9.50
   5  12   0   46.00    9.00
   5  12   0   54.19    7.10
  -3 -11   1   10.70    4.10
   3  11  -1   11.40    5.60
   3  11  -1    8.60    3.50
   3  11  -1   10.30    4.70
  -1 -10   2   34.60    5.30
   1  10  -2   41.50    5.60
   1  10  -2   37.70    7.60
   1  10  -2   39.10    6.70
   1  -9   3    3.70    3.10
  -1   9  -3    2.90    3.70
  -1   9  -3   -0.70    4.00
  -1   9  -3   10.20    3.30
   3  -8   4    9.20    3.10
  -3   8  -4   -1.20    3.40
  -3   8  -4    0.10    4.30
  -5   7  -5   16.60    4.40
  -5   7  -5   29.00    5.60
  -5   7  -5   15.90    4.30
  -7   6  -6   21.50    4.50
  -7   6  -6   48.40    6.40
  -7   6  -6   32.40    6.20
  -9   5  -7   28.00    7.20
  10  14   3    3.10    4.30
  10  14   3    4.30    6.00
   8  13   2   49.10    9.70
   8  13   2   40.60    6.40
   6  12   1    9.10    3.20
   6  12   1   13.10    6.10
   6  12   1    4.50    2.90
   6  12   1   10.90    5.40
  -4 -11   0   52.59    6.80
   4  11   0   46.30    6.10
   4  11   0   46.70    8.80
   4  11   0   50.79    8.90
  -2 -10   1   39.90    5.50
   2  10  -1   35.20    6.70
   2  10  -1   46.30    5.10
   2  10  -1   34.60    7.30
   0  -9   2   16.60    3.60
   0  -9   2   15.50    4.60
   0   9  -2   15.20    4.40
   0   9  -2   20.60    3.90
   2  -8   3  158.38   14.30
   2  -8   3  137.99   13.40
  -2   8  -3  156.38   14.40
  -2   8  -3  133.49   13.40
   4  -7   4   30.70    5.30
   4  -7   4   35.20    6.50
  -4   7  -4   41.50    6.00
  -6   6  -5   12.70    3.60
  -6   6  -5   13.80    4.60
  -6   6  -5   11.40    4.20
  -8   5  -6   77.59    9.90
  -8   5  -6   51.99    6.60
  -8   5  -6   52.29    6.40
 -10   4  -7   -1.40    5.10
   9  13   3    1.30    3.30
   9  13   3    3.20    4.10
   9  13   3    3.40    5.40
   7  12   2    8.70    6.80
   7  12   2    1.50    3.20
   7  12   2    5.00    3.30
   7  12   2   -0.50    4.60
  -5 -11  -1   13.30    4.00
   5  11   1    8.00    3.10
   5  11   1    7.80    5.80
   5  11   1   15.40    6.40
  -3 -10   0   88.69    8.40
   3  10   0   79.09    8.20
   3  10   0   80.49   10.30
   3  10   0   77.79    9.60
  -1  -9   1   59.49    6.80
  -1  -9   1   68.59    8.00
   1   9  -1   61.19    6.90
   1   9  -1   81.19    8.20
   1  -8   2  188.88   16.70
   1  -8   2  163.68   15.60
  -1   8  -2  171.18   15.80
  -1   8  -2  184.58   16.40
   3  -7   3   46.30    6.90
   3  -7   3   37.60    5.70
  -3   7  -3   43.50    6.30
  -3   7  -3   49.50    6.00
   5  -6   4    8.00    4.00
   5  -6   4    5.10    2.90
  -5   6  -4    9.50    4.00
  -5   6  -4    3.90    3.10
  -7   5  -5    5.70    4.00
  -7   5  -5    9.50    3.60
  -9   4  -6    3.50    4.90
  10  13   4   15.80    5.00
  10  13   4   23.70    6.60
  10  13   4   20.50    5.50
   8  12   3   19.70    6.40
   8  12   3   17.60    7.70
   8  12   3   19.00    4.50
   8  12   3   25.10    4.70
   6  11   2   35.00    5.10
   6  11   2   34.40    8.00
   6  11   2   34.90    5.00
   6  11   2   22.90    7.50
  -4 -10  -1    2.40    2.80
   4  10   1    9.70    2.70
   4  10   1    7.00    4.90
   4  10   1    2.00    3.50
  -2  -9   0   15.70    3.20
  -2  -9   0    9.30    3.80
   2   9   0   12.30    3.80
   2   9   0   17.30    3.30
   0  -8   1    6.20    3.50
   0  -8   1    6.60    2.70
   0   8  -1   10.60    2.70
   0   8  -1    9.20    3.30
   2  -7   2   11.90    3.90
   2  -7   2   11.40    3.30
  -2   7  -2   11.10    3.60
  -2   7  -2    9.00    2.90
   4  -6   3   32.70    5.20
   4  -6   3   17.30    4.10
  -4   6  -3   27.30    4.40
  -4   6  -3   28.10    4.40
   6  -5   4    9.60    3.90
  -6   5  -4    3.50    3.50
  -6   5  -4   14.60    3.30
  -8   4  -5   13.10    3.60
  -8   4  -5   24.60    6.10
  11  13   5    2.10    4.60
  11  13   5    5.40    4.60
   9  12   4   18.90    4.80
   9  12   4   14.80    7.00
   9  12   4   20.00    4.80
   9  12   4   12.20    6.10
   7  11   3   23.10    6.10
   7  11   3   21.70    6.80
   7  11   3   13.00    3.50
   7  11   3   21.40    4.00
   5  10   2   56.79    6.50
   5  10   2   71.19   10.30
   5  10   2   69.29    8.90
  -3  -9  -1  194.38   17.10
  -3  -9  -1  171.38   16.40
   3   9   1  188.58   16.00
   3   9   1  170.28   16.90
  -1  -8   0  362.16   29.80
  -1  -8   0  339.07   28.80
   1   8   0  331.27   28.70
   1   8   0  313.67   29.40
   1  -7   1  209.48   18.70
   1  -7   1  197.78   17.90
  -1   7  -1  215.98   18.50
  -1   7  -1  197.18   17.90
   3  -6   2   20.90    4.40
   3  -6   2   27.70    4.10
  -3   6  -2   20.50    4.00
  -3   6  -2   22.60    4.10
   5  -5   3   46.90    6.20
   5  -5   3   36.80    5.40
  -5   5  -3   43.30    6.10
  -5   5  -3   47.10    5.60
   7  -4   4    2.50    3.30
  -7   4  -4    6.10    4.50
  -7   4  -4    4.40    2.90
  -9   3  -5   28.00    6.20
 -11   2  -6    5.00    5.70
  10  12   5    0.20    3.20
  10  12   5    1.90    4.00
  10  12   5   11.90    7.20
  10  12   5    3.40    4.90
   8  11   4   17.30    6.70
   8  11   4   20.20    6.00
   8  11   4   24.40    4.50
   8  11   4   21.30    4.30
   6  10   3    7.60    5.40
   6  10   3    7.60    3.00
   6  10   3   10.10    3.00
   6  10   3    6.90    4.30
  -4  -9  -2   25.20    4.00
   4   9   2   16.40    3.00
   4   9   2   15.80    4.30
  -2  -8  -1   60.69    7.60
  -2  -8  -1   60.69    6.30
   2   8   1   57.39    7.20
   2   8   1   69.99    6.30
   0  -7   0  115.49   12.50
   0  -7   0   97.09    9.30
   0   7   0  114.59    9.30
   0   7   0   84.29    9.80
   2  -6   1   50.89    6.30
   2  -6   1   46.20    5.50
  -2   6  -1   55.79    6.10
  -2   6  -1   54.49    5.60
   4  -5   2   47.70    6.00
   4  -5   2   51.99    5.70
  -4   5  -2   49.10    5.90
  -4   5  -2   55.49    5.80
   6  -4   3   70.09    8.50
   6  -4   3   93.69    8.80
  -6   4  -3   83.49    8.60
  -6   4  -3   86.59    8.80
   8  -3   4   76.09    9.70
   8  -3   4   99.09    9.10
  -8   3  -4   90.39    8.70
  -8   3  -4   93.79   10.10
 -10   2  -5   40.60    7.80
  11  12   6    4.80    5.10
  11  12   6    3.00    4.70
  11  12   6   11.60    4.40
  11  12   6   13.00    6.90
   9  11   5   11.10    4.00
   9  11   5    7.40    5.90
   9  11   5    9.00    3.40
   9  11   5    3.10    4.40
   7  10   4   60.49    6.80
   7  10   4   62.19    9.70
   7  10   4   66.19    7.00
   7  10   4   73.89    9.20
   5   9   3  153.58   13.60
   5   9   3  144.89   13.50
   5   9   3  162.68   14.70
   5   9   3  154.68   15.40
  -3  -8  -2   14.50    2.90
  -3  -8  -2   16.40    4.40
   3   8   2   24.40    2.90
   3   8   2   14.60    3.60
  -1  -7  -1  207.58   17.40
  -1  -7  -1  190.08   19.60
   1   7   1  206.48   17.40
   1   7   1  190.08   18.00
   1  -6   0  199.38   17.60
   1  -6   0  192.18   16.90
  -1   6   0  193.98   16.90
  -1   6   0  193.18   17.40
   3  -5   1   33.90    5.00
   3  -5   1   38.00    4.60
  -3   5  -1   36.90    4.60
  -3   5  -1   32.70    4.70
   5  -4   2    9.10    2.70
   5  -4   2    6.30    2.80
  -5   4  -2    7.40    3.00
  -5   4  -2    6.20    3.70
   7  -3   3   15.80    3.60
   7  -3   3   12.00    3.90
  -7   3  -3   19.60    3.50
  -7   3  -3   18.00    4.70
  -9   2  -4    2.90    4.00
  10  11   6   10.00    4.90
  10  11   6   14.70    4.30
  10  11   6   10.40    4.10
  10  11   6   18.40    6.90
   8  10   5   95.59    9.50
   8  10   5   96.49   12.60
   8  10   5  103.49   11.00
   8  10   5   93.89    9.60
   6   9   4  172.88   15.00
   6   9   4  175.28   15.10
   6   9   4  168.58   16.10
   6   9   4  153.58   16.60
  -4  -8  -3   36.30    5.70
   4   8   3   41.60    5.80
   4   8   3   35.40    4.30
  -2  -7  -2   37.00    4.00
  -2  -7  -2   31.90    5.20
   2   7   2   31.30    4.90
   0  -6  -1  192.78   18.40
   0  -6  -1  235.18   19.20
   0   6   1  222.18   19.00
   2  -5   0   52.79    5.20
  -2   5   0   44.10    5.10
   4  -4   1    7.00    2.60
   4  -4   1    6.10    2.60
  -4   4  -1    4.00    2.80
  -4   4  -1    8.10    2.80
   6  -3   2  150.08   15.20
   6  -3   2  182.38   15.20
  -6   3  -2  168.58   15.50
  -6   3  -2  170.18   14.90
   8  -2   3   21.20    3.60
   8  -2   3   25.40    5.00
  -8   2  -3   15.20    4.60
  -8   2  -3   19.20    3.50
 -10   1  -4    1.10    4.60
 -12   0  -5    7.60    5.90
  11  11   7    8.50    4.20
  11  11   7   23.90    6.80
  11  11   7    2.60    4.20
   9  10   6   11.00    4.30
   9  10   6   14.50    3.70
   9  10   6   12.10    5.50
   9  10   6   11.90    3.70
   7   9   5    6.10    2.70
   7   9   5    0.20    3.30
   7   9   5    1.50    4.60
  -5  -8  -4  101.79   10.80
   5   8   4  114.89   10.90
   5   8   4  110.59    9.80
   5   8   4  107.99    9.90
  -3  -7  -3   33.30    5.20
  -3  -7  -3   35.30    4.20
   3   7   3   30.70    4.80
   3   7   3   32.10    3.60
  -1  -6  -2  637.74   52.69
  -1  -6  -2  640.94   51.99
   1   6   2  612.44   51.99
   1   6   2  581.44   52.49
   1  -5  -1  811.82   71.29
   1  -5  -1  867.91   71.69
  -1   5   1  869.91   71.69
   3  -4   0   49.60    5.40
   3  -4   0   54.79    5.70
  -3   4   0   45.50    5.40
  -3   4   0   53.09    5.60
   5  -3   1  193.58   16.20
   5  -3   1  180.28   16.30
  -5   3  -1  176.88   16.00
  -5   3  -1  180.68   16.40
   7  -2   2   76.09    7.40
   7  -2   2   67.99    8.00
  -7   2  -2   74.79    8.00
  -7   2  -2   72.69    7.40
   9  -1   3    4.70    2.40
   9  -1   3    4.00    3.60
  -9   1  -3   -2.40    3.80
 -11   0  -4   -2.10    4.20
  10  10   7   51.89    9.20
  10  10   7   62.49    7.70
  10  10   7   60.29    6.90
  10  10   7   47.90    7.60
   8   9   6   94.29    9.50
   8   9   6   96.59   12.10
   8   9   6  109.99    9.70
   8   9   6   96.49   10.50
   6   8   5   51.29    6.40
   6   8   5   56.59    5.50
   6   8   5   48.80    5.50
   6   8   5   64.89    8.10
  -4  -7  -4  134.99   13.00
   4   7   4  141.29   12.00
   4   7   4  123.19   12.70
   4   7   4  144.19   12.00
  -2  -6  -3   31.60    3.50
  -2  -6  -3   43.60    5.40
   2   6   3   42.80    5.10
   2   6   3   25.70    3.30
   0  -5  -2    1.80    2.40
   0  -5  -2    2.90    1.80
   0   5   2    6.30    2.80
   0   5   2    4.90    1.70
   2  -4  -1   29.50    3.70
   2  -4  -1   36.20    4.50
  -2   4   1   31.00    3.70
  -2   4   1   28.40    4.00
   4  -3   0    0.30    2.10
   4  -3   0    7.80    2.90
  -4   3   0    4.00    2.00
  -4   3   0    2.20    2.10
   6  -2   1    1.70    2.50
   6  -2   1    2.30    2.30
  -6   2  -1    3.60    2.60
  -6   2  -1    4.80    2.80
   8  -1   2   18.30    4.20
   8  -1   2   11.00    2.90
  -8   1  -2   11.80    3.30
  -8   1  -2   20.00    4.70
 -10   0  -3   16.90    5.00
 -12  -1  -4   24.10    7.40
  11  10   8    3.40    4.00
  11  10   8    1.60    3.80
  11  10   8   11.00    5.40
   9   9   7   31.30    4.80
   9   9   7   26.70    5.50
   9   9   7   48.00    7.10
   9   9   7   22.60    4.70
   7   8   6    1.80    2.20
   7   8   6    7.70    2.50
   7   8   6    5.50    4.30
   7   8   6    3.60    3.20
  -5  -7  -5   55.09    7.20
   5   7   5   70.79    6.30
   5   7   5   69.49    7.20
   5   7   5   69.89    6.40
  -3  -6  -4  539.75   48.10
   3   6   4  609.64   47.40
   3   6   4  536.95   48.00
  -1  -5  -3  518.85   44.30
  -1  -5  -3  563.64   44.90
   1   5   3  506.05   44.30
   1  -4  -2  780.72   63.49
   1  -4  -2  735.73   63.79
  -1   4   2  752.42   63.49
  -1   4   2  757.02   63.79
   3  -3  -1  560.84   47.00
   3  -3  -1  577.54   46.90
  -3   3   1  513.25   46.90
  -3   3   1  570.14   46.90
   5  -2   0   47.60    5.80
   5  -2   0   56.79    5.80
  -5   2   0   54.19    6.00
  -5   2   0   60.39    5.80
   7  -1   1   27.50    4.10
   7  -1   1   27.70    4.70
  -7   1  -1   40.50    5.50
  -7   1  -1   32.10    4.30
   9   0   2    4.90    2.60
   9   0   2    5.70    3.70
  -9   0  -2    0.90    4.00
  -9   0  -2    3.30    3.00
 -11  -1  -3    5.10    5.20
  12  10   9   15.80    5.30
  12  10   9    7.10    4.60
  12  10   9    6.40    4.20
  12  10   9    6.60    5.00
  10   9   8   19.40    5.40
  10   9   8   10.80    4.40
  10   9   8   18.20    4.10
  10   9   8   21.70    4.60
   8   8   7   16.70    4.20
   8   8   7   24.10    5.50
   8   8   7   22.20    4.20
   6   7   6    6.30    2.00
   6   7   6    9.10    2.40
   6   7   6    6.80    2.80
  -4  -6  -5   59.59    6.30
   4   6   5   57.49    6.10
   4   6   5   55.09    5.30
   4   6   5   55.19    5.20
  -2  -5  -4  220.88   19.70
  -2  -5  -4  231.18   19.00
   2   5   4  224.98   19.00
   2   5   4  220.18   19.70
   0  -4  -3   32.40    4.30
   0  -4  -3   25.50    3.00
   0   4   3   29.30    3.10
   0   4   3   27.10    3.90
   2  -3  -2   11.00    2.60
   2  -3  -2   15.50    2.40
  -2   3   2   13.20    2.40
  -2   3   2   16.60    2.30
   4  -2  -1   57.49    6.60
   4  -2  -1   88.29    6.90
  -4   2   1   78.99    6.70
  -4   2   1   46.70    6.50
   6  -1   0   51.49    6.10
   6  -1   0   45.80    5.30
  -6   1   0   46.80    5.60
  -6   1   0   62.29    6.60
   8   0   1  109.69   10.20
   8   0   1  107.99   10.70
  -8   0  -1  102.89   10.20
  10   1   2   22.50    3.90
 -10  -1  -2   28.20    4.80
 -10  -1  -2   26.00    5.90
 -12  -2  -3   25.20    6.50
  11   9   9   11.70    4.60
  11   9   9   18.50    4.40
  11   9   9   17.50    5.50
  11   9   9   19.00    4.90
   9   8   8   15.50    3.90
   9   8   8   16.10    3.60
   7   7   7   24.80    3.50
   7   7   7   28.60    5.60
   7   7   7   19.40    4.00
  -5  -6  -6   14.30    3.60
   5   6   6    8.10    2.90
   5   6   6   19.20    2.60
   5   6   6   14.70    2.30
  -3  -5  -5  108.59   10.60
   3   5   5  118.99    9.80
   3   5   5  115.49    9.80
   3   5   5  108.39   10.50
  -1  -4  -4   20.30    3.50
  -1  -4  -4   21.20    2.20
   1   4   4   17.90    2.10
   1   4   4   19.70    3.20
   1  -3  -3   17.30    3.00
   1  -3  -3   15.10    2.20
  -1   3   3    9.60    2.60
  -1   3   3   12.90    2.10
   3  -2  -2   13.50    2.70
   3  -2  -2   16.70    3.10
  -3   2   2   13.50    2.60
  -3   2   2   18.30    3.00
   5  -1  -1   32.50    4.80
   5  -1  -1   34.40    4.40
  -5   1   1   36.20    4.60
  -5   1   1   44.60    5.00
   7   0   0    7.70    3.10
   7   0   0   13.70    3.00
  -7   0   0    5.80    3.20
  -7   0   0    7.80    3.10
   9   1   1   18.80    4.60
   9   1   1   24.40    4.10
  -9  -1  -1   26.70    5.70
  11   2   2    0.00    3.10
 -11  -2  -2   -5.10    3.60
  12   9  10   11.40    4.20
  12   9  10   12.20    5.00
  10   8   9   20.50    4.00
  10   8   9   15.50    4.70
  10   8   9   18.10    3.90
  -8  -7  -8   63.59    6.70
   8   7   8   69.79    7.30
   8   7   8   81.89    8.80
   8   7   8   61.79    6.80
  -6  -6  -7  334.27   28.90
   6   6   7  317.97   28.70
   6   6   7  346.87   28.30
  -4  -5  -6  234.68   20.50
   4   5   6  241.18   19.90
   4   5   6  229.58   20.40
   4   5   6  233.98   19.90
  -2  -4  -5   61.49    6.40
   2   4   5   62.89    6.20
   0  -3  -4  548.55   45.30
   0  -3  -4  545.65   45.70
   0   3   4  545.05   45.30
   0   3   4  523.95   45.70
   2  -2  -3   28.60    3.70
   2  -2  -3   35.30    4.00
  -2   2   3   34.80    4.00
  -2   2   3   27.20    3.50
   4  -1  -2    8.70    2.60
   4  -1  -2    3.80    2.20
  -4   1   2    5.80    2.40
  -4   1   2    8.80    2.80
   6   0  -1   24.50    4.10
   6   0  -1   27.40    3.90
  -6   0   1   31.60    4.50
  -6   0   1   25.40    4.20
   8   1   0   16.20    4.30
   8   1   0   21.10    3.90
  -8  -1   0   20.80    4.80
  -8  -1   0   15.90    4.30
  10   2   1    5.60    3.60
 -10  -2  -1   17.90    4.80
 -10  -2  -1   11.90    4.40
  12   3   2    4.90    4.20
 -11  -8 -10    2.80    3.30
  11   8  10    2.90    3.50
  11   8  10    6.20    3.50
  -9  -7  -9    8.50    2.90
   9   7   9    4.80    2.70
   9   7   9   -0.30    3.50
   9   7   9    5.20    2.70
  -7  -6  -8   34.80    3.60
   7   6   8   23.30    3.50
   7   6   8   21.40    4.80
  -5  -5  -7   35.60    3.50
  -5  -5  -7   29.30    4.30
   5   5   7   31.00    4.00
   5   5   7   35.20    3.40
  -3  -4  -6   59.39    6.00
   3   4   6   56.09    5.80
  -1  -3  -5  217.58   18.00
   1   3   5  198.38   18.00
   1  -2  -4  264.87   22.00
   1  -2  -4  255.37   21.70
  -1   2   4  252.17   21.90
  -1   2   4  250.97   21.70
   3  -1  -3  197.48   17.70
   3  -1  -3  213.88   17.60
  -3   1   3  202.28   17.90
  -3   1   3  202.08   17.70
   5   0  -2  229.98   19.70
   5   0  -2  217.98   19.60
  -5   0   2  229.28   19.60
  -5   0   2  225.48   19.70
   7   1  -1  124.59   12.30
   7   1  -1  127.99   12.00
  -7  -1   1  136.89   12.30
  -7  -1   1  136.49   12.40
   9   2   0   14.50    4.30
   9   2   0   19.80    4.10
  -9  -2   0   15.90    4.30
  -9  -2   0   14.70    4.30
  11   3   1   10.00    4.30
 -11  -3  -1   15.10    5.40
 -12  -8 -11    0.70    3.60
  12   8  11    6.30    4.40
 -10  -7 -10   47.20    6.20
  10   7  10   39.10    5.90
  10   7  10   43.70    5.70
  10   7  10   63.39    6.70
  -8  -6  -9   51.29    5.60
   8   6   9   63.49    6.80
   8   6   9   48.30    5.60
   8   6   9   46.80    5.50
  -6  -5  -8  127.99   12.10
  -6  -5  -8  134.39   11.60
   6   5   8  141.39   11.50
   6   5   8  120.59   11.70
  -4  -4  -7   98.09    8.30
  -4  -4  -7   93.59    8.90
   4   4   7   95.29    8.20
   4   4   7   91.09    8.60
  -2  -3  -6  110.29    9.90
   2   3   6  107.19    9.80
   0  -2  -5   97.49    8.80
   0  -2  -5   89.09    8.20
   0   2   5   96.89    8.20
   0   2   5   94.69    8.70
   2  -1  -4    7.00    2.30
  -2   1   4    2.30    1.80
  -2   1   4    6.50    2.50
   4   0  -3   79.69    7.10
  -4   0   3   60.19    6.80
  -4   0   3   67.39    7.10
   6   1  -2   19.60    3.70
   6   1  -2   22.10    3.90
  -6  -1   2   33.30    4.70
  -6  -1   2   18.60    3.80
   8   2  -1   34.40    5.80
   8   2  -1   37.60    5.40
  -8  -2   1   37.30    6.00
  -8  -2   1   35.30    5.60
 -10  -3   0    3.30    4.80
 -10  -3   0    3.10    4.20
 -11  -7 -11    0.80    3.30
  11   7  11    3.20    3.80
  -9  -6 -10   28.10    4.30
   9   6  10   25.80    4.20
   9   6  10   31.60    4.50
   9   6  10   20.80    3.60
  -7  -5  -9    4.70    2.10
   7   5   9    3.80    2.10
   7   5   9    5.70    2.20
  -5  -4  -8   51.69    4.90
  -5  -4  -8   44.60    5.20
   5   4   8   50.09    4.80
   5   4   8   53.29    5.10
  -3  -3  -7   20.60    3.20
  -3  -3  -7   27.10    2.40
   3   3   7   25.50    3.30
   3   3   7   16.10    2.20
  -1  -2  -6  131.79   10.80
  -1  -2  -6  128.39   11.30
   1   2   6  118.19   11.30
   1  -1  -5  439.86   37.40
   1  -1  -5  438.46   37.20
  -1   1   5  417.06   37.40
  -1   1   5  469.65   37.20
   3   0  -4  671.43   56.49
   3   0  -4  693.63   56.49
  -3   0   4  645.74   56.49
   5   1  -3  110.39   10.10
   5   1  -3  106.59   10.00
  -5  -1   3  104.29   10.40
  -5  -1   3  109.19   10.00
   7   2  -2   95.09    9.50
   7   2  -2   95.09    9.40
  -7  -2   2   97.19    9.80
  -7  -2   2   97.39    9.50
   9   3  -1   41.90    6.30
   9   3  -1   32.50    6.20
  -9  -3   1   42.10    6.90
  -9  -3   1   51.69    6.60
  11   4   0   -9.90    3.90
 -11  -4   0    1.30    4.40
 -11  -4   0    7.20    4.70
 -12  -7 -12   -1.00    3.70
  12   7  12    6.40    4.90
 -10  -6 -11    7.10    3.30
  10   6  11    5.80    3.40
  -8  -5 -10   51.39    6.60
   8   5  10   66.39    6.30
   8   5  10   75.69    6.80
  -6  -4  -9    8.90    2.10
  -6  -4  -9    3.40    2.10
   6   4   9   11.60    2.10
   6   4   9    7.80    2.00
  -4  -3  -8  243.68   22.00
  -4  -3  -8  269.27   21.70
   4   3   8  241.98   21.90
   4   3   8  268.97   21.70
  -2  -2  -7  100.89    8.50
  -2  -2  -7   96.69    9.00
   2   2   7  102.69    8.50
   2   2   7   94.69    9.00
   0  -1  -6   34.60    4.20
   0  -1  -6   29.30    3.30
   0  -1  -6   25.00    3.20
   0   1   6   35.10    4.20
   2   0  -5   51.49    5.40
   2   0  -5   48.70    4.90
  -2   0   5   48.30    4.90
  -2   0   5   43.70    5.50
   4   1  -4   38.80    4.80
   4   1  -4   44.40    5.30
  -4  -1   4   41.80    4.90
  -4  -1   4   47.50    5.80
   6   2  -3   34.50    5.30
   6   2  -3   49.10    5.80
  -6  -2   3   56.29    6.70
  -6  -2   3   49.50    5.50
   8   3  -2   57.09    7.60
   8   3  -2   57.79    7.50
  -8  -3   2   63.39    7.80
  -8  -3   2   66.79    7.20
  10   4  -1    8.80    4.60
 -10  -4   1    2.00    5.50
 -10  -4   1    6.60    4.30
  12   5   0    3.80    5.50
 -12  -5   0   -1.20    5.60
 -11  -6 -12   71.09    8.70
  11   6  12   58.49    8.40
  -9  -5 -11   45.20    5.70
   9   5  11   37.10    5.70
  -7  -4 -10   40.30    4.50
   7   4  10   32.50    4.10
   7   4  10   41.30    4.70
  -5  -3  -9  144.69   11.90
  -5  -3  -9  124.59   12.00
   5   3   9  143.39   11.90
   5   3   9  131.69   11.90
  -3  -2  -8  176.18   15.70
  -3  -2  -8  200.18   16.00
   3   2   8  184.58   16.00
   3   2   8  180.18   15.70
  -1  -1  -7   19.70    3.20
  -1  -1  -7   24.10    2.50
   1   1   7   18.00    2.60
   1   1   7   25.40    3.60
   1   0  -6   31.30    3.90
   1   0  -6   34.10    4.40
   1   0  -6   34.90    3.80
  -1   0   6   29.10    4.40
   3   1  -5   28.80    4.00
   3   1  -5   29.10    4.40
  -3  -1   5   35.10    5.00
  -3  -1   5   32.10    4.00
   5   2  -4   22.10    3.90
   5   2  -4   30.50    4.60
  -5  -2   4   32.60    5.00
  -5  -2   4   32.10    4.10
   7   3  -3    5.00    3.50
   7   3  -3   12.00    3.50
  -7  -3   3    5.50    3.20
  -7  -3   3    4.20    4.10
   9   4  -2   13.10    4.20
   9   4  -2    0.70    4.00
  -9  -4   2    2.60    3.80
  -9  -4   2   10.60    5.50
  11   5  -1    8.80    5.40
 -11  -5   1    7.40    4.80
 -11  -5   1   19.80    5.80
 -12  -6 -13   -0.30    3.70
  12   6  13    1.60    4.90
 -10  -5 -12   19.80    4.40
  10   5  12   26.00    5.00
  -8  -4 -11   34.90    5.10
   8   4  11   36.20    5.10
  -6  -3 -10  115.69   10.80
  -6  -3 -10  135.09   11.10
   6   3  10  128.69   11.00
   6   3  10  115.09   10.70
  -4  -2  -9  762.92   59.19
  -4  -2  -9  666.03   59.19
   4   2   9  726.63   59.09
   4   2   9  661.83   59.09
  -2  -1  -8  347.37   29.20
  -2  -1  -8  346.77   29.40
   2   1   8  361.76   29.20
   2   1   8  328.37   29.40
   0   0  -7  449.76   38.30
   0   0  -7  474.85   38.00
   0   0   7  459.35   38.10
   0   0   7  420.56   38.30
   2   1  -6   82.69    7.30
   2   1  -6   75.39    7.90
   2   1  -6   73.09    7.40
  -2  -1   6   80.19    8.30
   4   2  -5    2.60    3.30
   4   2  -5    3.70    2.40
  -4  -2   5    0.10    3.40
  -4  -2   5    4.00    2.50
   6   3  -4   85.89    9.30
   6   3  -4   82.79    8.70
  -6  -3   4   94.19    9.50
  -6  -3   4   94.09    8.80
   8   4  -3    3.10    3.40
   8   4  -3    5.60    4.00
  -8  -4   3    3.80    5.00
  10   5  -2   24.10    5.90
 -10  -5   2   23.30    5.40
 -10  -5   2   25.70    7.00
  12   6  -1  -10.40    5.70
 -12  -6   1    1.10    5.10
 -11  -5 -13   26.40    5.30
  -9  -4 -12    2.90    3.10
   9   4  12    1.00    3.20
  -7  -3 -11   19.60    3.70
   7   3  11   16.20    3.70
  -5  -2 -10   27.60    3.70
  -5  -2 -10   41.60    4.80
   5   2  10   35.10    4.10
   5   2  10   37.20    4.10
  -3  -1  -9    7.10    2.20
  -3  -1  -9    4.80    2.00
   3   1   9    4.70    2.60
   3   1   9    6.10    1.80
  -1   0  -8   61.99    6.40
  -1   0  -8   64.19    5.80
   1   0   8   60.29    5.90
   1   0   8   60.89    6.50
   1   1  -7    7.30    2.10
   1   1  -7    3.20    2.80
  -1  -1   7   -0.60    3.30
   3   2  -6   90.19    9.30
   3   2  -6  100.29    9.30
   3   2  -6  108.89    9.90
  -3  -2   6  103.89   10.10
   5   3  -5  297.47   26.20
   5   3  -5  280.27   25.50
  -5  -3   5  289.77   25.40
  -5  -3   5  311.97   26.00
   7   4  -4   63.19    7.70
   7   4  -4   68.19    8.30
  -7  -4   4   77.89    9.00
  -7  -4   4   80.79    7.90
   9   5  -3   55.19    7.60
   9   5  -3   47.10    7.40
  -9  -5   3   57.49    9.00
  -9  -5   3   49.60    7.30
  11   6  -2    3.70    5.70
 -11  -6   2   15.20    6.50
 -11  -6   2   38.50    6.90
 -10  -4 -13    1.20    3.30
  10   4  13    0.50    3.90
  -8  -3 -12    6.10    3.00
   8   3  12    4.70    3.20
  -6  -2 -11  188.28   17.70
  -6  -2 -11  244.08   18.30
   6   2  11  225.78   18.20
   6   2  11  189.68   17.70
  -4  -1 -10  618.44   52.69
  -4  -1 -10  667.63   52.79
   4   1  10  624.14   52.69
   4   1  10  596.54   52.79
  -2   0  -9    4.40    2.60
  -2   0  -9    4.80    2.00
   2   0   9    2.50    2.80
   2   0   9    7.90    2.10
   0   1  -8  125.09   10.90
   0   1  -8  111.59   10.40
   0  -1   8  123.99   10.50
   0  -1   8  100.09   11.80
   2   2  -7   14.50    3.60
   2   2  -7   16.30    3.10
   2   2  -7   13.00    2.80
  -2  -2   7   19.60    4.20
   4   3  -6    2.30    2.60
   4   3  -6    3.40    5.80
   4   3  -6    3.70    2.70
  -4  -3   6   -4.80    3.60
   6   4  -5    9.60    4.10
   6   4  -5   10.20    3.20
  -6  -4   5   20.70    5.20
   8   5  -4   19.60    5.80
   8   5  -4   18.70    5.20
  -8  -5   4   27.00    7.20
  -8  -5   4   26.40    5.10
  10   6  -3    0.60    5.20
 -10  -6   3    8.80    4.70
 -10  -6   3    9.50    5.90
  12   7  -2    3.00    6.40
  12   7  -2   -5.00    6.20
 -11  -4 -14   18.60    5.20
  11   4  14    9.70    5.40
  -9  -3 -13   17.00    4.40
   9   3  13   19.80    4.70
  -7  -2 -12   40.40    5.40
   7   2  12   32.10    5.00
  -5  -1 -11   70.49    6.90
  -5  -1 -11   69.49    6.50
   5   1  11   70.19    6.80
   5   1  11   61.69    6.60
  -3   0 -10   79.99    7.70
   3   0  10   82.69    7.50
   3   0  10   76.49    7.80
  -1   1  -9  146.49   13.80
  -1   1  -9  175.08   14.30
   1  -1   9  155.68   13.90
   1   2  -8   26.20    3.50
   1   2  -8   26.60    4.10
  -1  -2   8   26.10    4.50
  -1  -2   8   19.30    3.30
   3   3  -7  107.29    9.80
  -3  -3   7   99.19   10.50
   5   4  -6  302.87   25.90
   5   4  -6  299.87   26.30
   5   4  -6  293.77   25.90
  -5  -4   6  291.17   26.60
   7   5  -5   63.99    8.70
   7   5  -5   69.39    7.80
   7   5  -5   73.39    8.30
  -7  -5   5   69.39   10.20
   9   6  -4   -0.60    3.70
   9   6  -4    4.40    4.90
   9   6  -4    3.80    5.10
  -9  -6   4    9.30    6.20
  11   7  -3    6.30    6.00
  11   7  -3   12.00    6.40
 -11  -7   3   21.30    7.40
 -10  -3 -14    2.10    4.10
  10   3  14    2.50    4.50
  -8  -2 -13    8.90    4.00
   8   2  13    6.10    3.60
  -6  -1 -12   41.00    5.40
   6   1  12   33.60    5.10
  -4   0 -11  195.98   16.30
  -4   0 -11  198.98   16.30
   4   0  11  173.18   16.30
   4   0  11  174.98   16.30
  -2   1 -10  111.79    9.50
  -2   1 -10  110.69    9.90
   2  -1  10   91.29    9.50
   0   2  -9  760.92   63.39
   0   2  -9  765.52   63.79
   0  -2   9  723.53   63.49
   0  -2   9  766.22   63.89
   2   3  -8  182.78   16.30
  -2  -3   8  181.48   16.90
  -2  -3   8  188.68   16.40
   4   4  -7    4.30    2.80
   4   4  -7    2.30    2.90
   4   4  -7   -0.30    3.40
  -4  -4   7    4.10    4.60
   6   5  -6  106.59   10.00
   6   5  -6   88.29   10.50
   6   5  -6  120.89   10.60
  -6  -5   6   88.49   11.40
   8   6  -5   25.30    5.80
   8   6  -5   19.50    4.90
   8   6  -5    8.30    5.40
  -8  -6   5   13.60    7.30
  10   7  -4   -6.10    5.40
  10   7  -4    2.40    5.90
 -10  -7   4    3.00    6.70
  12   8  -3    8.40    7.00
 -11  -3 -15   30.50    6.50
  -9  -2 -14   71.29    9.10
   9   2  14   76.19    9.30
  -7  -1 -13   58.29    6.90
   7   1  13   62.79    7.50
  -5   0 -12   72.99    7.00
  -5   0 -12   67.59    7.30
   5   0  12   74.39    7.30
   5   0  12   71.99    7.40
  -3   1 -11   65.49    6.90
  -3   1 -11   68.59    7.20
   3  -1  11   75.89    7.10
   3  -1  11   86.39   10.20
  -1   2 -10   22.20    4.20
  -1   2 -10   20.50    3.60
   1  -2  10   15.70    4.40
   1  -2  10   23.10    3.50
   1   3  -9   51.19    5.50
  -1  -3   9   60.99    7.20
  -1  -3   9   45.80    5.70
   3   4  -8   27.20    5.10
   3   4  -8   36.70    4.80
   3   4  -8   27.40    4.30
  -3  -4   8   29.80    6.00
   5   5  -7    9.30    4.70
   5   5  -7   16.20    4.00
   5   5  -7   14.50    3.50
  -5  -5   7   17.80    6.00
   7   6  -6    8.10    4.20
   7   6  -6    2.70    3.80
   7   6  -6    4.80    4.60
  -7  -6   6    2.30    5.90
   9   7  -5   18.60    6.20
   9   7  -5    9.60    6.80
  -9  -7   5   22.10    7.60
  11   8  -4    9.10    7.10
 -10  -2 -15    3.90    4.30
  10   2  15    7.10    5.40
  -8  -1 -14   26.30    5.20
   8   1  14   10.70    4.30
  -6   0 -13    1.70    2.10
  -6   0 -13    2.30    3.20
   6   0  13   13.80    3.70
  -4   1 -12  178.08   15.80
  -4   1 -12  186.18   15.80
   4  -1  12  168.48   16.40
   4  -1  12  177.48   16.00
  -2   2 -11   60.49    6.50
  -2   2 -11   75.29    7.10
   2  -2  11   60.79    7.30
   0   3 -10  233.98   23.50
   0   3 -10  246.88   21.40
   0  -3  10  254.97   22.10
   0  -3  10  247.58   22.00
   2   4  -9  453.35   40.30
   2   4  -9  449.26   39.70
  -2  -4   9  503.75   40.00
  -2  -4   9  459.05   40.50
   4   5  -8  157.48   15.50
   4   5  -8  155.68   14.70
   4   5  -8  173.68   14.90
  -4  -5   8  158.68   16.10
   6   6  -7   47.00    7.30
   6   6  -7   68.99    9.20
   6   6  -7   64.49    8.30
  -6  -6   7   75.29   10.70
   8   7  -6   12.20    5.60
   8   7  -6   10.50    4.60
  -8  -7   6   16.80    7.70
  10   8  -5   -1.10    6.50
  10   8  -5   -1.70    5.50
 -10  -8   5    8.20    7.50
  -9  -1 -15    0.60    4.30
   9   1  15   -1.10    4.30
  -7   0 -14    8.70    4.00
   7   0  14    2.60    3.50
  -5   1 -13   23.90    3.80
  -5   1 -13   24.60    4.40
   5  -1  13   17.90    4.20
   5  -1  13   21.80    4.20
  -3   2 -12    8.10    3.00
  -3   2 -12    5.20    3.20
   3  -2  12    8.70    2.90
   3  -2  12    9.00    3.70
  -1   3 -11   40.70    5.40
  -1   3 -11   33.10    8.10
   1  -3  11   38.90    5.20
   1  -3  11   47.30    6.60
   1   4 -10    7.60    3.00
   1   4 -10    7.50    3.90
  -1  -4  10   10.60    4.80
  -1  -4  10    7.90    2.90
   3   5  -9   -2.80    3.70
   3   5  -9   -1.30    3.00
  -3  -5   9    2.80    4.60
   5   6  -8   -0.70    2.90
   5   6  -8    0.50    3.30
   5   6  -8   -0.60    4.80
  -5  -6   8   -1.60    5.80
   7   7  -7   69.49    8.50
   7   7  -7   77.49    9.00
  -7  -7   7   73.59   11.80
   9   8  -6  103.89   12.90
   9   8  -6  114.29   12.50
  -9  -8   6  105.19   15.10
  11   9  -5    8.00    6.60
 -10  -1 -16    0.80    4.90
  -8   0 -15   -5.20    3.90
  -6   1 -14    9.40    2.80
  -6   1 -14    8.80    4.00
   6  -1  14    8.70    4.30
  -4   2 -13   20.40    4.30
  -4   2 -13   21.70    4.20
   4  -2  13   16.70    4.40
   4  -2  13   20.60    4.80
  -2   3 -12  182.38   16.80
  -2   3 -12  167.38   15.80
   2  -3  12  186.88   16.70
   2  -3  12  176.18   16.00
   0   4 -11  213.48   18.70
   0   4 -11  191.88   18.00
   0  -4  11  232.48   19.40
   0  -4  11  190.48   18.20
   2   5 -10   52.99    6.60
   2   5 -10   38.30    5.40
  -2  -5  10   30.20    6.80
  -2  -5  10   36.20    5.60
   4   6  -9   62.79    7.40
   4   6  -9   52.29    6.90
   4   6  -9   48.70    8.30
  -4  -6   9   67.49    9.50
   6   7  -8   10.50    4.50
   6   7  -8   20.90    5.00
   6   7  -8   17.00    6.40
  -6  -7   8   15.10    7.60
   8   8  -7   -0.50    5.00
   8   8  -7   -5.60    5.50
  -8  -8   7   -4.00    6.30
 -10  -9   6   11.40    8.10
  -9   0 -16   13.40    5.40
   9   0  16    6.70    5.20
  -7   1 -15    7.80    5.10
   7  -1  15   16.10    4.80
  -5   2 -14   32.00    5.70
  -5   2 -14   38.90    5.20
   5  -2  14   34.90    5.80
   5  -2  14   48.70    6.70
  -3   3 -13   19.60    6.80
  -3   3 -13   23.80    4.40
   3  -3  13   16.90    4.20
   3  -3  13   28.20    5.80
  -1   4 -12   11.10    3.40
  -1   4 -12    6.10    3.40
   1  -4  12   10.60    3.60
   1  -4  12   10.80    4.80
   1   5 -11   96.99    9.90
   1   5 -11  104.09   11.00
  -1  -5  11  108.99   11.80
  -1  -5  11  104.59   10.30
   3   6 -10   66.19    7.90
   3   6 -10   78.09    9.80
  -3  -6  10   69.79    8.10
  -3  -6  10   80.79   11.00
   5   7  -9    9.40    4.40
   5   7  -9    8.40    5.80
   5   7  -9   11.40    4.80
  -5  -7   9   18.00    7.00
   7   8  -8   15.70    6.60
   7   8  -8   19.30    5.90
  -7  -8   8   28.40    8.90
   9   9  -7   36.70    8.20
  -9  -9   7   26.80    8.90
  -8   1 -16   11.80    5.00
   8  -1  16    3.80    5.00
  -6   2 -15   -4.30    2.90
  -6   2 -15    3.30    2.80
  -6   2 -15    0.50    4.40
   6  -2  15   -0.80    4.00
  -4   3 -14    9.40    3.90
   4  -3  14    7.10    4.90
   4  -3  14   16.70    4.40
  -2   4 -13   21.30    4.90
  -2   4 -13   19.00    4.20
   2  -4  13   16.60    4.20
   2  -4  13   12.60    5.20
   0   5 -12   43.80    7.50
   0   5 -12   52.79    6.80
   0  -5  12   53.89    8.70
   0  -5  12   54.09    7.00
   2   6 -11   94.09   10.00
   2   6 -11   99.79   11.50
  -2  -6  11   92.19   10.30
  -2  -6  11  124.69   12.50
   4   7 -10   94.59    9.90
   4   7 -10   95.89   11.60
   4   7 -10   88.09    9.80
  -4  -7  10  109.89   14.30
   6   8  -9   86.39   10.10
   6   8  -9   81.69   11.90
  -6  -8   9  120.79   15.30
   8   9  -8   25.30    6.70
  -8  -9   8   34.50    9.60
  10  10  -7    9.50    6.80
  -9   1 -17   33.20    7.10
  -7   2 -16   15.70    5.20
   7  -2  16   16.40    5.50
  -5   3 -15  137.19   13.50
  -5   3 -15  156.18   13.80
   5  -3  15  133.99   14.30
  -3   4 -14  150.38   15.00
  -3   4 -14  161.58   14.80
   3  -4  14  186.08   16.40
   3  -4  14  148.49   14.90
  -1   5 -13   38.50    6.20
  -1   5 -13   44.30    7.10
   1  -5  13   47.10    7.80
   1  -5  13   40.90    6.30
   1   6 -12   91.69    9.80
   1   6 -12   95.49   11.00
  -1  -6  12  105.59   10.30
  -1  -6  12   95.69   12.00
   3   7 -11   31.20    5.90
   3   7 -11   38.20    7.80
  -3  -7  11   36.60    7.70
  -3  -7  11   27.40    8.80
   5   8 -10    1.70    4.30
  -5  -8  10   -0.70    7.20
   7   9  -9   -1.00    4.80
  -7  -9   9    4.80    7.80
   9  10  -8    7.00    6.20
  -9 -10   8    1.60    7.90
  -8   2 -17   -1.60    5.10
  -6   3 -16   -5.00    3.30
  -6   3 -16    5.90    3.40
  -6   3 -16   -3.30    3.80
   6  -3  16   -4.30    4.40
  -4   4 -15   -2.80    3.70
  -4   4 -15    3.00    4.10
   4  -4  15   -1.60    5.20
  -2   5 -14   33.40    6.30
  -2   5 -14   41.90    7.60
   2  -5  14   32.20    6.00
   2  -5  14   35.00    7.80
   0   6 -13  102.09   11.00
   0   6 -13   86.79   10.30
   0  -6  13   72.59    9.60
   0  -6  13   96.79   12.70
   2   7 -12  143.89   13.90
  -2  -7  12  160.98   16.70
  -2  -7  12  132.19   15.20
   4   8 -11   79.59    9.30
  -4  -8  11   81.89   13.40
   6   9 -10   24.00    6.30
  -6  -9  10   24.20    9.40
  -8 -10   9   13.90    9.90
  -7   3 -17    2.00    4.60
  -7   3 -17   -2.20    2.80
  -5   4 -16   -0.30    4.00
  -5   4 -16   -1.80    3.90
  -5   4 -16    0.10    4.10
   5  -4  16    5.40    4.80
  -3   5 -15    3.10    4.30
  -3   5 -15    0.70    4.20
   3  -5  15   -0.80    4.30
   3  -5  15   11.50    6.20
  -1   6 -14   27.70    5.40
  -1   6 -14   18.80    6.30
   1  -6  14   27.10    5.80
   1  -6  14   27.00    7.70
   1   7 -13   13.10    4.60
  -1  -7  13    0.10    6.90
  -1  -7  13   16.80    4.90
   3   8 -12   -0.40    4.40
   3   8 -12    5.50    4.30
  -3  -8  12    0.00    6.90
   5   9 -11    5.30    4.90
  -5  -9  11   -6.90    7.30
   7  10 -10   -1.40    5.10
  -7 -10  10   -2.50    7.00
  -6   4 -17   13.20    4.70
  -6   4 -17   -2.30    4.90
  -6   4 -17   -1.80    4.40
  -4   5 -16   13.00    5.10
  -4   5 -16    7.60    5.00
  -4   5 -16   14.40    4.90
  -2   6 -15   -3.60    4.40
  -2   6 -15   -0.80    4.10
   2  -6  15   -1.60    5.60
   2  -6  15    2.90    4.40
   0   7 -14   54.99    7.90
   0   7 -14   60.69    9.80
   0  -7  14   62.69   11.60
   0  -7  14   45.00    8.00
   2   8 -13    7.60    5.40
   2   8 -13    5.50    4.50
  -2  -8  13    1.30    7.30
  -2  -8  13   -8.90    4.70
   4   9 -12   56.29    8.40
  -4  -9  12   68.09   12.40
   6  10 -11    5.00    5.10
  -6 -10  11    8.50    8.00
   8  11 -10    0.40    6.20
  -7   4 -18    1.70    3.70
  -7   4 -18   17.20    5.40
  -5   5 -17   21.20    6.60
  -5   5 -17   27.60    5.90
  -5   5 -17   27.60    5.80
  -3   6 -16   49.60    7.60
  -3   6 -16   42.30    7.60
  -1   7 -15   37.30    8.10
  -1   7 -15   41.60    7.00
   1  -7  15   41.30    9.30
   1   8 -14   59.09    8.80
  -1  -8  14   64.59   11.80
   3   9 -13   36.80    6.80
  -3  -9  13   35.70   10.30
   5  10 -12    5.50    5.40
  -5 -10  12   10.40    9.80
   7  11 -11    1.40    5.80
  -7 -11  11    5.90    8.10
  -6   5 -18   -1.80    4.80
  -6   5 -18    5.80    5.10
  -6   5 -18    0.40    5.80
  -4   6 -17    2.60    5.20
  -4   6 -17   14.30    5.40
  -4   6 -17   -1.10    5.10
  -2   7 -16    1.70    5.50
  -2   7 -16    1.80    4.30
   0   8 -15    7.70    4.90
   0  -8  15    2.20    6.70
   2   9 -14   11.00    5.00
  -2  -9  14   12.40    8.30
   4  10 -13    8.10    5.40
  -4 -10  13   12.80    8.60
   6  11 -12   -2.60    5.50
  -6 -11  12    7.60    8.60
  -5   6 -18   14.70    6.50
  -5   6 -18    3.00    5.80
  -5   6 -18   12.40    8.40
  -3   7 -17   31.70    6.70
  -3   7 -17   27.10    7.60
  -3   7 -17   26.70    7.60
  -1   8 -16   14.80    5.70
   1   9 -15   66.59    9.60
  -1  -9  15   83.39   13.30
  -3 -10  14   31.40   11.00
   5  11 -13   -0.70    4.90
  -5 -11  13    7.60    8.30
  -4   7 -18    5.90    6.70
  -4   7 -18    7.00    5.40
  -4   7 -18    4.80    6.00
  -2   8 -17   -1.40    5.70
   0   9 -16   -8.00    5.90
   2  10 -15    3.20    5.70
   4  11 -14   22.70    9.30
   4  11 -14   15.40    6.60
  -3   8 -18    4.60    6.50
  -3   8 -18    5.50    5.20
  -1   9 -17    2.10    6.20
  -1   9 -17    7.80    5.30
   1  10 -16    7.90    5.40
   3  11 -15   -0.40    8.70
   3  11 -15    4.10    6.90
   0  10 -17    3.70    6.10
   0  10 -17    5.60    7.50
   2  11 -16    7.10    9.00
   1  15  -6   40.00    8.40
   1  15  -6   27.10    8.80
  -1  14  -7   28.00    8.20
   2  15  -5    8.50    6.10
   0  14  -6    4.00    4.80
  -2  13  -7    1.20    6.00
  -2  13  -7    6.50    5.30
  -4  12  -8    1.60    6.00
   3  15  -4   16.20    5.70
   3  15  -4    9.80    8.30
   1  14  -5    0.50    5.10
   1  14  -5   -0.10    4.50
  -1  13  -6    2.50    4.80
  -1  13  -6   -9.40    5.00
  -3  12  -7    8.30    5.60
  -3  12  -7    7.00    6.30
  -5  11  -8    6.60    5.90
   4  15  -3   28.50    9.30
   4  15  -3   34.50    6.80
   2  14  -4   18.10    5.40
   0  13  -5    5.50    6.50
   0  13  -5   14.20    5.50
  -2  12  -6    1.10    4.30
  -2  12  -6    0.60    5.40
  -4  11  -7   -0.50    4.80
  -4  11  -7    5.50    5.50
  -4  11  -7    0.70    5.20
  -6  10  -8    1.00    5.30
   5  15  -2    2.20    6.40
   5  15  -2   -0.80    4.30
   3  14  -3    8.10    4.20
   3  14  -3    6.70    6.10
   1  13  -4   12.50    6.70
   1  13  -4    9.30    4.70
  -1  12  -5   78.29   11.60
  -1  12  -5   74.99   10.20
  -3  11  -6   39.00    8.20
  -3  11  -6   24.60    6.70
  -3  11  -6   26.40    7.80
  -5  10  -7   24.60    6.60
  -5  10  -7   18.80    7.20
  -7   9  -8   15.50    5.20
  -7   9  -8   18.90    6.90
   6  15  -1   35.80    8.90
   6  15  -1   40.90    6.90
   4  14  -2   26.70    5.60
   4  14  -2   24.10    7.40
   2  13  -3    1.70    4.00
   2  13  -3    2.70    5.20
   0  12  -4    6.10    4.50
   0  12  -4    0.00    4.20
  -2  11  -5    2.20    4.50
  -2  11  -5    6.30    4.40
  -2  11  -5    6.70    5.80
  -4  10  -6   39.60    8.50
  -4  10  -6   39.60    7.10
  -6   9  -7    1.60    4.40
  -6   9  -7    3.60    5.60
  -6   9  -7    9.50    5.60
   7  15   0   17.00    4.60
  -5 -14   1    4.30    4.50
   5  14  -1    7.30    6.00
   5  14  -1    9.00    3.80
  -3 -13   2    7.80    4.50
   3  13  -2    3.90    5.10
   3  13  -2    5.70    3.50
  -1 -12   3   38.20    7.20
   1  12  -3   46.30    9.00
   1  12  -3   46.80    8.90
   1  12  -3   62.29    8.00
   1 -11   4  111.59   11.30
  -1  11  -4   93.79   12.80
  -1  11  -4  114.39   11.60
  -1  11  -4  120.79   12.90
  -3  10  -5   27.70    7.00
  -3  10  -5   33.40    6.10
  -5   9  -6   31.50    6.60
  -5   9  -6   25.90    7.60
  -5   9  -6   35.10    7.00
  -7   8  -7   17.70    5.70
  -7   8  -7   17.10    6.00
  -7   8  -7    7.90    4.20
   8  15   1    4.50    4.00
   6  14   0   20.80    7.40
   6  14   0   29.50    5.40
   4  13  -1   26.80    7.30
   4  13  -1   35.30    5.90
  -2 -12   2   35.40    6.20
   2  12  -2   32.90    5.90
   2  12  -2   45.80    8.90
   2  12  -2   31.30    7.60
   0  11  -3   74.69    8.60
   0  11  -3   81.99   11.10
   2 -10   4   40.50    6.40
  -2  10  -4   42.30    6.60
  -2  10  -4   38.60    7.40
  -2  10  -4   27.10    7.50
  -4   9  -5   14.10    5.00
  -4   9  -5   14.20    5.50
  -4   9  -5   19.20    4.70
  -6   8  -6   21.10    6.00
  -6   8  -6    8.00    4.50
  -6   8  -6   12.40    4.80
  -8   7  -7    1.30    4.90
  -8   7  -7    1.70    3.70
   9  15   2    1.90    3.70
   7  14   1    4.20    4.00
   7  14   1   11.60    4.20
   7  14   1    2.60    6.60
  -5 -13   0   27.40    6.00
   5  13   0   31.10    5.60
   5  13   0   40.40    8.10
  -3 -12   1   36.30    6.00
   3  12  -1   23.90    6.70
   3  12  -1   31.60    5.20
  -1 -11   2   -1.60    3.00
   1  11  -2   -3.00    5.20
   1  11  -2   -2.30    3.00
   1  11  -2    5.10    4.60
   1 -10   3   10.20    3.90
  -1  10  -3    8.20    5.50
  -1  10  -3    7.50    4.20
   3  -9   4   68.09    8.10
  -3   9  -4   69.09    8.30
  -3   9  -4   45.00    8.70
  -3   9  -4   57.89    8.90
  -5   8  -5   33.40    6.30
  -5   8  -5   36.40    7.20
  -5   8  -5   45.00    6.90
  -7   7  -6    2.90    3.50
  -7   7  -6   11.00    5.00
  -7   7  -6   10.90    5.10
  -9   6  -7   10.20    6.40
   8  14   2   16.60    4.20
   8  14   2   11.80    4.50
   8  14   2    8.60    6.20
   6  13   1   49.90    9.60
   6  13   1   55.29    6.40
  -4 -12   0  227.98   19.00
   4  12   0  193.38   18.60
   4  12   0  200.18   20.70
  -2 -11   1   71.79    8.10
   2  11  -1   69.09   10.40
   2  11  -1   62.29    7.30
   2  11  -1   64.89    9.60
   0 -10   2   69.39    8.10
   0  10  -2   67.19    8.20
   0  10  -2   66.09    9.90
   0  10  -2   74.09    9.60
   2  -9   3   88.89   10.40
   2  -9   3  124.09   12.20
  -2   9  -3  104.19   10.70
  -2   9  -3  115.09   11.50
   4  -8   4    4.00    4.00
  -4   8  -4    9.60    4.20
  -4   8  -4    9.50    4.10
  -6   7  -5   25.30    5.40
  -6   7  -5   42.50    6.70
  -6   7  -5   41.30    6.50
  -8   6  -6    0.10    3.40
  -8   6  -6    9.10    4.00
  -8   6  -6    9.10    4.70
   9  14   3    7.90    3.70
   9  14   3    8.20    6.10
   9  14   3   11.10    4.80
   7  13   2    4.80    5.20
   7  13   2    2.40    3.40
  -5 -12  -1    7.50    3.90
   5  12   1    5.20    3.00
   5  12   1    3.80    4.50
   5  12   1    8.80    6.10
  -3 -11   0   22.10    4.30
   3  11   0   12.40    6.40
   3  11   0   21.90    3.80
   3  11   0   11.60    5.80
  -1 -10   1    6.90    4.20
  -1 -10   1   11.20    3.30
   1  10  -1    9.70    4.20
   1  10  -1   10.30    3.30
   1  -9   2   81.19    9.30
   1  -9   2   70.99    7.80
  -1   9  -2   69.29    8.70
  -1   9  -2   77.99    7.90
   3  -8   3  114.19   11.10
   3  -8   3   75.19    9.60
  -3   8  -3   99.79    9.90
  -3   8  -3  102.29   10.40
   5  -7   4   73.39    9.30
  -5   7  -4   56.19    7.70
  -5   7  -4   76.19    8.80
  -7   6  -5   66.79    8.30
  -7   6  -5   81.99    9.90
  -7   6  -5   68.39    8.50
  10  14   4    1.10    4.70
  10  14   4    3.30    4.20
  10  14   4   10.90    7.30
   8  13   3   31.90    8.00
   8  13   3   29.10    5.30
   6  12   2   31.80    5.00
   6  12   2   33.90    7.30
   6  12   2   40.70    8.80
   6  12   2   37.20    5.20
  -4 -11  -1  106.39   10.70
   4  11   1  104.49   10.40
   4  11   1  124.99   14.60
  -2 -10   0   60.79    6.90
  -2 -10   0   48.60    7.80
   2  10   0   50.39    8.00
   2  10   0   54.59    6.50
   0  -9   1    1.30    4.00
   0  -9   1    6.30    2.80
   0   9  -1    6.80    2.80
   0   9  -1    5.10    3.90
   2  -8   2    4.90    3.80
   2  -8   2    0.80    2.60
  -2   8  -2    2.80    2.70
  -2   8  -2   -1.10    3.30
   4  -7   3    9.60    4.30
   4  -7   3   17.60    3.90
  -4   7  -3   13.90    3.90
  -4   7  -3   11.70    3.90
   6  -6   4    3.60    4.50
  -6   6  -4    1.40    2.90
  -6   6  -4    1.70    3.60
  -8   5  -5   28.10    6.70
  -8   5  -5   28.20    5.30
 -10   4  -6   10.90    5.60
   9  13   4    8.10    4.20
   9  13   4   16.20    6.00
   9  13   4    6.70    3.90
   7  12   3   27.30    4.80
   7  12   3   21.90    7.60
   7  12   3   27.70    4.40
   7  12   3   26.50    6.40
   5  11   2   77.29    8.10
   5  11   2   88.39   11.90
  -3 -10  -1   27.50    4.40
   3  10   1   31.60    5.60
   3  10   1   25.90    4.00
  -1  -9   0   16.90    3.10
  -1  -9   0   10.90    4.30
   1   9   0   16.80    3.90
   1  -8   1   63.69    7.80
   1  -8   1   64.19    6.70
  -1   8  -1   65.09    7.60
  -1   8  -1   63.59    6.80
   3  -7   2   86.49    9.20
   3  -7   2  106.49   10.10
  -3   7  -2   93.09    9.40
  -3   7  -2   95.19    9.70
   5  -6   3   86.19   10.70
   5  -6   3   71.79    8.50
  -5   6  -3   84.89    8.50
   7  -5   4   21.60    4.70
  -7   5  -4   11.50    3.80
  -7   5  -4   14.20    4.80
  -9   4  -5   18.90    6.10
  10  13   5    2.50    5.40
  10  13   5   -0.20    3.80
  10  13   5    5.20    5.60
   8  12   4    2.50    3.40
   8  12   4    3.40    3.00
   8  12   4    3.70    4.70
   8  12   4    2.70    6.10
   6  11   3   18.40    3.70
   6  11   3    9.60    6.40
   6  11   3   18.40    3.60
  -4 -10  -2   19.80    4.00
   4  10   2   13.70    3.10
   4  10   2   12.80    4.40
  -2  -9  -1   56.29    7.90
   2   9   1   44.90    6.80
   2   9   1   51.79    5.40
   0  -8   0  228.58   20.20
   0  -8   0  238.18   21.10
   0   8   0  236.98   21.00
   0   8   0  226.68   20.20
   2  -7   1   88.99    9.00
   2  -7   1   76.29    8.00
  -2   7  -1   91.99    8.70
  -2   7  -1   74.49    8.10
   4  -6   2   39.90    6.30
   4  -6   2   41.70    5.80
  -4   6  -2   42.80    5.90
  -4   6  -2   44.90    6.00
   6  -5   3   18.20    4.70
   6  -5   3   11.30    4.40
  -6   5  -3   19.00    3.90
  -6   5  -3   22.40    4.80
   8  -4   4    2.90    3.50
  -8   4  -4    0.40    4.20
  -8   4  -4    0.40    3.20
  11  13   6   41.10    7.40
  11  13   6   48.80    7.90
   9  12   5   20.50    4.60
   9  12   5   21.80    8.00
   9  12   5   17.90    4.50
   9  12   5   14.40    5.50
   7  11   4   38.50    5.20
   7  11   4   45.40    8.80
   7  11   4   36.00    5.30
   5  10   3   69.59    8.70
   5  10   3   53.49    6.10
   5  10   3   64.39    9.60
  -3  -9  -2   42.90    6.70
  -3  -9  -2   46.90    5.20
   3   9   2   43.90    4.90
   3   9   2   50.49    6.80
  -1  -8  -1   36.50    5.60
  -1  -8  -1   31.90    4.30
   1   8   1   33.40    4.20
   1   8   1   31.60    5.20
   1  -7   0   16.50    4.40
   1  -7   0   33.20    4.30
  -1   7   0   23.00    4.50
  -1   7   0   26.30    3.80
   3  -6   1   21.00    4.30
   3  -6   1   21.50    3.80
  -3   6  -1   21.60    3.90
  -3   6  -1   17.90    3.80
   5  -5   2   12.70    3.20
   5  -5   2    9.10    3.20
  -5   5  -2    8.20    2.80
  -5   5  -2   15.90    3.40
   7  -4   3   19.60    4.30
  -7   4  -3   25.10    5.30
  -9   3  -4   21.90    5.70
 -11   2  -5   -0.80    5.10
  10  12   6    0.30    4.00
  10  12   6    3.70    6.50
  10  12   6   11.40    4.20
  10  12   6    1.70    4.70
   8  11   5   15.20    3.70
   8  11   5    8.70    3.40
   8  11   5    2.60    5.50
   6  10   4   55.19    6.30
   6  10   4   70.39   10.10
   6  10   4   65.19    7.80
  -4  -9  -3   88.59    9.60
  -4  -9  -3   87.99    8.50
   4   9   3   89.99    9.40
   4   9   3   88.39    8.20
  -2  -8  -2  166.68   15.80
  -2  -8  -2  168.48   14.80
   2   8   2  167.18   14.70
   2   8   2  173.98   15.70
   0  -7  -1  950.80   81.19
   0  -7  -1 1102.89   82.59
   0   7   1  888.41   81.19
   0   7   1  947.61   81.79
   2  -6   0  234.18   19.90
   2  -6   0  211.78   19.30
  -2   6   0  227.38   19.70
  -2   6   0  217.58   19.40
   4  -5   1   38.70    5.50
   4  -5   1   32.50    5.10
  -4   5  -1   41.70    5.40
  -4   5  -1   48.30    5.40
   6  -4   2   62.19    7.00
   6  -4   2   60.99    7.00
  -6   4  -2   57.79    6.60
  -6   4  -2   62.49    7.20
   8  -3   3   20.90    4.10
  -8   3  -3   18.70    4.00
  -8   3  -3   13.30    4.90
 -10   2  -4   21.00    6.20
  11  12   7    7.50    7.00
  11  12   7    3.80    3.80
  11  12   7    1.60    4.90
   9  11   6   18.20    6.60
   9  11   6   14.40    4.10
   9  11   6   18.10    4.00
   7  10   5   30.50    7.00
   7  10   5   30.30    6.00
   7  10   5   24.70    4.20
   7  10   5   27.30    4.30
  -5  -9  -4   30.30    5.80
   5   9   4   42.30    4.70
   5   9   4   34.60    5.90
   5   9   4   40.30    4.70
  -3  -8  -3   29.50    5.30
  -3  -8  -3   32.40    4.40
   3   8   3   37.40    4.90
   3   8   3   33.70    5.30
   1  -6  -1   97.89    9.00
   1  -6  -1  111.69    9.90
  -1   6   1   91.39    9.00
  -1   6   1   97.29    9.60
   3  -5   0    8.00    3.00
   3  -5   0    8.40    2.50
  -3   5   0    9.70    2.70
  -3   5   0    9.60    2.50
   5  -4   1   64.99    6.90
   5  -4   1   66.09    6.90
  -5   4  -1   62.89    6.60
  -5   4  -1   60.99    6.90
   7  -3   2   98.69   10.80
   7  -3   2  112.89   10.70
  -7   3  -2  112.59   10.90
  -7   3  -2  121.39   11.50
   9  -2   3   48.70    5.80
  -9   2  -3   73.49    8.90
  -9   2  -3   40.60    5.40
 -11   1  -4   24.10    7.20
  10  11   7    4.70    3.60
  10  11   7   -0.80    5.50
  10  11   7    3.20    3.40
   8  10   6   17.40    3.90
   8  10   6   12.20    6.00
   8  10   6   26.80    4.10
   8  10   6   23.40    5.30
   6   9   5   34.20    4.40
   6   9   5   21.40    5.20
   6   9   5   42.10    4.60
  -4  -8  -4  310.07   29.00
   4   8   4  317.37   28.80
   4   8   4  350.56   27.90
  -2  -7  -3  589.94   49.90
  -2  -7  -3  657.13   51.49
   2   7   3  554.24   50.49
   2   7   3  583.94   49.90
   0  -6  -2   47.70    5.80
   0  -6  -2   44.70    4.80
   0   6   2   53.59    6.30
   0   6   2   45.60    4.80
   2  -5  -1  168.08   14.20
   2  -5  -1  145.69   13.50
  -2   5   1  152.98   13.60
  -2   5   1  151.08   13.90
   4  -4   0  144.29   12.90
   4  -4   0  138.99   12.70
  -4   4   0  132.69   12.70
  -4   4   0  143.69   12.70
   6  -3   1   45.60    5.80
   6  -3   1   37.70    5.10
  -6   3  -1   56.39    6.50
   8  -2   2    1.80    2.60
   8  -2   2    1.90    3.50
  -8   2  -2   -1.00    3.40
  -8   2  -2    3.00    2.80
 -10   1  -3    5.50    4.90
 -12   0  -4    8.70    6.80
  11  11   8   17.90    4.70
  11  11   8   19.90    6.90
   9  10   7   34.20    7.50
   9  10   7   40.90    6.70
   9  10   7   44.70    5.90
   9  10   7   40.10    5.60
   7   9   6   65.79    7.10
   7   9   6   89.39   10.60
   7   9   6   72.49    9.00
   7   9   6   70.79    7.20
  -5  -8  -5  303.77   28.40
   5   8   5  329.27   27.50
   5   8   5  319.47   28.30
   5   8   5  333.87   27.50
  -3  -7  -4  321.97   28.80
  -3  -7  -4  332.67   27.90
   3   7   4  324.37   28.50
   3   7   4  331.47   27.80
  -1  -6  -3   17.40    2.70
  -1  -6  -3   18.00    3.80
   1   6   3   17.20    3.60
   1   6   3   21.90    2.70
   1  -5  -2  224.68   19.30
   1  -5  -2  213.48   18.70
  -1   5   2  214.18   19.10
  -1   5   2  218.68   18.70
   3  -4  -1   65.09    7.30
  -3   4   1   77.99    7.00
   5  -3   0   56.29    6.50
   5  -3   0   57.59    6.40
  -5   3   0   59.69    6.60
  -5   3   0   92.99    9.40
   7  -2   1   30.90    4.80
   7  -2   1   32.30    5.30
  -7   2  -1   43.90    5.40
  -7   2  -1   41.80    5.80
   9  -1   2   86.29   10.20
   9  -1   2   80.19    8.00
  -9   1  -2   73.19    8.00
  -9   1  -2   87.09    9.50
 -11   0  -3    0.60    5.20
  10  10   8   23.70    4.50
  10  10   8   25.00    4.50
  10  10   8   27.20    6.70
  10  10   8   34.90    6.10
   8   9   7   17.80    3.30
   8   9   7   17.40    4.20
   8   9   7   20.70    5.80
  -6  -8  -6   16.60    4.40
   6   8   6   23.70    3.10
   6   8   6   16.50    3.90
  -4  -7  -5   79.39    9.40
   4   7   5  101.19    8.40
   4   7   5  100.19    8.40
   4   7   5   90.19    9.30
  -2  -6  -4  112.79    9.40
  -2  -6  -4  108.49   10.30
   2   6   4  103.49    9.30
   2   6   4  103.19   10.20
   0  -5  -3  195.88   17.50
   0  -5  -3  212.48   16.90
   0   5   3  194.28   16.80
   0   5   3  183.38   17.30
   2  -4  -2  821.42   70.79
   2  -4  -2  815.32   70.49
  -2   4   2  881.61   70.59
   4  -3  -1  281.07   22.80
   4  -3  -1  249.28   22.70
  -4   3   1  256.37   22.70
  -4   3   1  264.67   22.70
   6  -2   0   88.79    8.60
   6  -2   0   90.19    8.80
  -6   2   0   81.39    8.80
  -6   2   0   96.29    9.20
   8  -1   1  104.89   10.80
  -8   1  -1  128.89   11.10
  -8   1  -1  110.79   11.60
  10   0   2   16.60    3.90
 -10   0  -2   20.10    5.80
 -10   0  -2   21.30    4.10
 -12  -1  -3    0.20    5.00
  11  10   9   25.40    5.70
  11  10   9   30.60    5.70
  11  10   9   24.10    6.30
  11  10   9   23.70    6.50
   9   9   8  144.59   13.70
   9   9   8  142.69   12.90
   9   9   8  157.78   13.20
   9   9   8  104.39   14.10
   7   8   7   97.89   10.00
   7   8   7   76.49   10.50
   7   8   7   99.09    9.10
   7   8   7  106.39    9.20
  -5  -7  -6  188.78   17.30
   5   7   6  193.08   16.30
   5   7   6  187.98   16.20
   5   7   6  186.08   17.00
  -3  -6  -5   75.99    7.70
   3   6   5   75.69    6.50
   3   6   5   65.59    7.40
  -1  -5  -4  104.89   10.20
  -1  -5  -4  113.39    9.40
   1   5   4  107.19    9.40
   1   5   4  106.79   10.10
   1  -4  -3    2.50    2.40
   1  -4  -3    3.40    1.70
  -1   4   3    0.00    2.30
  -1   4   3    2.20    1.60
   3  -3  -2   35.70    4.40
   3  -3  -2   29.30    3.90
  -3   3   2   24.20    3.90
  -3   3   2   33.10    4.20
   5  -2  -1   16.80    3.10
   5  -2  -1   11.80    2.80
  -5   2   1   11.70    3.00
  -5   2   1    7.40    2.80
   7  -1   0    1.60    2.80
   7  -1   0   -1.60    2.40
  -7   1   0   -0.10    3.00
   9   0   1    1.80    2.80
   9   0   1    2.10    3.70
  -9   0  -1    5.00    4.00
  11   1   2    2.00    3.20
 -11  -1  -2    5.20    5.30
  12  10  10    8.20    4.90
  12  10  10    3.70    4.40
  10   9   9   11.10    4.90
  10   9   9   12.20    4.00
  10   9   9    3.30    3.40
  10   9   9    3.30    3.00
   8   8   8   21.80    3.60
   8   8   8   23.30    4.50
   8   8   8   25.60    4.10
   8   8   8   39.60    6.40
  -6  -7  -7    6.40    2.90
   6   7   7    4.10    2.40
   6   7   7    3.50    2.00
   6   7   7    4.30    1.70
  -4  -6  -6  111.09   10.80
   4   6   6  103.29   10.50
   4   6   6  114.99    9.80
   4   6   6  118.79    9.80
  -2  -5  -5  279.57   22.60
  -2  -5  -5  261.57   23.30
   2   5   5  269.47   23.50
   2   5   5  260.37   22.50
   0  -4  -4  713.33   57.29
   0  -4  -4  672.73   56.79
   0   4   4  686.13   57.29
   0   4   4  645.44   56.79
   2  -3  -3  317.67   26.60
   2  -3  -3  321.67   26.90
  -2   3   3  306.87   26.80
  -2   3   3  307.37   26.60
   4  -2  -2  350.66   32.00
   4  -2  -2  395.46   32.10
  -4   2   2  391.96   32.00
  -4   2   2  365.86   32.00
   6  -1  -1  141.09   13.60
   6  -1  -1  156.88   13.50
  -6   1   1  153.48   13.80
  -6   1   1  142.39   14.80
   8   0   0   12.10    3.80
   8   0   0   14.40    3.50
  -8   0   0   11.80    5.00
  -8   0   0    5.60    3.70
  10   1   1   18.30    4.00
 -10  -1  -1   24.80    6.00
 -10  -1  -1   24.10    6.00
  12   2   2    3.10    3.50
 -12  -2  -2    3.80    5.20
  11   9  10    4.30    4.30
  11   9  10    4.20    3.70
  11   9  10    1.70    3.20
   9   8   9   11.50    3.40
   9   8   9   12.00    3.10
   7   7   8   16.70    3.70
   7   7   8   21.70    3.10
  -5  -6  -7   88.79    9.00
   5   6   7   95.19    8.70
   5   6   7   89.19    8.00
   5   6   7   90.79    8.10
  -3  -5  -6   56.29    6.10
  -1  -4  -5  202.28   15.20
  -1  -4  -5  178.48   15.90
   1   4   5  173.38   15.80
   1   4   5  164.08   15.20
   1  -3  -4  111.09    9.90
   1  -3  -4  104.39    9.40
  -1   3   4  109.89    9.40
  -1   3   4  102.79    9.80
   5  -1  -2   88.49    7.80
   5  -1  -2   77.59    7.60
  -5   1   2   66.29    7.70
   7   0  -1   11.10    3.50
   7   0  -1   17.90    3.70
  -7   0   1   18.40    4.10
  -7   0   1   16.10    4.00
   9   1   0   49.80    6.40
   9   1   0   38.80    6.70
  -9  -1   0   47.80    6.60
  -9  -1   0   66.59    8.10
  11   2   1   26.30    5.20
 -11  -2  -1   35.10    6.60
 -11  -2  -1   25.20    5.50
  12   9  11   16.20    4.20
  12   9  11   15.30    5.40
  10   8  10   59.39    7.90
  10   8  10   70.09    7.50
  10   8  10   55.39    7.20
  -8  -7  -9   40.50    4.80
   8   7   9   26.90    4.70
   8   7   9   41.10    6.20
   8   7   9   36.20    4.70
  -6  -6  -8   82.89    7.60
   6   6   8   63.39    6.40
   6   6   8   71.89    7.00
  -4  -5  -7    6.70    2.60
   4   5   7   10.40    2.80
   4   5   7    5.50    1.30
   4   5   7    6.30    1.50
  -2  -4  -6   49.20    5.20
   2   4   6   42.10    4.90
   0  -3  -5  107.49    9.50
   0  -3  -5   93.29    8.80
   0   3   5  108.09    9.40
   0   3   5  103.49    8.80
   2  -2  -4   30.90    3.50
   2  -2  -4   37.40    4.20
  -2   2   4   23.00    3.40
  -2   2   4   34.20    4.10
   4  -1  -3   10.70    2.70
   4  -1  -3    8.40    2.60
  -4   1   3    8.30    3.50
  -4   1   3    5.70    2.40
   6   0  -2   21.80    3.80
   6   0  -2   22.60    4.10
  -6   0   2   19.20    4.10
  -6   0   2   32.80    4.50
   8   1  -1    6.30    3.50
   8   1  -1   11.40    3.70
  -8  -1   1    7.70    4.10
  10   2   0   -6.10    3.80
 -10  -2   0   -6.60    3.70
 -10  -2   0    3.80    4.80
 -12  -3  -1    2.90    5.20
 -11  -8 -11   -2.00    3.10
  11   8  11   -0.50    3.30
  11   8  11    5.00    3.20
  -9  -7 -10   88.99    8.80
   9   7  10   96.29    9.00
   9   7  10   89.19    8.90
   9   7  10   91.09    9.60
   7   6   9   89.59    8.60
   7   6   9   81.09    7.80
  -5  -5  -8  326.37   30.40
  -5  -5  -8  378.06   29.90
   5   5   8  365.36   29.90
   5   5   8  340.67   30.30
  -3  -4  -7  669.83   56.19
   3   4   7  660.53   56.09
  -1  -3  -6  305.07   26.20
   1   3   6  306.67   26.20
   1  -2  -5  213.38   17.70
   1  -2  -5  211.58   18.00
  -1   2   5  209.08   18.00
  -1   2   5  194.98   17.60
   3  -1  -4   94.59    8.80
   3  -1  -4   91.99    8.60
  -3   1   4   98.19    8.80
  -3   1   4   86.59    8.60
   5   0  -3  113.09   10.00
   5   0  -3  102.09    9.90
  -5   0   3  102.39   10.10
  -5   0   3  105.69    9.90
   7   1  -2    2.60    3.00
   7   1  -2    6.20    3.00
  -7  -1   2    3.50    2.80
  -7  -1   2    7.50    3.60
   9   2  -1   13.90    4.40
  -9  -2   1   11.00    4.50
  -9  -2   1   10.30    4.60
  11   3   0   16.60    5.30
 -11  -3   0   18.00    5.40
 -11  -3   0   23.10    6.60
 -12  -8 -12   16.40    4.60
 -10  -7 -11    1.70    2.80
  10   7  11    3.40    3.00
  10   7  11   -0.80    2.60
  10   7  11   -2.20    2.80
  -8  -6 -10   24.40    3.60
   8   6  10   16.00    3.40
   8   6  10   15.70    3.50
   8   6  10   17.30    4.30
  -6  -5  -9   45.40    4.30
  -6  -5  -9   39.90    5.10
   6   5   9   39.30    4.20
   6   5   9   35.70    4.50
  -4  -4  -8  109.19    9.80
  -4  -4  -8  101.09    9.10
   4   4   8  101.39    9.00
   4   4   8  115.19    9.70
  -2  -3  -7   35.80    4.50
   2   3   7   33.10    4.30
   0  -2  -6   11.70    2.70
   0  -2  -6    6.10    1.60
   0   2   6   10.70    2.60
   0   2   6    9.70    1.70
   2  -1  -5  188.98   14.60
   2  -1  -5  157.98   14.30
  -2   1   5  162.58   14.50
  -2   1   5  151.78   14.20
   4   0  -4  392.96   33.00
   4   0  -4  369.16   32.90
  -4   0   4  387.56   32.90
  -4   0   4  395.36   33.10
   6   1  -3  226.08   19.20
   6   1  -3  210.58   19.30
  -6  -1   3  224.28   19.40
  -6  -1   3  209.58   19.20
   8   2  -2   75.49   10.30
   8   2  -2   72.19    8.40
  -8  -2   2   78.29    8.60
  10   3  -1   15.00    4.60
 -10  -3   1   18.30    5.30
 -10  -3   1   21.30    6.00
  12   4   0    3.70    4.80
 -12  -4   0    6.00    5.40
 -11  -7 -12   10.40    3.80
  11   7  12    9.60    4.40
  -9  -6 -11   56.19    5.80
   9   6  11   44.30    5.90
   9   6  11   47.00    5.40
   9   6  11   52.29    5.90
  -7  -5 -10  112.59   10.10
   7   5  10  110.69   10.20
   7   5  10  107.09   10.00
  -5  -4  -9  175.88   14.60
  -5  -4  -9  160.38   15.00
   5   4   9  179.18   14.60
   5   4   9  163.08   14.90
  -3  -3  -8  365.86   29.60
  -3  -3  -8  336.37   30.10
   3   3   8  340.47   30.10
   3   3   8  365.86   29.60
  -1  -2  -7  605.44   49.00
  -1  -2  -7  578.24   49.50
  -1  -2  -7  590.34   49.00
   1   2   7  567.34   49.40
   1  -1  -6   48.20    4.60
   1  -1  -6   45.50    5.30
  -1   1   6   47.80    5.20
  -1   1   6   44.90    4.60
   3   0  -5   48.20    5.70
   3   0  -5   63.59    6.20
  -3   0   5   52.59    5.70
  -3   0   5   60.39    6.20
   5   1  -4    8.00    2.90
   5   1  -4   13.40    3.20
  -5  -1   4   11.60    3.10
  -5  -1   4   12.50    3.70
   7   2  -3   31.10    6.90
   7   2  -3   27.80    4.90
  -7  -2   3   29.30    5.00
  -7  -2   3   42.40    6.10
   9   3  -2    7.10    4.10
   9   3  -2    3.00    3.80
  -9  -3   2    2.60    4.30
  -9  -3   2    5.50    4.10
  11   4  -1    2.50    4.80
 -11  -4   1    8.90    4.90
 -11  -4   1    5.00    5.10
  12   7  13   10.90    5.10
 -10  -6 -12   -3.40    2.90
  10   6  12    0.30    3.60
  -8  -5 -11    3.00    2.60
   8   5  11   -1.90    2.60
   8   5  11    2.70    2.90
   8   5  11   -0.10    2.30
  -6  -4 -10   25.10    3.90
  -6  -4 -10   31.10    3.70
   6   4  10   29.60    3.90
   6   4  10   34.60    3.80
  -4  -3  -9   10.50    1.90
  -4  -3  -9    7.50    2.30
   4   3   9   12.70    2.50
   4   3   9   12.60    1.80
  -2  -2  -8   41.20    4.70
  -2  -2  -8   42.60    3.90
   2   2   8   38.80    4.70
   2   2   8   41.20    3.90
   0  -1  -7   27.00    3.40
   0  -1  -7   28.10    3.30
   0  -1  -7   42.20    4.50
   0   1   7   34.30    4.30
   2   0  -6  323.57   28.00
   2   0  -6  334.57   27.80
  -2   0   6  310.67   27.70
  -2   0   6  337.47   28.20
   4   1  -5  655.73   53.59
   4   1  -5  634.34   53.49
  -4  -1   5  605.94   53.39
  -4  -1   5  634.44   53.69
   6   2  -4  254.17   20.60
   6   2  -4  199.78   19.00
  -6  -2   4  205.78   18.90
  -6  -2   4  211.58   19.30
   8   3  -3   88.29   10.00
   8   3  -3   87.19    9.90
  -8  -3   3   90.69   12.70
  -8  -3   3  119.39   11.00
  10   4  -2   33.60    6.50
 -10  -4   2   34.30    6.40
 -10  -4   2   46.70    8.20
  12   5  -1   -1.10    5.70
 -12  -5   1    6.30    5.80
 -11  -6 -13    1.30    3.50
  11   6  13    6.60    4.10
  -9  -5 -12    8.60    3.30
   9   5  12    3.80    3.10
  -7  -4 -11   56.49    6.40
   7   4  11   62.39    6.20
   7   4  11   71.09    6.50
  -5  -3 -10  113.89    9.00
  -5  -3 -10   92.29    9.20
   5   3  10  100.59    9.10
   5   3  10   93.09    8.90
  -3  -2  -9    3.10    2.20
  -3  -2  -9    7.20    1.90
   3   2   9    9.80    1.80
   3   2   9    7.90    2.60
  -1  -1  -8   84.69    7.30
  -1  -1  -8   85.99    8.00
   1   1   8   79.89    7.40
   1   1   8   79.69    7.90
   1   0  -7   72.99    6.90
   1   0  -7   69.49    6.90
   1   0  -7   75.99    7.40
  -1   0   7   84.39    9.40
   3   1  -6   28.00    4.70
   3   1  -6   34.80    4.20
  -3  -1   6   28.70    4.00
  -3  -1   6   28.70    5.00
   5   2  -5  112.79   10.90
   5   2  -5  133.39   12.10
  -5  -2   5  111.79   11.50
  -5  -2   5  116.89   10.80
   7   3  -4   35.90    5.50
   7   3  -4   39.30    5.80
  -7  -3   4   33.60    6.00
  -7  -3   4   35.00    5.20
   9   4  -3   14.80    4.80
   9   4  -3   13.20    4.50
  -9  -4   3   21.30    6.70
  -9  -4   3   13.50    4.60
  11   5  -2    6.90    5.80
 -11  -5   2   13.50    6.70
 -11  -5   2   16.80    5.40
 -10  -5 -13   96.59    9.50
  10   5  13   90.19    9.80
  -8  -4 -12   32.00    4.50
   8   4  12   20.00    4.10
  -6  -3 -11   82.99    7.40
  -6  -3 -11   61.89    7.10
   6   3  11   81.19    7.10
   6   3  11   78.89    7.20
  -4  -2 -10  139.59   12.90
  -4  -2 -10  153.48   12.70
   4   2  10  153.58   12.70
   4   2  10  134.99   12.80
  -2  -1  -9  382.96   30.20
  -2  -1  -9  359.76   29.80
   2   1   9  344.87   30.20
   2   1   9  329.17   29.80
   0   0  -8   39.50    4.20
   2   1  -7    3.70    3.00
   2   1  -7    2.60    2.30
   2   1  -7    3.20    2.20
  -2  -1   7    1.20    3.30
   4   2  -6   15.50    3.30
   4   2  -6   17.90    3.90
  -4  -2   6   13.90    4.10
  -4  -2   6   16.30    3.10
   6   3  -5    1.50    2.90
   6   3  -5   -2.20    3.30
  -6  -3   5    0.90    4.20
  -6  -3   5    2.40    2.70
   8   4  -4   -5.00    3.40
   8   4  -4    2.00    4.10
  -8  -4   4   -5.10    4.40
  -8  -4   4   -0.10    3.50
  10   5  -3    5.40    5.00
 -10  -5   3   14.40    6.30
 -10  -5   3    8.60    4.70
 -12  -6   2   -2.10    5.00
 -11  -5 -14   -5.60    3.80
  -9  -4 -13    4.00    3.30
   9   4  13    0.20    3.30
  -7  -3 -12   55.29    6.20
   7   3  12   42.40    6.30
  -5  -2 -11  214.98   19.40
   5   2  11  245.58   19.50
   5   2  11  217.48   19.40
  -3  -1 -10  201.28   16.90
  -3  -1 -10  185.38   17.10
   3   1  10  190.18   17.20
   3   1  10  207.88   16.90
  -1   0  -9  316.97   26.80
  -1   0  -9  300.17   27.10
   1   0   9  329.67   26.90
   1   1  -8  581.74   46.90
   1   1  -8  532.95   46.80
  -1  -1   8  538.35   46.90
   3   2  -7  121.89   11.70
   3   2  -7  121.29   11.10
   3   2  -7  123.19   11.20
  -3  -2   7  118.29   11.80
   5   3  -6   58.19    7.30
   5   3  -6   61.59    6.60
  -5  -3   6   60.09    7.90
   7   4  -5    4.80    4.40
   7   4  -5    7.30    3.40
  -7  -4   5    4.00    5.10
  -7  -4   5   10.80    3.90
   9   5  -4    0.10    4.40
   9   5  -4   -2.40    3.50
  -9  -5   4   -3.10    3.70
  -9  -5   4    7.30    6.00
  11   6  -3    5.00    6.00
 -11  -6   3    3.30    6.50
 -11  -6   3    9.10    5.60
 -10  -4 -14    5.50    3.80
  10   4  14    9.30    4.60
  -8  -3 -13   56.19    6.60
   8   3  13   59.39    6.70
  -6  -2 -12   18.30    2.90
  -6  -2 -12   22.70    3.70
   6   2  12   18.30    3.30
   6   2  12   21.40    3.60
  -4  -1 -11   43.90    6.30
  -4  -1 -11   35.00    4.40
   4   1  11   40.10    4.90
   4   1  11   33.60    4.20
  -2   0 -10    8.10    2.30
  -2   0 -10    4.10    2.70
   2   0  10    5.60    2.20
   2   0  10   12.50    4.00
   0   1  -9    9.60    3.60
   0   1  -9    1.70    3.90
   0  -1   9    8.30    2.50
   0  -1   9   11.90    3.90
   2   2  -8   26.60    3.90
   2   2  -8   28.90    4.80
   2   2  -8   30.00    4.00
  -2  -2   8   22.40    5.10
   4   3  -7  122.59   11.70
   4   3  -7  122.39   11.50
   4   3  -7  129.79   12.10
  -4  -3   7  124.29   12.50
   6   4  -6  104.69   10.30
   6   4  -6  111.39   10.60
   6   4  -6   98.59   10.90
  -6  -4   6  107.59   11.70
   8   5  -5   42.00    7.00
   8   5  -5   33.70    6.10
  -8  -5   5   49.10    8.40
  10   6  -4   41.00    8.40
 -10  -6   4   43.50    9.50
  12   7  -3   14.20    7.40
  12   7  -3   -4.70    6.60
 -11  -4 -15    1.00    4.20
  -9  -3 -14   -0.70    3.40
   9   3  14    1.10    3.80
  -7  -2 -13    0.70    3.30
   7   2  13    0.30    2.90
  -5  -1 -12   78.89    7.60
  -5  -1 -12   86.99    7.70
   5   1  12   72.69    7.70
   5   1  12   75.59    7.60
  -3   0 -11  322.97   27.30
  -3   0 -11  322.57   27.10
   3   0  11  330.57   27.10
   3   0  11  292.57   27.60
  -1   1 -10  265.07   21.90
  -1   1 -10  233.18   21.50
   1  -1  10  252.67   21.60
   1  -1  10  251.87   22.00
   1   2  -9    2.50    3.40
   1   2  -9    4.00    2.40
  -1  -2   9    2.40    2.60
  -1  -2   9   -5.40    3.70
   3   3  -8  290.07   25.70
   3   3  -8  292.07   25.70
   3   3  -8  316.57   26.20
  -3  -3   8  294.67   26.40
   5   4  -7   16.60    4.60
   5   4  -7   22.60    4.50
   5   4  -7   22.40    4.20
  -5  -4   7   18.40    5.40
   7   5  -6   16.00    4.40
   7   5  -6   17.80    6.00
   7   5  -6    7.60    4.50
  -7  -5   6    8.90    5.50
   9   6  -5    3.90    5.40
   9   6  -5   -3.20    4.90
  -9  -6   5    0.90    6.70
  11   7  -4    5.50    6.60
 -11  -7   4   12.00    7.20
 -10  -3 -15    9.90    4.70
  -8  -2 -14   23.10    5.00
   8   2  14   25.50    4.70
  -6  -1 -13   15.70    2.70
  -6  -1 -13   20.00    4.00
   6   1  13   12.60    3.50
   6   1  13   13.30    3.30
  -4   0 -12  156.68   14.10
  -4   0 -12  156.08   14.10
   4   0  12  171.58   14.10
   4   0  12  149.09   14.30
  -2   1 -11   69.29    7.30
  -2   1 -11   66.09    6.70
   2  -1  11   73.89    6.80
   2  -1  11   67.09    7.50
   0   2 -10   94.89    8.70
   0   2 -10   94.39    9.40
   0  -2  10   91.99    8.90
   0  -2  10   91.59    9.70
   2   3  -9   72.89    7.50
   2   3  -9   74.09    8.40
  -2  -3   9   84.79    8.80
   4   4  -8  110.59   10.10
   4   4  -8  104.39   10.00
   4   4  -8  101.39   10.80
  -4  -4   8   94.09   11.10
   6   5  -7   43.30    6.30
   6   5  -7   46.70    6.80
   6   5  -7   46.30    7.30
  -6  -5   7   49.99    8.10
   8   6  -6  101.09   10.80
   8   6  -6   76.59   10.40
   8   6  -6   96.39   10.20
  10   7  -5   25.10    7.10
  10   7  -5   17.30    6.90
 -10  -7   5   11.30    6.90
  -9  -2 -15   18.30    5.10
   9   2  15   11.00    4.50
  -7  -1 -14   18.30    4.20
   7   1  14   14.20    4.00
  -5   0 -13   -1.40    2.90
  -5   0 -13   -1.60    2.60
   5   0  13    0.60    3.00
   5   0  13    5.80    3.00
  -3   1 -12   70.39    6.70
  -3   1 -12   65.59    6.90
   3  -1  12   56.49    7.20
   3  -1  12   69.09    7.00
  -1   2 -11  261.77   22.50
  -1   2 -11  247.48   22.00
   1  -2  11  282.67   22.80
   1  -2  11  233.78   22.10
   1   3 -10   43.90    4.80
   1   3 -10   39.70    5.80
  -1  -3  10   44.00    6.50
  -1  -3  10   29.30    4.70
   3   4  -9  113.39   10.30
   3   4  -9  110.79   10.80
   3   4  -9   99.79   10.20
  -3  -4   9  106.09   11.40
   5   5  -8   14.50    5.00
   5   5  -8   29.90    4.80
   5   5  -8   23.40    4.40
  -5  -5   8   25.50    6.90
   7   6  -7   27.30    6.00
   7   6  -7   24.70    5.60
   7   6  -7   22.30    6.20
   9   7  -6   14.30    5.70
   9   7  -6    8.00    6.10
  -9  -7   6    3.50    6.70
  11   8  -5    5.00    7.20
 -11  -8   5    7.50    7.40
 -10  -2 -16   53.49    7.50
  10   2  16   36.70    7.90
  -8  -1 -15   73.79    8.60
   8   1  15   75.69    9.20
  -6   0 -14   68.99    7.20
  -6   0 -14   77.99    8.00
   6   0  14   66.89    7.90
   6   0  14   83.79    7.90
  -4   1 -13   71.09    7.50
  -4   1 -13   74.09    7.50
   4  -1  13   74.69    7.90
   4  -1  13   70.19    7.50
  -2   2 -12  165.78   15.00
  -2   2 -12  169.88   15.40
   2  -2  12  173.18   15.20
   2  -2  12  168.38   15.60
   0   3 -11   55.29    6.80
   0   3 -11   45.10    5.70
   0  -3  11   63.29    7.70
   0  -3  11   51.09    6.20
   2   4 -10   -0.90    3.00
   2   4 -10    4.60    3.00
  -2  -4  10   10.20    3.00
  -2  -4  10   -1.60    4.60
   4   5  -9   46.60    6.00
   4   5  -9   33.90    5.60
   4   5  -9   40.10    6.50
  -4  -5   9   47.90    7.90
   6   6  -8   17.80    4.90
   6   6  -8   15.40    4.40
   6   6  -8   18.10    5.30
   8   7  -7   22.60    7.00
   8   7  -7   14.90    5.70
  -8  -7   7   22.30    8.10
  10   8  -6   -1.70    6.30
 -10  -8   6    0.80    7.00
  -9  -1 -16    6.90    4.80
   9   1  16   11.70    5.20
  -7   0 -15   11.40    4.50
   7   0  15    6.60    3.90
  -5   1 -14   -3.10    3.30
  -5   1 -14   -2.60    2.80
   5  -1  14    7.90    3.50
   5  -1  14    1.20    3.70
  -3   2 -13   47.80    6.10
  -3   2 -13   50.49    6.30
   3  -2  13   47.90    5.80
   3  -2  13   53.09    7.20
  -1   3 -12  181.78   16.00
  -1   3 -12  174.68   15.60
   1  -3  12  163.68   15.80
   1  -3  12  175.48   16.50
   1   4 -11   54.39    6.10
   1   4 -11   45.90    6.80
  -1  -4  11   59.89    6.50
  -1  -4  11   60.59    8.40
   3   5 -10  131.19   13.80
   3   5 -10  151.38   13.20
  -3  -5  10  137.99   14.60
   5   6  -9  213.68   21.90
   5   6  -9  226.28   20.80
  -5  -6   9  281.67   24.30
   7   7  -8   65.79    8.80
   7   7  -8   43.50    8.40
  -7  -7   8   69.29   11.10
   9   8  -7   14.50    6.00
  -9  -8   7   18.40    8.30
  11   9  -6    9.50    7.80
 -11  -9   6    7.80    9.30
 -10  -1 -17    4.60    5.10
  -8   0 -16    2.70    4.10
  -6   1 -15    6.90    4.00
  -6   1 -15    2.40    2.90
   6  -1  15    5.10    4.10
  -4   2 -14   42.40    5.60
  -4   2 -14   40.70    5.70
   4  -2  14   37.70    5.60
   4  -2  14   36.10    6.20
  -2   3 -13   15.80    4.00
  -2   3 -13   10.80    3.30
   2  -3  13    6.10    3.80
   2  -3  13   15.80    4.70
   0   4 -12    6.10    3.00
   0   4 -12    2.20    3.90
   0  -4  12    2.80    4.70
   0  -4  12    2.30    2.90
   2   5 -11   22.50    4.40
   2   5 -11   19.40    5.40
  -2  -5  11   17.00    6.10
  -2  -5  11   31.90    5.20
   4   6 -10    3.20    3.40
   4   6 -10    0.80    4.50
   4   6 -10   -0.40    3.60
  -4  -6  10    6.80    6.70
   6   7  -9    1.60    5.20
   6   7  -9   -3.80    4.10
  -6  -7   9   -3.30    6.20
   8   8  -8   -4.90    4.90
  -8  -8   8   12.50    8.10
  10   9  -7   40.20    8.90
 -10  -9   7   24.00   11.80
  -9   0 -17    7.90    5.10
  -7   1 -16    8.90    4.50
  -5   2 -15   19.80    4.80
  -5   2 -15   19.60    4.30
   5  -2  15   23.20    5.70
   5  -2  15   20.20    5.40
  -3   3 -14   12.60    3.80
  -3   3 -14   20.80    4.70
   3  -3  14   17.60    4.30
   3  -3  14    7.50    4.90
  -1   4 -13  149.49   13.80
  -1   4 -13  127.69   13.10
   1  -4  13  150.88   14.50
   1  -4  13  146.79   13.50
   1   5 -12  192.28   18.70
   1   5 -12  196.28   17.70
  -1  -5  12  191.48   18.00
  -1  -5  12  209.48   19.30
   3   6 -11   39.80    7.30
   3   6 -11   46.80    6.30
  -3  -6  11   37.50    6.30
  -3  -6  11   47.00    9.20
   5   7 -10   49.99    9.40
   5   7 -10   58.89    8.00
  -5  -7  10   59.49   10.80
   7   8  -9   21.90    6.00
  -7  -8   9   33.10    9.30
  -9  -9   8    6.70    8.80
  -8   1 -17   21.20    5.80
   8  -1  17    7.10    5.50
  -6   2 -16    1.10    3.90
  -6   2 -16    0.60    3.30
  -4   3 -15   27.30    5.50
  -4   3 -15   34.60    5.80
   4  -3  15   28.90    5.80
   4  -3  15   17.70    6.30
  -2   4 -14    8.10    4.20
  -2   4 -14    3.00    3.60
   2  -4  14    3.90    3.70
   2  -4  14   17.30    5.60
   0   5 -13    9.10    3.80
   0   5 -13    1.60    3.80
   0  -5  13    6.80    5.20
   0  -5  13    3.50    3.70
   2   6 -12   17.30    5.80
   2   6 -12   24.00    6.20
  -2  -6  12   20.90    5.00
   4   7 -11   -3.00    3.30
   4   7 -11    3.30    3.90
  -4  -7  11   -3.60    6.60
   6   8 -10   86.59   10.10
  -6  -8  10   56.49   11.70
   8   9  -9    2.80    5.10
  -8  -9   9   11.30    9.20
 -10 -10   8    6.70    8.70
  -7   2 -17    1.30    4.50
   7  -2  17    7.00    5.20
  -5   3 -16    3.20    3.90
  -5   3 -16    5.40    4.20
   5  -3  16   -1.60    4.20
  -3   4 -15   -3.70    4.10
   3  -4  15    4.50    4.10
   3  -4  15   -1.80    5.50
  -1   5 -14   28.10    6.10
  -1   5 -14   25.20    6.70
   1  -5  14   21.60    5.30
   1  -5  14   16.10    7.00
   1   6 -13   30.20    5.80
   1   6 -13   37.40    6.40
  -1  -6  13   17.00    5.20
   3   7 -12   46.50    8.40
   3   7 -12   43.10    6.90
  -3  -7  12   56.19   10.30
  -3  -7  12   41.20    7.10
   5   8 -11   76.79    9.10
  -5  -8  11   73.39   13.00
   7   9 -10   30.70    7.40
  -7  -9  10   46.40   11.10
   9  10  -9   31.50    8.20
  -9 -10   9   44.00   12.30
  -8   2 -18   41.80    7.80
  -6   3 -17    8.10    4.40
  -6   3 -17   17.00    4.70
  -6   3 -17    3.60    4.70
   6  -3  17   16.30    6.30
  -4   4 -16   83.09    9.20
  -4   4 -16   61.39    8.40
   4  -4  16   73.99    9.40
   4  -4  16   60.09    9.80
  -2   5 -15  158.88   17.00
  -2   5 -15  186.48   16.70
   2  -5  15  203.68   18.80
   0   6 -14   44.40    6.30
   0   6 -14   24.30    6.30
   0  -6  14   22.10    6.20
   2   7 -13   24.20    5.50
   2   7 -13   14.40    6.00
  -2  -7  13   13.70    5.10
  -2  -7  13   17.10    7.40
   4   8 -12   34.10    6.50
  -4  -8  12   28.90    8.90
   6   9 -11    4.70    5.20
  -6  -9  11    6.50    8.30
   8  10 -10    3.70    5.80
  -8 -10  10    4.10    9.70
  -7   3 -18    7.30    5.00
  -7   3 -18   -4.80    3.10
  -5   4 -17    0.70    4.20
  -5   4 -17    1.80    4.20
  -5   4 -17   -9.40    4.10
  -3   5 -16   -4.80    4.30
  -3   5 -16   -0.20    4.20
   3  -5  16    4.70    4.80
   3  -5  16    0.80    5.60
  -1   6 -15    8.50    4.40
  -1   6 -15   13.80    6.00
   1  -6  15   24.20    7.80
   1  -6  15    6.30    5.10
   1   7 -14   39.70    8.50
   1   7 -14   62.09    8.00
  -1  -7  14   56.69   10.60
  -1  -7  14   49.50    8.00
   3   8 -13   36.20    6.70
  -3  -8  13   46.70   10.40
   5   9 -12   82.29   10.70
  -5  -9  12   94.89   14.70
   7  10 -11    9.50    6.00
  -6   4 -18   19.10    5.50
  -6   4 -18   15.10    5.20
  -6   4 -18   10.10    5.00
  -4   5 -17    5.10    4.60
  -4   5 -17   -7.10    4.20
  -2   6 -16    5.90    5.00
  -2   6 -16    3.30    4.20
   2  -6  16   17.10    7.80
   0   7 -15    2.10    5.60
   0   7 -15   11.20    4.80
   0  -7  15   14.30    7.70
   2   8 -14    9.40    4.90
  -2  -8  14   10.60    7.70
   4   9 -13    2.10    4.80
  -4  -9  13    7.50    8.60
  -5   5 -18    8.60    4.90
  -5   5 -18   -2.90    5.00
  -5   5 -18   10.80    5.50
  -3   6 -17    1.80    4.80
  -3   6 -17    2.00    5.50
  -1   7 -16    1.90    4.10
  -1   7 -16   -5.50    5.00
   1  -7  16   -1.50    6.40
   1   8 -15    0.30    4.60
  -1  -8  15    7.80    7.90
   3   9 -14   22.40    5.60
  -3  -9  14    6.70    7.60
  -4   6 -18   18.20    5.80
  -4   6 -18   21.00    6.80
  -2   7 -17    6.50    5.20
  -2   7 -17   29.00    6.00
   0   8 -16   64.09    9.60
   0  -8  16   89.69   13.60
   2   9 -15   26.10    6.70
  -2  -9  15   33.80   10.10
   4  10 -14   22.80    6.70
   6  11 -13    4.60    6.50
  -3   7 -18   -1.40    5.70
  -1   8 -17    8.90    5.20
  -1  -9  16    3.90    8.60
   3  10 -15   -4.40    4.80
  -3 -10  15    5.40    8.70
  -2   8 -18   21.20    6.60
  -2   8 -18   30.90    8.90
   0   9 -17   37.40    7.60
   0   9 -17   47.30   10.10
   2  10 -16   15.80    6.40
  -2 -10  16    9.50    9.60
  -1   9 -18   -2.00    5.20
  -1   9 -18   -2.40    6.70
   1  10 -17   -9.60    7.20
   1  10 -17    4.80    6.10
   1  15  -5   -1.30    4.90
  -1  14  -6    2.60    5.20
   2  15  -4   14.00    7.40
   2  15  -4   20.10    6.50
   0  14  -5   24.50    9.20
  -2  13  -6   57.19    9.90
  -2  13  -6   42.80    9.80
  -4  12  -7   25.30    7.60
  -4  12  -7   26.50    8.40
   5  16  -2   -0.10    3.90
   3  15  -3    0.30    6.90
   3  15  -3    1.60    4.30
   1  14  -4   17.80    5.90
   1  14  -4   24.60    7.40
  -1  13  -5   21.30    7.20
  -1  13  -5   22.60    6.00
  -3  12  -6   12.60    6.30
  -5  11  -7    3.50    5.70
  -5  11  -7    7.10    5.90
   6  16  -1   -3.00    4.10
   4  15  -2    1.30    5.80
   4  15  -2    3.90    3.90
   2  14  -3   25.90    6.10
   2  14  -3   31.70    8.00
   0  13  -4    0.20    5.60
   0  13  -4   -2.00    3.90
  -2  12  -5    2.70    4.20
  -2  12  -5   -3.80    4.80
  -4  11  -6    7.50    6.10
  -4  11  -6    1.70    5.60
  -6  10  -7    3.20    5.20
  -6  10  -7    7.90    5.40
   7  16   0    5.60    4.10
   5  15  -1   47.90   11.00
   5  15  -1   55.29    8.40
   3  14  -2   64.49   13.10
   3  14  -2   84.19    9.40
   1  13  -3   42.20    7.30
   1  13  -3   52.19    9.20
  -1  12  -4   42.20    7.00
  -1  12  -4   28.40    7.50
  -3  11  -5   10.20    4.80
  -3  11  -5   11.40    6.10
  -3  11  -5   10.40    5.70
  -5  10  -6   -5.60    4.30
  -5  10  -6    1.40    5.70
  -7   9  -7   12.20    6.00
  -7   9  -7    3.60    5.30
  -7   9  -7   -1.20    4.00
   6  15   0    2.70    7.30
   6  15   0    3.80    3.50
  -4 -14   1   -1.30    4.30
   4  14  -1    3.20    5.60
   4  14  -1    1.10    3.10
  -2 -13   2   -3.90    4.10
   2  13  -2   12.00    4.20
   2  13  -2    3.10    4.90
   0 -12   3    9.00    4.20
   0  12  -3   14.60    4.70
   0  12  -3   11.40    5.40
   0  12  -3    4.70    5.50
  -2  11  -4   22.00    5.40
  -2  11  -4   19.90    6.80
  -2  11  -4   12.80    6.00
  -4  10  -5   95.79   10.90
  -4  10  -5   85.59   11.90
  -6   9  -6   33.80    6.60
  -6   9  -6   27.70    7.60
  -8   8  -7   10.10    5.10
  -8   8  -7    1.50    3.80
   7  15   1   61.59    8.60
   7  15   1   55.79    8.30
  -5 -14   0   37.00    6.90
   5  14   0   40.90    6.30
   3  13  -1  110.19   11.90
   3  13  -1  139.09   14.50
   1  12  -2   55.29   10.30
   1  12  -2   62.49    9.90
   1  12  -2   64.59    8.10
   1 -11   3   12.70    4.30
  -1  11  -3    3.30    3.80
  -1  11  -3    7.50    7.60
  -1  11  -3    7.60    4.80
  -3  10  -4    9.20    4.50
  -3  10  -4    9.70    5.20
  -3  10  -4   10.20    5.70
  -5   9  -5   36.00    7.50
  -5   9  -5   30.20    6.40
  -5   9  -5   25.50    6.40
  -7   8  -6    2.40    3.60
  -7   8  -6    5.00    5.00
  -7   8  -6   16.30    5.70
   8  15   2    4.00    4.30
   8  15   2    5.70    4.60
   6  14   1   32.30    5.70
   6  14   1   32.90    7.80
   6  14   1   22.80    5.30
  -4 -13   0   50.29    7.20
   4  13   0   45.50    8.70
  -2 -12   1   35.60    5.60
   2  12  -1   26.70    7.80
   2  12  -1   38.80    6.20
   2  12  -1   36.50    7.40
   0 -11   2   10.30    4.00
   0  11  -2    9.80    7.00
   0  11  -2   13.10    5.10
   0  11  -2    9.00    4.80
   2 -10   3   72.79    9.30
  -2  10  -3   83.49    9.80
  -2  10  -3   84.79   10.90
  -2  10  -3   71.29   10.90
  -4   9  -4  104.39   13.50
  -4   9  -4  138.79   13.40
  -4   9  -4  133.39   13.10
  -6   8  -5   16.60    4.80
  -6   8  -5   23.10    5.80
  -6   8  -5   29.80    6.20
  -8   7  -6   32.20    7.00
  -8   7  -6   21.30    5.00
   9  15   3    4.60    4.30
   9  15   3    2.60    6.70
   7  14   2   -1.50    5.20
   7  14   2    2.80    3.40
  -5 -13  -1   28.20    6.40
   5  13   1   39.80    5.50
   5  13   1   26.80    7.50
  -3 -12   0   77.69    8.60
   3  12   0   56.69    9.70
   3  12   0   64.49    7.50
  -1 -11   1   21.20    4.40
   1  11  -1    9.80    5.00
   1  11  -1   18.40    4.20
   1  11  -1   10.00    5.90
   1 -10   2  154.38   15.50
   1 -10   2  136.69   13.70
  -1  10  -2  155.88   15.20
  -1  10  -2  143.39   13.90
   3  -9   3   59.69    9.10
   3  -9   3   47.20    7.80
  -3   9  -3   59.29    7.80
  -3   9  -3   61.29    8.50
   5  -8   4   11.00    5.10
  -5   8  -4   11.40    4.60
  -5   8  -4    8.90    4.70
  -7   7  -5   22.70    6.20
  -7   7  -5   17.40    4.50
  -7   7  -5   23.10    5.90
  -9   6  -6    8.20    6.00
   8  14   3   25.20    7.70
   8  14   3   22.10    4.70
   6  13   2   21.10    4.30
   6  13   2   19.00    4.10
   6  13   2   22.10    6.70
  -4 -12  -1   32.40    5.60
   4  12   1   28.90    8.60
   4  12   1   34.90    5.20
   4  12   1   35.40    7.20
  -2 -11   0   32.40    5.30
   2  11   0   23.20    6.90
   2  11   0   32.00    5.00
   0 -10   1    5.40    4.70
   0 -10   1   15.90    3.90
   0  10  -1   18.30    3.80
   0  10  -1    7.80    4.30
   2  -9   2    8.90    4.80
   2  -9   2    7.20    3.50
  -2   9  -2   12.50    4.20
  -2   9  -2    7.80    3.40
   4  -8   3   32.80    6.00
   4  -8   3   33.60    7.00
  -4   8  -3   36.80    6.10
  -4   8  -3   25.20    5.50
   6  -7   4   28.20    6.10
  -6   7  -4   23.90    5.70
  -6   7  -4   25.30    5.30
  -8   6  -5    2.70    3.50
  -8   6  -5    3.10    4.10
  -8   6  -5    7.10    5.70
   9  14   4   13.10    5.20
   9  14   4   12.40    6.50
   9  14   4    9.90    4.10
   7  13   3   17.30    5.90
   7  13   3   16.90    4.10
   7  13   3   17.00    4.30
  -5 -12  -2   74.19    8.00
   5  12   2   58.09    9.10
   5  12   2   40.00    9.40
   5  12   2   57.39    6.50
  -3 -11  -1  165.78   14.50
   3  11   1  149.88   14.20
  -1 -10   0  144.29   14.30
  -1 -10   0  132.29   12.90
   1  10   0  146.09   13.10
   1  10   0  140.29   14.10
   1  -9   1   66.89    7.40
   1  -9   1   74.79    9.10
  -1   9  -1   65.69    8.10
  -1   9  -1   75.19    7.60
   3  -8   2   83.89   10.00
   3  -8   2   73.99    8.40
  -3   8  -2   60.79    8.20
  -3   8  -2   73.99    8.60
   5  -7   3   60.89    8.90
   5  -7   3   56.39    8.00
  -5   7  -3   71.19    8.70
  -5   7  -3   62.69    7.90
  -7   6  -4    5.00    3.40
  -7   6  -4   11.30    4.50
  -9   5  -5    7.10    3.90
  -9   5  -5    3.00    3.90
  10  14   5   12.50    5.00
  10  14   5    8.50    4.80
  10  14   5   10.30    5.90
   8  13   4    7.70    5.40
   8  13   4    6.40    3.40
   8  13   4    6.10    3.60
   6  12   3    8.90    3.20
   6  12   3   13.10    3.50
   6  12   3   12.30    6.60
   6  12   3   11.10    5.20
  -4 -11  -2    6.60    3.80
   4  11   2   10.10    2.90
  -2 -10  -1    1.70    3.30
  -2 -10  -1   11.80    3.10
   2  10   1    5.70    3.60
   2  10   1   12.60    2.70
   0  -9   0   25.90    5.10
   0   9   0   21.90    4.70
   2  -8   1   34.50    5.20
   2  -8   1   39.20    6.40
  -2   8  -1   35.10    5.20
  -2   8  -1   37.70    6.10
   4  -7   2  146.69   13.00
   4  -7   2   99.69   11.80
  -4   7  -2  131.49   12.30
  -4   7  -2  123.99   12.00
   6  -6   3   21.00    5.30
  -6   6  -3   16.30    4.60
  -6   6  -3   14.30    3.90
   8  -5   4   53.89    7.90
  -8   5  -4   49.30    8.10
  -8   5  -4   39.80    6.40
 -10   4  -5   75.69   10.90
   9  13   5    5.30    3.90
   9  13   5    1.90    3.40
   9  13   5    0.10    5.40
   7  12   4   12.40    3.20
   7  12   4   21.20    7.70
   7  12   4   14.30    3.80
   7  12   4    9.60    5.20
   5  11   3   85.59   11.40
   5  11   3   68.49    7.40
  -3 -10  -2   28.80    5.60
  -3 -10  -2   25.70    4.30
   3  10   2   29.00    4.10
   3  10   2   21.90    5.30
  -1  -9  -1  118.89   12.00
  -1  -9  -1  115.29   10.60
   1   9   1  113.29   10.70
   1   9   1  118.39   11.80
   1  -8   0   28.60    4.30
   1  -8   0   28.20    5.40
  -1   8   0   30.40    4.40
  -1   8   0   25.30    5.00
   3  -7   1    6.40    3.50
   3  -7   1    4.10    2.70
  -3   7  -1    1.40    2.90
  -3   7  -1    1.20    2.50
   5  -6   2    9.10    3.50
   5  -6   2   18.90    5.10
  -5   6  -2    8.80    3.30
   7  -5   3    1.60    3.70
  -7   5  -3    6.40    4.20
  -7   5  -3    7.90    3.30
  -9   4  -4   17.50    6.00
  -9   4  -4   19.50    4.00
  10  13   6   17.00    5.00
  10  13   6   18.30    6.70
   8  12   5   10.50    5.70
   8  12   5   16.50    4.00
   8  12   5   20.20    7.10
   8  12   5   14.80    4.00
   6  11   4   56.19    6.00
   6  11   4   50.69    6.00
   6  11   4   65.09   10.00
  -4 -10  -3   69.69    9.00
  -4 -10  -3   74.09    7.30
   4  10   3   68.29    8.20
   4  10   3   63.99    6.80
  -2  -9  -2  191.08   18.50
  -2  -9  -2  241.08   20.00
   2   9   2  215.58   18.60
   2   9   2  218.18   19.60
   0  -8  -1   71.59    9.40
   0   8   1   91.39    8.50
   0   8   1  105.49    9.50
   2  -7   0   17.50    3.50
   2  -7   0   22.50    4.50
  -2   7   0   13.80    3.80
  -2   7   0   23.80    3.70
   4  -6   1   70.79    8.10
  -4   6  -1   83.09    8.50
  -4   6  -1   90.49    8.40
   6  -5   2   55.09    7.40
   6  -5   2   59.29    7.30
  -6   5  -2   55.89    7.60
  -6   5  -2   52.89    6.60
   8  -4   3   29.30    5.40
  -8   4  -3   25.20    5.00
  -8   4  -3   27.40    5.80
  11  13   7    9.70    4.70
  11  13   7    3.00    5.20
   9  12   6    6.60    3.20
   9  12   6    2.10    3.30
   9  12   6   -0.50    3.90
   9  12   6   -0.20    6.20
   7  11   5    7.40    3.10
   7  11   5    3.50    5.60
   7  11   5    4.30    2.80
  -5 -10  -4    2.00    3.50
   5  10   4   10.90    4.00
   5  10   4   10.70    2.70
   5  10   4    6.10    2.40
  -3  -9  -3    0.30    3.30
  -3  -9  -3    9.40    2.50
   3   9   3   17.80    2.60
   3   9   3    7.20    3.40
  -1  -8  -2   44.30    5.00
  -1  -8  -2   51.29    6.90
   1   8   2   47.90    6.60
   1   8   2   50.09    5.10
   1  -7  -1   74.19    7.70
   1  -7  -1   56.19    6.90
  -1   7   1   59.39    6.00
  -1   7   1   52.59    6.60
   3  -6   0   56.69    7.50
   3  -6   0   50.79    6.10
  -3   6   0   44.00    5.90
   5  -5   1   50.19    6.50
   5  -5   1   59.29    7.00
  -5   5  -1   61.49    7.00
  -5   5  -1   45.20    6.00
   7  -4   2   31.40    5.40
  -7   4  -2   35.20    5.30
  -7   4  -2   28.00    6.10
   9  -3   3    1.00    3.70
  -9   3  -3   -0.90    3.00
  -9   3  -3   -2.30    4.20
 -11   2  -4   -3.50    5.50
  10  12   7   49.30    6.70
  10  12   7   37.10    6.20
  10  12   7   36.40    7.40
  10  12   7   42.50    9.30
   8  11   6  169.18   15.20
   8  11   6  159.58   17.40
   8  11   6  167.58   15.30
   6  10   5   35.30    6.40
   6  10   5   33.90    4.80
   6  10   5   41.70    4.90
  -4  -9  -4  121.99   12.20
  -4  -9  -4  128.79   10.80
   4   9   4  117.19   10.60
   4   9   4  102.89   11.60
  -2  -8  -3   81.09    7.50
  -2  -8  -3   74.29    8.70
   2   8   3   76.99    8.50
   2   8   3   88.49    8.10
   0  -7  -2   25.20    4.80
   0  -7  -2   26.40    3.90
   0   7   2   32.30    4.00
   0   7   2   27.90    4.70
   2  -6  -1    2.60    2.90
  -2   6   1    6.60    2.30
  -2   6   1    4.50    2.60
   4  -5   0    4.70    2.60
   4  -5   0    3.90    2.80
  -4   5   0    4.80    2.60
  -4   5   0    8.30    2.70
   6  -4   1    5.80    2.90
   6  -4   1    4.80    2.80
  -6   4  -1    3.60    2.90
  -6   4  -1    9.40    3.50
   8  -3   2   19.70    4.30
  -8   3  -2   12.50    4.80
  -8   3  -2   35.30    6.60
  10  -2   3   12.70    3.90
 -10   2  -3    6.60    5.20
  11  12   8   11.50    5.70
  11  12   8   14.00    4.80
  11  12   8   11.00    7.20
   9  11   7    2.60    2.90
   9  11   7    4.00    3.20
   9  11   7    1.70    5.70
   7  10   6   12.50    5.60
   7  10   6   10.30    3.00
   7  10   6    9.50    3.00
   7  10   6   12.60    4.20
  -5  -9  -5    3.20    3.60
   5   9   5    9.30    2.50
   5   9   5    8.50    3.40
   5   9   5    8.70    2.30
  -3  -8  -4  271.17   23.80
  -3  -8  -4  273.77   22.70
   3   8   4  261.07   22.60
   3   8   4  253.87   23.50
  -1  -7  -3  239.28   19.80
  -1  -7  -3  211.48   18.50
   1   7   3  213.18   18.40
   1   7   3  204.28   19.20
   1  -6  -2  192.78   16.30
   1  -6  -2  167.58   15.50
  -1   6   2  186.28   15.50
  -1   6   2  167.28   15.90
   3  -5  -1  526.15   45.50
   3  -5  -1  541.85   45.90
  -3   5   1  544.75   45.70
  -3   5   1  533.55   45.50
   5  -4   0  167.98   15.20
   5  -4   0  173.88   15.30
  -5   4   0  169.48   15.30
  -5   4   0  160.48   15.00
   7  -3   1   33.00    5.00
   7  -3   1   24.00    5.20
  -7   3  -1   40.20    5.30
  -7   3  -1   29.80    5.50
   9  -2   2   29.00    4.90
  -9   2  -2   41.90    7.10
  -9   2  -2   36.40    5.50
 -11   1  -3   14.40    5.80
  10  11   8    1.20    3.10
  10  11   8   -3.30    3.90
  10  11   8    5.40    3.50
  10  11   8    1.10    5.80
   8  10   7   42.10    5.10
   8  10   7   44.80    7.20
   8  10   7   45.30    8.50
  -6  -9  -6   28.80    5.60
   6   9   6   41.80    4.40
   6   9   6   31.80    4.20
   6   9   6   29.50    5.60
  -4  -8  -5   16.40    4.50
   4   8   5   17.80    4.30
   4   8   5   30.60    3.40
   4   8   5   32.00    3.30
  -2  -7  -4    6.60    1.90
   2   7   4    3.60    1.60
   2   7   4    0.20    2.60
   0  -6  -3   34.50    5.50
   0  -6  -3   45.30    4.50
   0   6   3   33.10    5.30
   0   6   3   56.39    4.60
   2  -5  -2  184.48   15.10
   2  -5  -2  153.88   14.50
  -2   5   2  172.88   14.90
  -2   5   2  156.08   14.50
   4  -4  -1   53.69    6.30
   4  -4  -1   56.19    6.10
  -4   4   1   54.09    6.10
  -4   4   1   59.89    6.10
   6  -3   0   33.30    5.20
   6  -3   0   33.80    4.80
  -6   3   0   30.90    5.00
  -6   3   0   32.50    4.80
   8  -2   1   42.20    5.80
  -8   2  -1   47.20    6.10
  -8   2  -1   38.70    7.00
  10  -1   2   38.60    5.90
 -10   1  -2   43.80    5.60
 -10   1  -2   72.89    9.10
 -12   0  -3   14.30    8.00
  11  11   9    1.80    3.80
  11  11   9   13.60    6.40
  11  11   9   -1.10    4.70
  11  11   9    5.40    3.70
   9  10   8   18.90    4.00
   9  10   8   14.30    3.40
   9  10   8   12.90    4.30
   9  10   8   33.30    7.40
   7   9   7   48.90    5.30
   7   9   7   45.40    5.20
   7   9   7   56.99    7.20
  -5  -8  -6   54.69    7.20
   5   8   6   46.10    4.80
   5   8   6   57.39    6.70
   5   8   6   46.10    4.80
  -3  -7  -5  322.97   30.60
  -3  -7  -5  324.17   28.80
   3   7   5  372.46   28.70
   3   7   5  330.27   29.50
  -1  -6  -4  690.83   57.29
  -1  -6  -4  695.73   56.49
   1   6   4  658.23   56.49
   1   6   4  648.84   57.09
   1  -5  -3  217.58   18.50
   1  -5  -3  220.48   19.10
  -1   5   3  215.98   19.00
  -1   5   3  209.58   18.50
   3  -4  -2   73.09    7.80
   3  -4  -2   76.99    7.50
  -3   4   2   79.29    7.60
  -3   4   2   77.49    7.40
   5  -3  -1  174.98   14.90
   5  -3  -1  168.98   14.90
  -5   3   1  151.48   14.70
  -5   3   1  167.08   15.00
   7  -2   0   15.00    3.50
   7  -2   0   10.40    3.70
  -7   2   0   11.10    3.90
  -7   2   0   18.30    4.10
   9  -1   1    4.00    2.90
  -9   1  -1   -0.60    3.90
  -9   1  -1    3.60    4.60
  10  10   9    5.40    3.20
  10  10   9   11.70    3.40
  10  10   9    9.50    4.40
  10  10   9    9.90    5.30
   8   9   8  121.29   12.70
   8   9   8  148.99   11.90
   8   9   8  107.19   13.40
   8   9   8  127.29   11.80
  -6  -8  -7   73.99    7.90
   6   8   7   59.09    7.40
   6   8   7   70.09    6.30
   6   8   7   63.09    6.30
  -4  -7  -6  214.58   19.60
   4   7   6  218.38   18.30
   4   7   6  224.28   18.30
   4   7   6  199.88   19.10
  -2  -6  -5  668.73   53.29
  -2  -6  -5  627.44   53.99
   2   6   5  622.44   53.89
   2   6   5  621.54   53.19
   0  -5  -4  247.98   20.70
   0  -5  -4  236.88   19.90
   0   5   4  225.28   19.90
   0   5   4  229.48   20.50
   2  -4  -3  119.39    9.70
   2  -4  -3  110.29   10.20
  -2   4   3  111.29   10.00
  -2   4   3   90.09    9.60
   4  -3  -2   44.20    5.30
   4  -3  -2   59.89    5.80
  -4   3   2   54.79    5.50
  -4   3   2   40.10    5.30
   6  -2  -1   11.30    3.20
   6  -2  -1    6.40    2.70
  -6   2   1    6.00    3.00
  -6   2   1    8.00    3.20
   8  -1   0   31.60    4.90
  -8   1   0   35.10    5.30
  -8   1   0   29.00    5.80
  10   0   1    8.20    3.20
 -10   0  -1    9.80    4.70
 -10   0  -1   11.50    5.40
 -12  -1  -2    5.80    5.70
  11  10  10   10.10    5.30
  11  10  10   12.00    4.00
  11  10  10    6.70    4.30
  11  10  10    4.00    3.80
   9   9   9   14.40    3.60
   9   9   9    9.50    3.70
   9   9   9   10.40    3.00
   9   9   9   17.50    5.50
   7   8   8   87.29    8.60
   7   8   8   75.99    7.50
  -5  -7  -7    0.50    2.70
   5   7   7    5.20    1.50
   5   7   7    5.70    1.70
   5   7   7    4.50    2.40
  -3  -6  -6   59.79    7.20
   3   6   6   76.19    6.10
   3   6   6   67.69    6.00
   3   6   6   65.19    7.00
  -1  -5  -5  342.77   28.40
  -1  -5  -5  363.46   29.20
   1   5   5  320.27   28.40
   1   5   5  328.67   29.00
   1  -4  -4  300.97   24.80
   1  -4  -4  297.97   24.30
  -1   4   4  284.47   24.60
  -1   4   4  262.87   24.20
   3  -3  -3  325.57   28.90
   3  -3  -3  336.57   28.70
  -3   3   3  328.17   28.80
  -3   3   3  355.56   28.70
   5  -2  -2  355.96   33.50
   5  -2  -2  399.16   33.50
  -5   2   2  412.06   33.60
  -5   2   2  397.96   33.50
   7  -1  -1   35.10    5.30
   7  -1  -1   32.30    5.40
  -7   1   1   53.89    6.00
  -7   1   1   45.30    6.30
   9   0   0   29.30    7.00
   9   0   0   41.20    5.70
  -9   0   0   40.60    7.00
  -9   0   0   41.30    5.90
  11   1   1   43.50    6.60
 -11  -1  -1   48.30    8.00
 -11  -1  -1   40.70    7.10
  10   9  10   24.30    5.30
  10   9  10   24.80    4.30
  10   9  10   28.90    6.10
  10   9  10   29.70    5.20
   8   8   9  152.58   15.70
   8   8   9  168.08   14.40
   8   8   9  168.78   14.50
   8   8   9  148.69   14.90
  -6  -7  -8  333.87   29.30
   6   7   8  331.87   28.30
   6   7   8  330.57   28.40
   6   7   8  341.77   29.10
  -4  -6  -7  109.79   10.60
   4   6   7  114.29    9.60
   4   6   7  113.49   10.50
   4   6   7  108.69    9.50
  -2  -5  -6  231.08   20.10
   2   5   6  226.28   19.90
   0  -4  -5  192.88   17.10
   0  -4  -5  186.68   16.50
   0   4   5  193.48   16.50
   0   4   5  209.28   17.30
   2  -3  -4   25.30    3.90
   2  -3  -4   21.10    3.10
  -2   3   4   23.10    4.10
  -2   3   4   18.70    3.10
   4  -2  -3   29.70    4.30
   4  -2  -3   33.60    4.40
  -4   2   3   29.00    4.20
  -4   2   3   30.30    4.50
   6  -1  -2   38.00    5.20
   6  -1  -2   34.00    4.90
  -6   1   2   35.60    5.30
  -6   1   2   36.80    5.20
   8   0  -1    5.20    3.30
   8   0  -1   -4.20    3.20
  -8   0   1    1.30    3.80
  -8   0   1    2.20    3.70
  10   1   0   -1.50    3.20
 -10  -1   0    8.80    4.50
 -10  -1   0    6.40    3.70
 -12  -2  -1    7.10    5.90
  11   9  11   12.00    4.20
  11   9  11    4.00    3.50
  11   9  11    5.80    4.00
   9   8  10   20.80    4.30
  -7  -7  -9    3.20    2.90
   7   7   9    5.00    2.70
   7   7   9    5.00    1.90
  -5  -6  -8   79.99    7.20
   5   6   8   50.79    5.90
   5   6   8   72.79    6.70
   5   6   8   67.39    5.80
  -3  -5  -7    0.30    2.50
   3   5   7    2.00    2.30
  -1  -4  -6  802.52   66.49
  -1  -4  -6  766.22   66.89
   1   4   6  809.52   66.29
   1  -3  -5  522.85   43.40
   1  -3  -5  522.95   43.00
  -1   3   5  487.85   43.00
   3  -2  -4  344.57   28.20
   3  -2  -4  321.37   27.90
  -3   2   4  314.27   28.10
  -3   2   4  330.27   27.90
   5  -1  -3  254.27   23.90
   5  -1  -3  296.47   24.00
  -5   1   3  275.07   23.90
  -5   1   3  275.07   23.90
   7   0  -2   96.19    9.10
   7   0  -2   74.49    8.90
  -7   0   2   85.89    9.20
  -7   0   2   98.49    9.30
   9   1  -1   32.60    6.00
  -9  -1   1   49.50    6.90
  -9  -1   1   33.60    5.80
 -11  -2   0   13.90    5.30
 -11  -2   0    8.40    5.10
  10   8  11   15.50    4.30
  10   8  11   24.70    4.20
  10   8  11   28.70    5.10
  -8  -7 -10   14.60    2.80
   8   7  10    9.10    3.00
   8   7  10   18.10    3.10
  -6  -6  -9   23.80    4.10
   6   6   9   21.00    3.80
   6   6   9   20.80    2.90
  -4  -5  -8   24.50    4.00
   4   5   8   23.80    3.80
  -2  -4  -7   55.69    5.70
   2   4   7   47.90    6.10
   0  -3  -6   31.00    3.40
   0  -3  -6   39.60    4.40
   0   3   6   37.60    4.50
   0   3   6   32.00    3.40
   2  -2  -5   97.99    9.50
   2  -2  -5  105.69    9.10
  -2   2   5   98.79    9.10
  -2   2   5   99.29    9.80
   4  -1  -4    3.50    2.40
   4  -1  -4    6.50    2.50
  -4   1   4    6.40    2.90
  -4   1   4   11.50    2.50
   6   0  -3   45.60    6.00
   6   0  -3   51.39    6.50
  -6   0   3   61.79    7.00
  -6   0   3   63.79    7.00
   8   1  -2    5.30    3.80
  -8  -1   2   11.20    3.80
  -8  -1   2    4.80    4.20
  10   2  -1   22.80    5.10
 -10  -2   1   22.10    5.40
 -10  -2   1   25.80    5.90
  12   3   0   13.00    5.50
 -12  -3   0   21.50    6.50
 -11  -8 -12   32.20    5.30
  11   8  12   40.70    5.80
  11   8  12   34.70    5.10
  -9  -7 -11   53.79    5.60
   9   7  11   47.70    6.00
   9   7  11   26.70    6.00
  -7  -6 -10  170.68   14.00
  -7  -6 -10  147.79   14.60
   7   6  10  161.98   14.00
   7   6  10  151.28   14.30
  -5  -5  -9  117.79   10.40
  -5  -5  -9  103.89    9.60
   5   5   9  109.39    9.60
   5   5   9  119.39   11.20
  -3  -4  -8   19.50    3.30
   3   4   8   16.10    3.30
  -1  -3  -7   37.70    4.40
  -1  -3  -7   29.30    3.10
   1   3   7   39.90    4.50
   1  -2  -6  145.59   12.40
   1  -2  -6  146.99   12.90
  -1   2   6  136.69   12.40
   3  -1  -5  203.08   17.70
   3  -1  -5  196.08   17.50
  -3   1   5  202.08   17.70
  -3   1   5  202.38   17.50
   5   0  -4   10.10    3.20
   5   0  -4    7.60    2.90
  -5   0   4    9.40    2.90
  -5   0   4   17.40    3.80
   7   1  -3    4.10    3.00
  -7  -1   3    0.90    3.80
  -7  -1   3    2.60    3.20
   9   2  -2   -2.10    3.70
   9   2  -2    3.40    4.00
  -9  -2   2    8.90    4.50
  -9  -2   2    2.00    4.60
  11   3  -1    2.60    4.30
 -11  -3   1    9.70    6.10
 -11  -3   1   -1.20    4.50
 -10  -7 -12   25.80    4.30
  10   7  12   16.90    4.10
  10   7  12   24.40    4.10
  10   7  12   31.40    4.70
  -8  -6 -11   44.70    5.00
   8   6  11   39.80    5.00
   8   6  11   48.40    6.20
  -6  -5 -10   86.59    8.90
  -6  -5 -10   99.59    8.20
   6   5  10   82.29    8.80
  -4  -4  -9  170.68   14.10
  -4  -4  -9  154.78   14.80
   4   4   9  158.68   14.70
   4   4   9  176.18   14.10
  -2  -3  -8  614.54   51.79
   2   3   8  610.84   51.69
   0  -2  -7  410.06   36.60
   0  -2  -7  452.85   36.20
   0   2   7  424.46   36.70
   2  -1  -6  191.38   16.90
   2  -1  -6  207.78   16.60
  -2   1   6  174.68   16.80
  -2   1   6  189.68   16.50
   4   0  -5  168.68   14.80
   4   0  -5  159.78   15.00
  -4   0   5  167.98   15.10
  -4   0   5  170.78   14.80
   6   1  -4   27.60    5.30
   6   1  -4   20.60    4.20
  -6  -1   4   28.90    5.00
  -6  -1   4   29.10    4.70
   8   2  -3   31.50    5.60
   8   2  -3   27.70    5.70
  -8  -2   3   38.40    6.40
  -8  -2   3   42.50    5.80
  10   3  -2   -2.00    4.10
 -10  -3   2    2.50    5.40
 -10  -3   2   -2.60    4.10
  12   4  -1    1.90    5.10
 -12  -4   1    9.50    6.70
 -12  -4   1   -0.50    5.40
 -11  -7 -13    6.90    3.70
  11   7  13   13.30    4.30
  -9  -6 -12   31.60    4.70
   9   6  12   28.60    4.60
   9   6  12   23.50    4.40
   9   6  12   32.80    4.40
  -7  -5 -11    2.50    2.40
   7   5  11    4.80    2.30
   7   5  11    5.70    2.50
  -5  -4 -10   14.10    2.10
  -5  -4 -10    3.90    2.60
   5   4  10   13.30    2.60
   5   4  10    9.20    1.90
  -3  -3  -9  125.59   10.50
  -3  -3  -9  111.89    9.80
   3   3   9  131.19   10.50
   3   3   9  101.19    9.80
  -1  -2  -8   27.10    3.10
  -1  -2  -8   33.00    3.20
  -1  -2  -8   31.20    4.30
   1   2   8   36.80    4.60
   1  -1  -7   12.50    3.10
   1  -1  -7   14.50    2.40
  -1   1   7    7.80    3.10
   3   0  -6  144.39   15.70
   3   0  -6  196.38   16.20
  -3   0   6  170.28   15.70
  -3   0   6  219.48   16.30
   5   1  -5  186.58   16.90
   5   1  -5  178.58   17.00
  -5  -1   5  202.58   17.30
  -5  -1   5  191.08   16.80
   7   2  -4  100.99    9.50
   7   2  -4   84.59    9.20
  -7  -2   4   95.99   10.00
  -7  -2   4   83.69    9.30
   9   3  -3   84.59    9.40
   9   3  -3   77.99    9.50
  -9  -3   3   84.99    9.50
  -9  -3   3   93.59   10.20
  11   4  -2   11.10    5.70
 -11  -4   2   20.80    6.80
 -11  -4   2   15.00    5.30
 -10  -6 -13   -1.70    3.00
  10   6  13    2.40    3.40
  -8  -5 -12   99.09    9.00
   8   5  12   98.09    9.10
   8   5  12   87.29    8.80
  -6  -4 -11  112.19   11.10
  -6  -4 -11  125.89   10.90
   6   4  11  120.39   11.20
   6   4  11  130.09   10.90
  -4  -3 -10  113.39   11.30
  -4  -3 -10  131.29   10.90
   4   3  10  127.49   11.30
   4   3  10  127.29   10.80
  -2  -2  -9  627.94   53.49
  -2  -2  -9  624.44   52.99
   2   2   9  622.54   53.39
   2   2   9  655.73   53.09
   0  -1  -8  374.56   31.00
   0  -1  -8  367.06   31.40
   0  -1  -8  370.16   31.00
   0   1   8  356.26   31.40
   2   0  -7  270.97   23.60
   2   0  -7  288.67   23.30
  -2   0   7  255.37   23.60
   4   1  -6   47.80    6.70
   4   1  -6   48.50    6.10
  -4  -1   6   47.50    5.30
  -4  -1   6   47.60    6.50
   6   2  -5   24.00    4.60
   6   2  -5   31.20    5.00
  -6  -2   5   27.10    5.20
  -6  -2   5   28.20    4.50
   8   3  -4   45.20    6.10
   8   3  -4   18.30    6.10
  -8  -3   4   26.20    5.20
  -8  -3   4   29.70    6.40
  10   4  -3    2.20    4.80
 -10  -4   3    1.30    5.80
 -10  -4   3    4.40    4.30
  12   5  -2  -11.00    5.40
 -12  -5   2    2.00    5.30
 -12  -5   2    8.00    5.80
  -9  -5 -13   19.80    4.10
   9   5  13   15.10    3.90
  -7  -4 -12    0.40    2.10
  -7  -4 -12    4.20    2.50
   7   4  12   -0.40    2.50
   7   4  12    3.10    2.40
  -5  -3 -11   46.80    4.70
  -5  -3 -11   38.30    4.90
   5   3  11   43.90    4.60
   5   3  11   50.19    5.20
  -3  -2 -10   52.09    4.90
  -3  -2 -10   55.99    5.60
   3   2  10   45.50    4.80
   3   2  10   52.69    5.60
  -1  -1  -9  338.87   28.90
  -1  -1  -9  340.87   29.30
   1   1   9  327.57   28.90
   1   1   9  366.56   29.70
   1   0  -8   55.19    5.20
   1   0  -8   44.80    5.90
   1   0  -8   48.00    5.20
  -1   0   8   52.79    6.40
   3   1  -7  184.98   16.80
   3   1  -7  195.78   17.30
  -3  -1   7  190.98   16.70
  -3  -1   7  194.78   17.30
   5   2  -6  359.06   32.90
   5   2  -6  403.56   33.30
  -5  -2   6  376.06   32.90
  -5  -2   6  397.86   33.40
   7   3  -5  166.38   15.70
   7   3  -5  171.18   15.80
  -7  -3   5  153.88   15.50
  -7  -3   5  184.28   16.30
   9   4  -4   62.19    8.60
   9   4  -4   62.29    8.80
  -9  -4   4   76.69    9.60
  -9  -4   4   67.39    8.50
  11   5  -3   11.20    6.10
 -11  -5   3   12.70    5.60
 -10  -5 -14    4.20    3.60
  10   5  14    1.30    3.90
  -8  -4 -13    4.90    3.00
   8   4  13    1.70    2.90
  -6  -3 -12   44.60    5.40
  -6  -3 -12   41.20    5.30
   6   3  12   61.89    5.50
   6   3  12   54.19    5.30
  -4  -2 -11   76.49    6.90
  -4  -2 -11   79.49    7.30
   4   2  11   73.99    7.30
   4   2  11   66.49    6.80
  -2  -1 -10   53.29    6.00
  -2  -1 -10   51.09    5.30
   2   1  10   57.79    5.50
   2   1  10   78.39    8.60
   0   0  -9   13.90    3.50
   0   0  -9   21.30    3.10
   0   0   9   17.30    3.10
   0   0   9   24.20    4.00
   2   1  -8  157.48   13.80
   2   1  -8  159.38   14.30
   2   1  -8  156.38   13.80
  -2  -1   8  149.29   14.40
   4   2  -7   36.20    5.90
   4   2  -7   39.60    5.30
  -4  -2   7   45.80    6.60
   6   3  -6   32.80    5.50
   6   3  -6   40.10    6.20
  -6  -3   6   48.40    7.10
  -6  -3   6   44.50    5.60
   8   4  -5   26.20    5.40
   8   4  -5   25.70    5.80
  -8  -4   5   31.10    5.40
  -8  -4   5   15.90    5.90
  10   5  -4    8.70    5.60
 -10  -5   4    3.20    4.60
  12   6  -3   -8.80    6.10
 -12  -6   3    2.20    5.80
 -12  -6   3   -1.60    6.10
  11   5  15    1.40    4.70
  -9  -4 -14   58.59    7.10
   9   4  14   51.59    7.00
  -7  -3 -13  190.08   18.30
  -7  -3 -13  248.98   18.80
   7   3  13  207.88   18.30
  -5  -2 -12   50.49    5.40
  -5  -2 -12   48.40    5.40
   5   2  12   49.30    5.20
   5   2  12   47.90    5.50
  -3  -1 -11   57.89    5.60
  -3  -1 -11   52.09    6.10
   3   1  11   65.89    8.20
   3   1  11   60.49    5.70
  -1   0 -10  216.58   18.40
  -1   0 -10  223.38   18.90
   1   0  10  208.38   18.40
   1   0  10  206.58   18.90
   1   1  -9  209.68   19.80
  -1  -1   9  256.07   20.50
   3   2  -8    0.30    2.70
   3   2  -8    0.30    2.50
   3   2  -8   -1.30    3.10
  -3  -2   8   -0.60    3.70
   5   3  -7    4.40    3.40
   5   3  -7    2.70    3.70
   5   3  -7    5.40    2.90
  -5  -3   7    7.50    4.40
   7   4  -6   24.50    5.00
   7   4  -6   18.40    5.20
  -7  -4   6   27.00    6.80
   9   5  -5    1.70    4.90
  -9  -5   5   11.60    6.90
  -9  -5   5    6.60    4.70
  11   6  -4   -7.20    5.20
 -11  -6   4    6.80    6.50
 -10  -4 -15   19.40    4.60
  10   4  15   14.00    5.00
  -8  -3 -14    5.80    3.40
   8   3  14    5.50    3.30
  -6  -2 -13   33.50    4.40
  -6  -2 -13   22.90    3.50
   6   2  13   31.40    4.00
   6   2  13   17.60    3.90
  -4  -1 -12  201.08   18.20
  -4  -1 -12  218.78   18.10
   4   1  12  219.08   18.10
   4   1  12  189.88   18.40
  -2   0 -11  226.68   20.70
  -2   0 -11  261.67   21.10
   2   0  11  233.58   20.40
   2   0  11  231.98   20.80
   0   1 -10  249.78   21.60
   0   1 -10  254.47   21.10
   0  -1  10  227.98   21.60
   0  -1  10  244.88   21.20
   2   2  -9  260.87   22.30
   2   2  -9  252.37   21.80
   2   2  -9  256.17   21.80
  -2  -2   9  234.78   22.30
   4   3  -8  244.48   20.70
   4   3  -8  230.18   21.10
   4   3  -8  230.18   20.50
  -4  -3   8  228.78   21.30
   6   4  -7   27.50    5.30
   6   4  -7   15.00    5.30
   6   4  -7   23.80    4.60
  -6  -4   7   22.60    6.10
   8   5  -6    1.70    5.10
   8   5  -6   -1.40    4.70
  -8  -5   6   -6.00    5.90
  10   6  -5    3.90    5.80
  10   6  -5   21.40    7.10
 -10  -6   5    0.70    7.20
 -11  -4 -16   11.60    4.90
  -9  -3 -15    6.40    3.90
   9   3  15    0.90    3.70
  -7  -2 -14   80.89    7.80
   7   2  14   65.49    7.60
  -5  -1 -13   71.39    6.70
  -5  -1 -13   64.59    6.70
   5   1  13   59.39    6.50
   5   1  13   58.49    6.80
  -3   0 -12   -1.80    2.70
  -3   0 -12    2.60    2.40
   3   0  12    0.50    2.90
   3   0  12    4.60    2.40
  -1   1 -11   12.40    3.40
  -1   1 -11    9.80    2.60
   1  -1  11    9.70    3.90
   1  -1  11    6.40    2.60
   1   2 -10    1.70    3.30
   1   2 -10    8.30    2.60
  -1  -2  10    5.90    3.90
  -1  -2  10    5.30    2.60
   3   3  -9   10.40    3.40
   3   3  -9   13.20    3.30
   3   3  -9   13.20    4.00
  -3  -3   9   15.40    4.90
   5   4  -8   49.60    6.70
   5   4  -8   55.59    7.00
   5   4  -8   49.00    7.30
  -5  -4   8   49.80    8.00
   7   5  -7   37.00    6.50
   7   5  -7   22.60    5.90
  -7  -5   7   25.10    7.00
   9   6  -6   73.29   10.70
   9   6  -6   66.69   10.40
  -9  -6   6   88.99   12.30
  11   7  -5   11.50    7.00
 -11  -7   5    5.10    7.80
 -10  -3 -16    4.30    4.40
  -8  -2 -15    6.90    4.00
   8   2  15    9.30    3.90
  -6  -1 -14   26.30    4.50
  -6  -1 -14   18.00    3.40
   6   1  14   22.80    4.00
   6   1  14   23.80    4.10
  -4   0 -13   42.80    5.70
  -4   0 -13   46.40    5.50
   4   0  13   56.29    6.50
   4   0  13   50.59    5.60
  -2   1 -12  178.28   15.50
  -2   1 -12  182.08   16.00
   2  -1  12  175.18   15.60
   2  -1  12  171.18   16.20
   0   2 -11  170.88   15.70
   0   2 -11  166.88   15.10
   0  -2  11  168.28   15.40
   0  -2  11  177.08   15.90
   2   3 -10   80.19    8.70
   2   3 -10   85.99    8.00
  -2  -3  10   70.79    9.00
   4   4  -9   24.70    4.60
   4   4  -9   23.40    5.70
   4   4  -9   28.50    4.70
  -4  -4   9   20.50    6.10
   6   5  -8   45.00    6.20
   6   5  -8   37.30    6.90
  -6  -5   8   44.30    8.40
   8   6  -7   -3.20    4.80
   8   6  -7    0.00    5.90
  -8  -6   7    4.70    7.40
  10   7  -6    9.20    6.50
 -10  -7   6   11.50    8.30
  -9  -2 -16   11.80    5.40
   9   2  16    4.80    4.30
  -7  -1 -15   41.10    6.10
   7   1  15   33.60    5.60
  -5   0 -14   41.40    5.80
  -5   0 -14   45.90    6.00
   5   0  14   51.39    6.00
   5   0  14   55.09    7.40
  -3   1 -13   46.30    5.70
  -3   1 -13   43.30    5.40
   3  -1  13   53.79    6.90
   3  -1  13   50.19    5.60
  -1   2 -12   79.29    8.60
  -1   2 -12   85.89    7.90
   1  -2  12   81.99    8.10
   1  -2  12   74.69    8.80
   1   3 -11   14.00    3.40
   1   3 -11   12.10    4.10
  -1  -3  11    6.60    4.60
  -1  -3  11   10.80    3.20
   3   4 -10   10.00    4.40
   3   4 -10   11.80    3.60
   3   4 -10    8.60    3.30
  -3  -4  10   20.90    5.40
   5   5  -9   29.10    5.30
   5   5  -9   27.60    5.30
   5   5  -9   26.40    6.30
  -5  -5   9   25.80    7.00
   7   6  -8   29.80    6.60
  -7  -6   8   44.70    9.20
   9   7  -7   27.50    6.90
   9   7  -7    8.40    6.30
  -9  -7   7    9.40    7.50
  11   8  -6   18.40    8.30
 -11  -8   6    9.40    8.60
 -10  -2 -17    3.50    4.30
  -8  -1 -16    8.40    4.20
   8   1  16    3.10    4.40
  -6   0 -15   24.60    4.70
  -6   0 -15   13.80    3.40
   6   0  15   19.10    4.10
   6   0  15   17.40    4.40
  -4   1 -14    0.60    3.20
  -4   1 -14   10.30    3.50
   4  -1  14    4.10    4.00
   4  -1  14    8.20    3.40
  -2   2 -13    6.00    3.20
  -2   2 -13    7.30    3.50
   2  -2  13    9.00    4.10
   2  -2  13    8.50    3.10
   0   3 -12  100.49   10.30
   0   3 -12   98.79    9.70
   0  -3  12  106.29   10.80
   0  -3  12   99.29    9.90
   2   4 -11   17.40    3.80
   2   4 -11   15.00    4.90
  -2  -4  11   11.30    3.60
  -2  -4  11   22.10    5.50
   4   5 -10   67.99    7.40
   4   5 -10   63.19    8.90
   4   5 -10   58.19    7.30
  -4  -5  10   72.69    9.90
   6   6  -9   52.89    7.70
  -6  -6   9   51.59   10.00
   8   7  -8    4.30    5.20
   8   7  -8   -9.10    5.10
  -8  -7   8    7.80    7.30
  10   8  -7    4.10    6.40
 -10  -8   7   18.50    8.80
  -9  -1 -17   62.69    8.30
   9   1  17   43.40    8.20
  -7   0 -16  137.19   13.00
   7   0  16  125.59   13.10
  -5   1 -15   77.29    7.90
  -5   1 -15   80.79    8.20
   5  -1  15   76.19    8.60
   5  -1  15   64.19    8.20
  -3   2 -14  182.18   16.20
  -3   2 -14  164.28   15.70
   3  -2  14  168.68   15.90
   3  -2  14  188.08   16.60
  -1   3 -13   25.90    5.40
  -1   3 -13   29.90    4.90
   1  -3  13   31.40    6.20
   1  -3  13   36.00    5.20
   1   4 -12   47.00    6.10
   1   4 -12   36.90    7.00
  -1  -4  12   43.90    6.10
  -1  -4  12   40.90    7.80
   3   5 -11    4.40    3.40
   3   5 -11    1.80    3.30
   3   5 -11    0.80    4.30
  -3  -5  11    5.70    5.70
   5   6 -10    5.80    6.70
   5   6 -10    1.20    4.00
  -5  -6  10   -1.50    5.80
   7   7  -9    5.30    5.90
   7   7  -9    5.20    4.90
  -7  -7   9    4.10    7.00
   9   8  -8   12.00    6.90
  -9  -8   8   12.70    9.30
  -8   0 -17   17.00    5.10
   8   0  17   20.70    5.80
  -6   1 -16   11.30    3.70
  -6   1 -16   24.90    5.00
   6  -1  16   15.70    5.00
   6  -1  16   18.00    5.10
  -4   2 -15   10.80    4.20
  -4   2 -15    8.60    3.90
   4  -2  15   10.10    4.00
   4  -2  15    5.00    4.70
  -2   3 -14   10.20    4.20
  -2   3 -14    9.00    3.70
   2  -3  14   13.40    3.90
   2  -3  14   16.40    5.60
   0   4 -13  224.58   20.00
   0   4 -13  216.78   20.60
   0  -4  13  232.08   21.30
   0  -4  13  229.48   20.30
   2   5 -12   82.09    8.90
   2   5 -12   90.09   10.30
  -2  -5  12   94.39   11.80
  -2  -5  12   79.89    9.40
   4   6 -11   45.80    6.40
   4   6 -11   43.80    6.70
   4   6 -11   38.20    7.90
  -4  -6  11   52.59    9.20
   6   7 -10  131.89   12.90
   6   7 -10  116.99   13.70
  -6  -7  10  120.69   15.20
   8   8  -9   46.30    8.60
  -8  -8   9   40.10   10.00
  10   9  -8    4.10    6.70
  -9   0 -18   -1.80    4.80
  -7   1 -17    1.70    4.20
   7  -1  17   -0.40    4.40
  -5   2 -16   10.80    4.10
   5  -2  16    4.30    4.40
   5  -2  16    6.70    4.90
  -3   3 -15   18.30    4.40
  -3   3 -15   19.90    4.80
   3  -3  15   12.70    4.30
   3  -3  15   11.60    5.50
  -1   4 -14   15.60    4.90
  -1   4 -14   27.80    4.90
   1  -4  14   28.80    6.40
   1  -4  14   21.50    5.10
   1   5 -13   47.00    7.20
   1   5 -13   32.00    5.90
  -1  -5  13   45.30    6.60
  -1  -5  13   38.50    7.90
   3   6 -12   13.10    5.90
   3   6 -12   17.50    4.70
  -3  -6  12   14.30    7.80
   5   7 -11    0.90    3.60
   5   7 -11    0.70    4.20
  -5  -7  11   -1.30    6.70
   7   8 -10   -4.50    4.70
  -7  -8  10    6.80    8.50
   9   9  -9   11.30    6.90
  -9  -9   9    7.90    8.90
  -8   1 -18   13.20    5.60
  -6   2 -17   -5.50    3.90
   6  -2  17   -1.70    4.40
  -4   3 -16   16.70    4.90
   4  -3  16   21.30    5.40
   4  -3  16   13.40    5.80
  -2   4 -15   28.10    5.90
  -2   4 -15   29.80    5.30
   2  -4  15   26.70    5.50
   2  -4  15   18.00    6.50
   0   5 -14   82.99   10.50
   0   5 -14  100.09   10.20
   0  -5  14   86.29   10.10
   0  -5  14  103.59   11.90
   2   6 -13  178.58   16.40
   2   6 -13  150.78   18.80
  -2  -6  13  195.28   18.80
   4   7 -12   80.09    9.10
   4   7 -12   75.79    8.70
  -4  -7  12   83.09   12.00
   6   8 -11   26.60    6.00
  -6  -8  11   14.20    8.60
  -8  -9  10   25.00   10.70
  -7   2 -18    8.50    3.90
  -7   2 -18    6.40    4.80
  -7   2 -18   -0.10    3.00
  -5   3 -17   -0.50    3.90
  -5   3 -17    3.30    4.10
   5  -3  17    2.00    4.70
   5  -3  17   -0.80    5.00
  -3   4 -16   25.30    5.30
  -3   4 -16   23.50    5.50
   3  -4  16   27.50    7.00
  -1   5 -15   57.39    7.40
  -1   5 -15   42.50    7.60
   1  -5  15   50.19    8.80
   1  -5  15   48.10    9.00
   1   6 -14    7.80    4.10
  -1  -6  14    7.40    4.60
  -1  -6  14   11.70    7.30
   3   7 -13    1.30    4.40
   3   7 -13    5.90    5.10
  -3  -7  13   11.60    4.70
  -3  -7  13    1.00    6.40
   5   8 -12   12.40    5.30
  -5  -8  12    3.80    7.80
   7   9 -11    3.30    5.10
  -7  -9  11   25.00    9.40
  -9 -10  10   23.40   11.90
  -6   3 -18    4.00    4.60
  -6   3 -18   13.80    5.00
  -6   3 -18   11.00    4.30
  -4   4 -17    0.70    4.60
  -4   4 -17    1.00    4.30
   4  -4  17   -3.40    4.70
   4  -4  17    3.30    5.80
  -2   5 -16    0.70    4.60
  -2   5 -16    2.80    4.10
   2  -5  16   -5.20    5.40
   2  -5  16   -1.00    4.20
   0   6 -15    5.50    6.50
   0   6 -15   12.80    4.70
   0  -6  15   -0.10    6.20
   0  -6  15    2.00    4.50
   2   7 -14    9.90    5.00
   2   7 -14    6.50    4.50
  -2  -7  14   14.80    5.70
  -2  -7  14   13.30    7.30
   4   8 -13   21.90    6.10
  -4  -8  13   25.10    8.40
   6   9 -12   13.80    5.90
  -6  -9  12   19.10    9.00
   8  10 -11   10.70    6.70
  -8 -10  11   21.90   10.80
  -7   3 -19   12.80    4.20
  -7   3 -19   12.10    5.50
  -5   4 -18   40.40    7.10
  -5   4 -18   48.30    7.40
  -3   5 -17   14.30    5.60
  -3   5 -17   20.80    5.50
   3  -5  17   33.90    9.10
   3  -5  17   27.20    7.40
  -1   6 -16  101.49   12.10
  -1   6 -16   94.99   10.60
   1  -6  16   98.59   11.20
   1  -6  16  120.29   13.90
   1   7 -15  130.69   13.20
  -1  -7  15  135.89   16.10
   3   8 -14   -1.10    4.50
  -3  -8  14   -6.50    7.00
   5   9 -13    2.60    5.30
  -5  -9  13    4.40    7.40
   7  10 -12    4.40    5.90
  -7 -10  12   12.80    9.30
  -6   4 -19    5.30    5.00
  -6   4 -19   -6.60    4.60
  -6   4 -19   -1.90    4.70
  -4   5 -18   -4.70    4.90
  -4   5 -18   -2.90    4.60
  -2   6 -17   -6.20    4.70
  -2   6 -17    4.20    4.40
   2  -6  17    0.60    6.80
   0   7 -16    8.70    5.10
   0  -7  16   34.50    9.40
   2   8 -15   18.30    5.60
  -2  -8  15   17.70    8.30
   4   9 -14   60.99    9.20
  -4  -9  14   61.49   12.80
   6  10 -13   20.30    7.00
  -6 -10  13   42.20   13.30
  -5   5 -19   24.20    5.80
  -5   5 -19   16.90    6.00
  -5   5 -19    1.70    5.60
  -3   6 -18    4.60    5.60
  -3   6 -18   17.90    5.50
  -1   7 -17    0.40    4.40
   1  -7  17    5.70    7.20
   1   8 -16   16.10    6.00
  -1  -8  16   32.00    9.40
  -3  -9  15   43.80   12.20
   5  10 -14    5.40    5.90
  -5 -10  14   17.50   11.00
  -4   6 -19    7.60    5.90
  -4   6 -19    2.20    6.30
  -2   7 -18    7.90    5.00
   2  -7  18    7.00    7.30
   0   8 -17    5.20    5.00
   0  -8  17    7.20    7.60
  -2  -9  16    4.40    8.60
   4  10 -15   10.20    5.80
  -4 -10  15    2.30    8.40
  -3   7 -19   18.00    6.30
  -3   7 -19   19.00    7.20
  -1   8 -18   18.80    6.40
   1  -8  18   20.10    8.40
   1   9 -17   19.30    6.50
   3  10 -16   21.00    6.70
  -3 -10  16   25.40    9.80
  -2   8 -19    3.40    6.90
   0   9 -18   -0.80    5.20
  -2 -10  17    4.70    9.30
   0  15  -5   -2.30    5.70
   0  15  -5    5.40    5.60
  -1  14  -5   11.80    5.70
  -3  13  -6   19.00    8.40
  -3  13  -6   18.40    6.80
   4  16  -2   14.50    5.70
   2  15  -3   12.30    4.90
   2  15  -3    9.50    6.50
   0  14  -4    7.80    5.10
   0  14  -4    9.80    6.90
  -4  12  -6    9.20    5.90
  -4  12  -6    9.70    6.60
   5  16  -1    5.00    4.20
   3  15  -2    7.60    4.80
   3  15  -2   11.70    6.60
   1  14  -3   47.60    8.30
  -1  13  -4   15.10    6.40
  -1  13  -4   23.20    6.10
  -3  12  -5   54.89   10.10
  -5  11  -6   37.60    7.90
  -5  11  -6   25.10    7.30
  -5  11  -6   10.60    6.90
   6  16   0    5.80    4.80
   6  16   0    4.50    7.00
   4  15  -1    1.50    3.90
   4  15  -1    3.20    6.40
   2  14  -2    4.20    5.20
   2  14  -2   -1.20    3.90
   0  13  -3    3.10    5.30
   0  13  -3   12.50    4.70
  -2  12  -4   15.00    6.30
  -2  12  -4   17.70    5.10
  -4  11  -5    9.50    5.50
  -4  11  -5    8.40    5.40
  -4  11  -5    9.40    6.00
  -6  10  -6    2.50    5.40
  -6  10  -6   27.30    6.40
   7  16   1    3.30    3.80
   7  16   1    7.00    6.90
   5  15   0    3.20    3.50
  -3 -14   1    1.30    4.70
   3  14  -1    7.60    5.60
   3  14  -1    5.50    3.80
  -1 -13   2   -3.50    3.90
   1  13  -2   21.10    5.10
   1  13  -2   10.90    5.80
  -1  12  -3   40.70    8.20
  -1  12  -3   35.40    7.20
  -3  11  -4    3.70    5.00
  -3  11  -4    3.60    5.10
  -3  11  -4    4.60    4.60
  -5  10  -5    4.50    5.20
  -5  10  -5   -7.70    3.90
  -7   9  -6    4.90    5.40
  -7   9  -6    9.30    6.20
  -7   9  -6    6.90    4.40
   6  15   1   11.10    4.20
  -4 -14   0   37.40    6.80
   4  14   0   44.10    6.10
   4  14   0   29.00    7.80
  -2 -13   1  124.09   13.40
   2  13  -1  168.48   15.60
   2  13  -1  125.39   13.50
   0 -12   2   56.49    7.70
   0  12  -2   39.20    8.90
   0  12  -2   55.89    9.40
   0  12  -2   49.80    7.60
  -2  11  -3   45.80    8.60
  -2  11  -3   35.00    8.20
  -2  11  -3   51.59    7.50
  -4  10  -4   17.00    5.30
  -4  10  -4   15.00    6.10
  -6   9  -5    5.50    4.50
  -6   9  -5    4.80    5.60
  -6   9  -5    1.20    5.00
  -8   8  -6   -3.20    3.60
  -8   8  -6    9.40    5.40
   7  15   2    7.30    4.00
   7  15   2   -0.70    3.80
  -5 -14  -1   -0.10    7.40
   5  14   1    3.70    3.90
   5  14   1   10.50    5.90
  -3 -13   0   12.00    4.50
   3  13   0    9.60    5.30
   3  13   0    3.40    4.00
  -1 -12   1   43.90    6.50
   1  12  -1   46.40    8.40
   1  12  -1   31.00    8.50
   1  12  -1   42.70    6.40
   1 -11   2   15.40    4.50
  -1  11  -2   25.30    4.90
  -1  11  -2   14.80    5.20
   3 -10   3   29.10    7.30
  -3  10  -3   41.90    6.90
  -3  10  -3   26.40    7.60
  -5   9  -4   37.00    7.40
  -5   9  -4   52.79    7.90
  -5   9  -4   49.70    7.90
  -7   8  -5   21.30    6.00
  -7   8  -5   17.70    5.10
   8  15   3   47.70    7.40
   8  15   3   44.10    7.00
   6  14   2   81.19    8.30
   6  14   2   62.49    7.90
   6  14   2   99.49   13.70
  -4 -13  -1  139.49   14.00
   4  13   1  140.39   13.50
   4  13   1  159.88   16.20
  -2 -12   0  129.89   12.60
   2  12   0  118.09   14.40
   2  12   0  123.79   12.60
   2  12   0  151.28   14.50
   0 -11   1   97.89   10.90
   0 -11   1  107.89   13.10
   0  11  -1  120.79   11.30
   0  11  -1  119.09   12.60
   2 -10   2    8.70    5.70
  -2  10  -2   23.30    4.80
  -2  10  -2   24.00    5.80
   4  -9   3   64.29   10.30
  -4   9  -3   83.29   10.20
  -4   9  -3   75.49    9.70
  -6   8  -4    9.40    4.90
  -6   8  -4   12.40    4.40
  -8   7  -5    6.80    4.90
  -8   7  -5    6.90    4.10
  -8   7  -5   -3.20    5.30
   9  15   4   18.50    6.90
   9  15   4   24.00    5.80
   9  15   4   12.60    4.40
   7  14   3   31.30    5.50
   7  14   3   40.60    9.50
  -5 -13  -2   98.49   11.50
   5  13   2  118.09   11.00
   5  13   2  128.09   13.80
  -3 -12  -1   72.79    8.00
   3  12   1   50.49    9.20
   3  12   1   77.79    7.60
  -1 -11   0   12.50    5.60
  -1 -11   0   33.50    4.90
   1  11   0   23.20    6.00
   1  11   0   29.40    4.60
   1 -10   1   47.50    8.30
   1 -10   1   39.60    5.90
  -1  10  -1   29.80    6.70
  -1  10  -1   62.79    6.40
   3  -9   2   41.50    7.60
  -3   9  -2   28.50    6.00
  -3   9  -2   36.70    6.00
   5  -8   3   26.20    6.50
  -5   8  -3   20.50    5.40
  -5   8  -3   24.60    5.60
  -7   7  -4   31.80    6.00
  -7   7  -4   41.20    7.30
  -9   6  -5    6.50    6.10
  -9   6  -5    0.00    3.80
  -9   6  -5   10.50    4.60
   8  14   4   13.60    6.70
   8  14   4    0.30    4.00
   6  13   3    6.30    2.90
   6  13   3    4.50    5.10
   6  13   3    7.00    3.30
  -4 -12  -2   15.80    4.80
   4  12   2   26.10    4.40
   4  12   2   23.60    6.30
   4  12   2   27.70    7.40
  -2 -11  -1   74.99    8.90
  -2 -11  -1   88.59   10.30
   2  11   1  116.59   13.40
   2  11   1   88.59    8.80
   0 -10   0   93.89   10.60
   0 -10   0  120.39   12.50
   0  10   0  128.09   12.20
   0  10   0  112.89   10.80
   2  -9   1   73.09   10.00
   2  -9   1   61.39    8.00
  -2   9  -1   69.49    9.30
  -2   9  -1   81.99    8.80
   4  -8   2   89.69   11.10
  -4   8  -2   88.09    9.30
  -4   8  -2   81.09    9.60
   6  -7   3   16.80    5.70
  -6   7  -3   19.10    4.60
  -6   7  -3   20.80    5.30
  -8   6  -4    0.20    3.40
  -8   6  -4    2.90    5.10
   9  14   5   37.90    6.20
   9  14   5   31.00    8.20
   9  14   5   51.09    7.10
   7  13   4   55.69    7.00
   7  13   4   52.49    6.80
   7  13   4   55.89    9.00
  -5 -12  -3   29.00    5.50
   5  12   3   30.80    7.90
   5  12   3   36.70    4.80
   5  12   3   20.60    6.10
  -3 -11  -2   30.40    6.20
  -3 -11  -2   27.40    4.80
   3  11   2   27.60    4.20
  -1 -10  -1    3.20    4.20
  -1 -10  -1    6.90    2.70
   1  10   1    1.10    3.40
   1  10   1    7.10    2.70
   1  -9   0   84.89    9.70
   1  -9   0   74.19    8.30
  -1   9   0   88.19    8.40
  -1   9   0   87.99    9.50
   3  -8   1    4.00    4.20
   3  -8   1    2.00    2.90
  -3   8  -1    2.60    3.30
  -3   8  -1    0.70    2.90
   5  -7   2    7.50    4.50
   5  -7   2   11.80    4.10
  -5   7  -2   13.90    4.00
  -5   7  -2   10.60    4.30
   7  -6   3   34.40    6.40
  -7   6  -3   28.10    5.50
  -7   6  -3   37.70    7.10
  -9   5  -4    0.70    4.40
  10  14   6   -1.20    4.00
  10  14   6    1.80    6.00
   8  13   5    9.60    3.80
   8  13   5    4.60    2.80
   8  13   5    4.70    5.30
   6  12   4   40.10    5.00
   6  12   4   35.10    4.90
   6  12   4   24.00    8.10
   6  12   4   31.70    6.80
  -4 -11  -3   88.89    8.70
  -4 -11  -3   77.29   10.10
   4  11   3   84.69    8.30
  -2 -10  -2  153.18   14.40
  -2 -10  -2  169.48   16.00
   2  10   2  149.39   15.40
   2  10   2  172.48   14.50
   0  -9  -1  368.46   31.60
   0  -9  -1  341.27   30.50
   0   9   1  353.76   30.60
   0   9   1  363.06   31.50
   2  -8   0  126.29   11.90
   2  -8   0   98.09   10.50
  -2   8   0  114.39   11.40
  -2   8   0  115.19   10.80
   4  -7   1   21.50    5.00
   4  -7   1   32.00    6.00
  -4   7  -1   34.00    5.60
  -4   7  -1   43.40    5.80
   6  -6   2   25.40    5.90
   6  -6   2   29.50    5.40
  -6   6  -2   33.70    5.90
  -6   6  -2   26.20    5.10
   8  -5   3   12.90    4.80
  -8   5  -3    3.20    3.70
  -8   5  -3    4.80    4.80
 -10   4  -4   -4.10    4.70
   9  13   6   32.20    8.70
   9  13   6   24.70    5.00
   9  13   6   14.40    4.50
   7  12   5   30.70    6.50
   7  12   5   25.20    7.80
   7  12   5   25.40    4.20
   7  12   5   23.40    4.50
   5  11   4    8.90    2.60
  -3 -10  -3   28.50    6.30
  -3 -10  -3   40.30    5.10
   3  10   3   27.90    5.80
   3  10   3   32.40    4.30
  -1  -9  -2   30.50    5.80
   1   9   2   34.10    5.60
   1  -8  -1    5.00    3.50
   1  -8  -1    4.80    2.60
  -1   8   1    7.70    3.40
  -1   8   1   12.70    2.50
   3  -7   0    3.60    3.30
   3  -7   0    6.00    2.80
  -3   7   0    9.60    3.40
  -3   7   0    8.50    3.00
   5  -6   1  110.89   11.10
   5  -6   1   88.69   10.20
  -5   6  -1  105.99   10.40
  -5   6  -1  116.59   10.90
  -7   5  -2   58.69    8.00
  -7   5  -2   95.49    9.20
   9  -4   3   33.70    6.90
  -9   4  -3   35.80    6.80
  -9   4  -3   48.10    7.80
  10  13   7    3.30    4.30
  10  13   7    5.00    5.30
  10  13   7    2.60    3.70
   8  12   6    1.60    4.20
   8  12   6    0.00    6.30
   8  12   6    0.00    2.80
   8  12   6    4.10    3.20
   6  11   5   48.30    9.70
   6  11   5   49.50    5.80
  -4 -10  -4   54.99    7.80
  -4 -10  -4   43.60    5.40
   4  10   4   43.60    5.00
   4  10   4   62.29    7.90
  -2  -9  -3   96.19   10.50
  -2  -9  -3  100.69    9.40
   2   9   3  103.69   10.50
   2   9   3  106.59    9.40
   0  -8  -2   86.39    9.10
   0  -8  -2   86.49    7.90
   0   8   2   77.89    8.70
   0   8   2   78.59    7.80
   2  -7  -1   99.59   10.30
   2  -7  -1  120.39   11.10
  -2   7   1  112.19   10.80
  -2   7   1  113.59   10.40
   4  -6   0    7.00    2.90
   4  -6   0    3.10    3.30
  -4   6   0    2.40    3.00
  -4   6   0    5.70    3.00
   6  -5   1    6.40    3.50
  -6   5  -1    4.10    4.00
  -6   5  -1    3.20    3.10
   8  -4   2   20.00    4.40
  -8   4  -2   12.90    4.20
  -8   4  -2   13.40    4.90
 -10   3  -3   12.20    3.40
   9  12   7   44.60    5.80
   9  12   7   37.60    6.00
   9  12   7   40.30    9.00
   9  12   7   34.70    7.40
   7  11   6   47.80    5.30
   7  11   6   35.50    8.30
  -5 -10  -5   25.80    5.70
   5  10   5   29.30    3.90
   5  10   5   29.60    3.90
   5  10   5   25.20    5.50
  -3  -9  -4  221.38   20.60
  -3  -9  -4  239.78   19.50
   3   9   4  215.48   19.30
   3   9   4  220.08   20.40
  -1  -8  -3   96.29   10.00
  -1  -8  -3   98.19   11.10
   1   8   3  125.19   11.30
   1   8   3  132.39   10.20
   1  -7  -2   57.69    7.00
   1  -7  -2   63.29    6.00
  -1   7   2   61.59    6.10
  -1   7   2   52.49    6.50
   3  -6  -1   23.20    4.40
   3  -6  -1   12.60    3.30
  -3   6   1   26.30    4.20
   5  -5   0   67.29    7.30
   5  -5   0   64.29    7.00
  -5   5   0   48.20    6.40
  -5   5   0   52.49    6.40
   7  -4   1   99.59   10.00
  -7   4  -1   89.39    9.70
  -7   4  -1   96.09   10.20
   9  -3   2   24.00    5.00
  -9   3  -2   23.10    5.00
  -9   3  -2   27.10    6.60
 -11   2  -3    7.60    6.40
  10  12   8   11.60    5.90
  10  12   8   18.30    4.50
  10  12   8   15.30    7.50
  10  12   8   12.60    4.30
   8  11   7    5.20    3.00
   8  11   7   11.60    5.70
   8  11   7    5.30    2.80
  -6 -10  -6    4.90    3.90
   6  10   6    7.60    2.50
   6  10   6    3.00    3.60
   6  10   6    9.00    2.40
  -4  -9  -5    8.80    3.70
   4   9   5   11.20    2.30
   4   9   5    5.60    3.10
  -2  -8  -4   20.30    4.70
  -2  -8  -4   30.60    3.80
   2   8   4   26.10    4.90
   2   8   4   34.10    3.70
   0  -7  -3   27.10    3.30
   0  -7  -3   21.80    4.40
   0   7   3   20.50    3.10
   0   7   3   23.80    4.20
   2  -6  -2   30.70    4.60
  -2   6   2   37.90    4.60
  -2   6   2   30.60    5.00
   4  -5  -1   79.99    8.80
   4  -5  -1  111.39    9.30
  -4   5   1   78.79    8.70
  -4   5   1   91.39    8.90
   6  -4   0   21.60    4.70
   6  -4   0   30.00    5.10
  -6   4   0   25.10    4.50
  -6   4   0   28.60    5.20
   8  -3   1    8.70    3.50
  -8   3  -1    4.80    3.80
  -8   3  -1    7.30    4.30
  10  -2   2    0.90    3.70
 -10   2  -2   -3.90    4.60
  11  12   9   14.50    6.10
  11  12   9   19.80    8.10
  11  12   9   16.70    4.90
  11  12   9   24.70    5.10
   9  11   8   37.70    9.40
   9  11   8   68.49    7.60
   9  11   8   66.19    7.00
   9  11   8   69.69   10.10
   7  10   7  187.88   16.00
   7  10   7  180.68   15.90
   7  10   7  170.08   17.30
  -5  -9  -6  208.48   19.70
   5   9   6  214.88   18.30
   5   9   6  203.28   19.50
   5   9   6  218.18   18.30
  -3  -8  -5   83.69    7.50
  -3  -8  -5   79.99    8.80
   3   8   5   78.59    8.50
   3   8   5   80.19    7.30
  -1  -7  -4  192.78   18.20
  -1  -7  -4  218.88   17.30
   1   7   4  184.48   18.00
   1   7   4  201.68   17.30
   1  -6  -3   34.40    5.00
   1  -6  -3   37.40    4.20
  -1   6   3   43.70    5.10
  -1   6   3   34.40    4.10
   3  -5  -2    2.30    2.60
   3  -5  -2    0.50    2.20
  -3   5   2    4.20    2.40
  -3   5   2    2.90    2.20
   5  -4  -1    4.90    2.90
   5  -4  -1    6.30    2.90
  -5   4   1    4.60    2.80
  -5   4   1    2.50    2.80
   7  -3   0    3.80    3.40
   7  -3   0    5.90    3.50
  -7   3   0   10.40    3.80
  -7   3   0    5.80    3.70
   9  -2   1   28.20    4.90
  -9   2  -1   28.10    5.20
  -9   2  -1   14.20    5.80
 -11   1  -2    3.30    5.40
  10  11   9   12.10    3.70
  10  11   9    7.10    3.30
  10  11   9    8.70    6.30
  10  11   9    3.50    3.80
   8  10   8   48.30    5.80
   8  10   8   45.80    8.60
   8  10   8   56.99    7.70
   8  10   8   53.89    5.70
  -6  -9  -7    3.00    3.60
   6   9   7    8.10    2.20
   6   9   7    5.60    2.10
   6   9   7    9.30    3.60
  -4  -8  -6    6.20    3.30
   4   8   6   10.70    3.40
   4   8   6    9.30    2.00
   4   8   6    9.90    1.90
  -2  -7  -5  152.08   14.90
  -2  -7  -5  164.88   13.90
   2   7   5  169.68   14.80
   2   7   5  158.68   13.80
   0  -6  -4  556.44   46.90
   0  -6  -4  563.44   46.20
   0   6   4  521.25   46.70
   0   6   4  552.04   46.20
   2  -5  -3  166.28   14.60
   2  -5  -3  173.98   15.30
  -2   5   3  162.38   14.60
  -2   5   3  166.18   15.00
   4  -4  -2  229.38   20.90
   4  -4  -2  254.87   21.20
  -4   4   2  239.78   20.90
  -4   4   2  233.18   20.90
   6  -3  -1  210.28   20.00
   6  -3  -1  242.08   20.00
  -6   3   1  227.28   20.10
  -6   3   1  218.58   19.90
   8  -2   0   14.90    3.60
  -8   2   0    8.30    3.80
  -8   2   0    5.60    4.10
  10  -1   1   12.30    4.20
 -10   1  -1    2.30    4.90
 -10   1  -1   13.90    3.90
  11  11  10   26.30    7.40
  11  11  10   13.10    5.50
  11  11  10   22.20    4.80
  11  11  10   25.40    5.20
   9  10   9   27.80    7.70
   9  10   9   37.70    6.30
   9  10   9   44.10    5.50
   7   9   8    4.50    3.30
   7   9   8    5.10    2.20
  -5  -8  -7  176.78   18.00
   5   8   7  185.18   17.90
   5   8   7  197.68   16.90
   5   8   7  220.08   17.00
  -3  -7  -6    8.10    3.40
   3   7   6    7.30    1.40
   3   7   6    5.10    2.60
  -1  -6  -5   17.60    4.10
  -1  -6  -5   24.50    2.80
   1   6   5   24.20    2.80
   1   6   5   23.20    3.90
   1  -5  -4    3.20    1.90
   1  -5  -4    1.60    2.70
  -1   5   4    1.80    2.40
  -1   5   4    2.70    1.60
   3  -4  -3   47.80    5.30
   3  -4  -3   54.39    5.80
  -3   4   3   45.80    5.30
  -3   4   3   52.39    5.70
   5  -3  -2    5.40    2.80
   5  -3  -2    4.90    2.70
  -5   3   2    1.60    2.60
  -5   3   2    8.90    2.90
   7  -2  -1   79.39    8.90
   7  -2  -1   92.99    9.10
  -7   2   1   93.19    9.70
  -7   2   1   82.29    9.10
   9  -1   0   19.80    4.50
  -9   1   0   26.80    5.80
  -9   1   0   28.70    5.20
  11   0   1   16.40    5.00
  10  10  10   20.60    6.40
  10  10  10   21.40    4.10
  10  10  10   23.20    4.20
  10  10  10   15.20    5.00
   8   9   9   13.40    4.00
   8   9   9   13.60    3.10
   8   9   9   15.20    2.90
   8   9   9    4.70    4.70
  -6  -8  -8    2.70    3.60
   6   8   8    6.90    1.90
   6   8   8   14.40    3.50
   6   8   8   10.50    2.10
   4   7   7  137.89   14.30
   4   7   7  165.28   13.40
   4   7   7  162.88   13.50
  -2  -6  -6  193.08   15.60
  -2  -6  -6  180.48   16.60
   2   6   6  172.98   16.40
   2   6   6  183.78   15.60
   0  -5  -5 1240.18   97.19
   0  -5  -5 1125.49   96.49
   0   5   5 1108.19   96.49
   0   5   5 1144.69   96.99
   2  -4  -4  553.44   47.40
   2  -4  -4  550.44   47.80
  -2   4   4  619.34   47.50
  -2   4   4  523.95   47.70
   4  -3  -3   54.79    5.90
   4  -3  -3   54.99    6.20
  -4   3   3   53.59    5.80
  -4   3   3   59.09    6.20
   6  -2  -2   68.69    6.90
   6  -2  -2   52.39    6.80
  -6   2   2   61.19    7.00
  -6   2   2   66.69    7.10
   8  -1  -1   49.90    6.70
  -8   1   1   50.29    7.30
  -8   1   1   54.09    7.10
  10   0   0    9.40    3.90
 -10   0   0    9.00    5.50
 -10   0   0    5.70    3.90
  12   1   1   -1.60    4.30
 -12  -1  -1    0.00    5.00
  11  10  11   18.30    5.50
  11  10  11    9.90    4.10
  11  10  11    7.70    3.50
  11  10  11   10.60    4.90
   9   9  10    7.70    4.80
   9   9  10    3.80    3.20
   9   9  10    5.00    3.10
   9   9  10    2.70    2.40
  -7  -8  -9   82.99    9.40
   7   8   9   92.69    8.10
   7   8   9   90.49    9.20
   7   8   9   86.99    8.20
   5   7   8  266.37   23.20
   5   7   8  296.87   23.20
   5   7   8  257.17   24.00
  -3  -6  -7   88.89    8.90
   3   6   7   88.39    8.70
  -1  -5  -6  583.14   50.89
  -1  -5  -6  629.54   50.19
   1   5   6  601.14   50.19
   1   5   6  578.84   50.79
   1  -4  -5  988.70   81.99
   1  -4  -5  958.60   81.49
  -1   4   5  991.70   81.59
  -1   4   5  953.10   81.89
   3  -3  -4   49.70    5.70
   3  -3  -4   36.90    5.10
  -3   3   4   54.79    5.60
  -3   3   4   52.99    5.10
   5  -2  -3   63.39    7.20
   5  -2  -3   76.19    7.60
  -5   2   3   72.39    7.40
  -5   2   3   76.59    7.50
   7  -1  -2    2.90    3.10
   7  -1  -2    2.20    3.00
  -7   1   2   -0.10    2.90
  -7   1   2   -1.50    3.20
  -9   0   1    4.10    4.50
  -9   0   1    6.20    4.20
 -11  -1   0   18.60    5.50
 -11  -1   0    4.20    4.80
  10   9  11    0.00    2.90
  10   9  11    6.50    5.00
  10   9  11    4.80    3.50
  10   9  11    4.50    3.30
   8   8  10   58.39    6.00
   8   8  10   65.69    6.30
   8   8  10   51.49    6.80
  -6  -7  -9  220.98   18.00
   6   7   9  196.38   16.60
   6   7   9  164.48   16.70
   6   7   9  214.48   17.50
  -4  -6  -8   19.10    4.00
   4   6   8   28.50    4.10
  -2  -5  -7    5.50    2.80
   2   5   7    1.90    2.40
   0  -4  -6  115.59   10.60
   0  -4  -6  127.29   11.50
   0   4   6  124.89   10.70
   0   4   6  129.39   11.40
   2  -3  -5   51.79    5.70
   2  -3  -5   65.39    6.40
  -2   3   5   50.49    5.70
  -2   3   5   66.69    6.30
   4  -2  -4   90.79    9.00
  -4   2   4   99.69    9.00
  -4   2   4   88.49    8.70
   6  -1  -3  204.18   18.20
   6  -1  -3  187.88   18.10
  -6   1   3  212.98   18.20
  -6   1   3  207.28   18.20
   8   0  -2   65.89    8.90
  -8   0   2   77.39    9.10
  -8   0   2   63.99    7.90
  10   1  -1   23.70    5.10
 -10  -1   1   26.40    5.90
 -10  -1   1   27.50    5.70
  12   2   0   12.10    5.10
 -12  -2   0   16.80    6.00
  11   9  12   22.20    5.60
  11   9  12   30.20    5.50
  11   9  12   34.60    5.90
   9   8  11   46.60    5.50
   9   8  11   54.99    6.50
  -7  -7 -10   59.39    7.40
   7   7  10   67.59    7.10
   7   7  10   67.19    6.30
  -5  -6  -9  373.06   34.00
   5   6   9  401.06   33.20
   5   6   9  370.06   33.70
   5   6   9  423.26   33.10
  -3  -5  -8  502.15   42.30
   3   5   8  487.95   42.10
  -1  -4  -7  217.38   19.30
   1   4   7  223.18   19.30
   1  -3  -6  148.19   13.00
   1  -3  -6  144.29   12.50
  -1   3   6  139.89   12.40
  -1   3   6  141.89   12.90
   3  -2  -5  173.28   14.50
   3  -2  -5  165.28   14.70
  -3   2   5  154.68   14.60
  -3   2   5  160.28   14.40
   5  -1  -4   39.10    4.80
   5  -1  -4   25.50    4.20
  -5   1   4   29.00    4.70
  -5   1   4   35.10    4.60
   7   0  -3   13.00    4.40
   7   0  -3   16.50    3.90
  -7   0   3   28.00    4.90
  -7   0   3   22.90    4.80
   9   1  -2    3.00    3.90
  -9  -1   2    5.70    4.20
  -9  -1   2    8.90    4.30
  11   2  -1   -1.20    4.10
 -11  -2   1   -1.10    4.60
 -11  -2   1   10.50    5.90
  10   8  12    0.60    3.00
  10   8  12    4.90    3.80
  10   8  12   -1.80    3.20
   8   7  11   45.70    5.10
   8   7  11   40.40    5.80
  -6  -6 -10    1.70    2.80
   6   6  10    8.40    2.50
   6   6  10    3.80    1.60
  -4  -5  -9  102.89    9.60
   4   5   9   95.09    9.30
  -2  -4  -8   46.70    5.20
   2   4   8   40.30    5.10
   0  -3  -7   47.10    5.00
   0  -3  -7   34.20    3.90
   0   3   7   42.80    4.80
   0   3   7   37.90    3.80
   2  -2  -6  778.52   64.49
   2  -2  -6  808.42   64.29
  -2   2   6  753.92   64.49
  -2   2   6  717.03   64.19
   4  -1  -5  160.48   18.40
   4  -1  -5  204.38   17.70
  -4   1   5  209.18   17.50
  -4   1   5  207.18   17.70
   6   0  -4   66.59    7.40
  -6   0   4   72.09    7.40
  -6   0   4   70.39    7.90
   8   1  -3  162.98   15.80
  -8  -1   3  168.28   16.00
  -8  -1   3  180.78   16.20
  10   2  -2   34.20    6.50
 -10  -2   2   49.30    7.90
 -10  -2   2   44.20    7.20
  12   3  -1    1.30    4.90
 -12  -3   1   14.20    6.50
 -12  -3   1    1.40    5.40
  11   8  13    3.70    3.70
  11   8  13    4.20    4.00
  -9  -7 -12   18.50    3.20
   9   7  12   19.00    4.50
   9   7  12   10.00    3.30
   9   7  12    9.40    3.50
  -7  -6 -11   76.49    8.30
  -7  -6 -11   76.09    7.40
   7   6  11   90.29    8.40
  -5  -5 -10   14.80    3.40
  -5  -5 -10   19.80    2.30
   5   5  10   20.90    2.40
   5   5  10   19.10    3.70
  -3  -4  -9    1.50    2.30
   3   4   9    2.90    2.50
  -1  -3  -8    6.10    2.70
  -1  -3  -8    2.00    1.30
  -1  -3  -8   -0.80    1.30
   1   3   8    2.40    2.40
   1  -2  -7    4.50    2.40
   1  -2  -7    0.90    1.90
  -1   2   7    3.20    2.60
  -1   2   7   -2.20    1.70
   3  -1  -6   -5.80    2.10
   3  -1  -6    0.70    2.60
  -3   1   6    2.20    2.90
  -3   1   6   -2.60    2.20
   5   0  -5   50.99    5.80
   5   0  -5   57.19    7.20
  -5   0   5   51.79    5.80
  -5   0   5   50.69    6.40
   7   1  -4   65.89    7.90
   7   1  -4   60.89    7.30
  -7  -1   4   64.19    7.80
  -7  -1   4   66.09    7.80
   9   2  -3    7.20    4.10
  -9  -2   3   14.00    4.60
  -9  -2   3    8.70    5.00
  11   3  -2    1.20    4.80
 -11  -3   2    5.60    6.40
 -11  -3   2   -1.50    4.40
 -10  -7 -13   47.40    5.80
  10   7  13   44.20    5.70
  10   7  13   36.10    5.70
  10   7  13   59.89    6.50
  -8  -6 -12   60.39    6.50
   8   6  12   71.19    6.70
  -6  -5 -11   36.30    3.70
  -6  -5 -11   21.20    4.30
   6   5  11   34.10    3.70
   6   5  11   29.40    4.50
  -4  -4 -10  242.98   19.90
  -4  -4 -10  244.68   20.70
   4   4  10  198.08   20.50
   4   4  10  253.27   20.00
  -2  -3  -9  129.29   11.50
  -2  -3  -9  129.39   10.60
  -2  -3  -9  115.49   10.70
   2   3   9  128.89   11.50
   0  -2  -8   54.19    6.00
   0  -2  -8   57.69    5.30
   0  -2  -8   54.99    5.20
   0   2   8   53.09    6.10
   2  -1  -7   92.69    8.80
   2  -1  -7   92.19    8.30
  -2   1   7   85.59    8.80
  -2   1   7   86.59    8.70
   4   0  -6   94.69    9.00
   4   0  -6   90.49    8.70
  -4   0   6   74.59    8.90
  -4   0   6   87.89    8.30
   6   1  -5   51.99    6.30
   6   1  -5   42.50    6.20
  -6  -1   5   55.49    7.10
  -6  -1   5   47.20    6.20
   8   2  -4   -4.60    3.50
  -8  -2   4    4.90    4.60
  -8  -2   4    0.50    3.30
  10   3  -3    3.30    4.60
 -10  -3   3    3.10    4.60
 -10  -3   3    1.10    4.60
  12   4  -2   -3.70    5.40
 -12  -4   2    9.70    6.90
 -12  -4   2   -3.60    4.90
 -11  -7 -14   -1.60    3.30
   9   6  13    6.20    2.90
   9   6  13    0.40    2.90
  -7  -5 -12   45.10    5.20
  -7  -5 -12   40.30    5.50
   7   5  12   55.39    5.90
   7   5  12   52.19    5.10
  -5  -4 -11  101.59    8.90
  -5  -4 -11   95.39    9.50
   5   4  11  102.69    8.80
  -3  -3 -10  445.66   40.20
  -3  -3 -10  473.15   39.60
   3   3  10  495.35   39.70
   3   3  10  473.55   40.30
  -1  -2  -9  364.06   32.80
  -1  -2  -9  394.66   32.30
  -1  -2  -9  403.26   32.30
   1   2   9  368.86   32.80
   1  -1  -8  359.96   28.30
   1  -1  -8  331.17   28.40
   1  -1  -8  333.37   28.70
  -1   1   8  308.37   28.70
   3   0  -7  123.29   11.00
   3   0  -7  116.79   11.40
  -3   0   7  119.49   10.90
  -3   0   7  120.59   11.50
   5   1  -6   80.89    8.20
   5   1  -6   69.29    8.30
  -5  -1   6   93.09    8.10
  -5  -1   6   82.49    8.90
   7   2  -5   21.80    4.80
   7   2  -5   28.00    4.70
  -7  -2   5   34.20    5.10
  -7  -2   5   27.60    6.10
   9   3  -4    3.90    4.60
  -9  -3   4    5.60    5.10
  -9  -3   4   12.00    4.60
  11   4  -3    8.10    5.80
 -11  -4   3    1.70    6.40
 -11  -4   3    4.10    5.10
 -10  -6 -14   26.80    4.80
  10   6  14   25.70    4.90
  -8  -5 -13   10.10    2.90
   8   5  13    4.20    2.80
   8   5  13    7.00    3.00
  -6  -4 -12   25.90    4.00
  -6  -4 -12   29.20    3.70
   6   4  12   29.40    3.70
   6   4  12   25.90    4.20
  -4  -3 -11   40.30    5.30
  -4  -3 -11   47.40    4.50
   4   3  11   59.39    7.40
   4   3  11   45.70    4.50
  -2  -2 -10   36.50    4.80
  -2  -2 -10   39.00    3.70
   2   2  10   37.70    4.90
   2   2  10   35.30    3.80
   0  -1  -9   51.99    4.80
   0  -1  -9   42.20    4.70
   2   0  -8   94.89    8.70
   2   0  -8   89.79    8.70
   2   0  -8   94.79    9.30
  -2   0   8   94.59    9.30
   4   1  -7  200.98   20.10
   4   1  -7  279.27   20.80
  -4  -1   7  247.18   20.80
  -4  -1   7  210.28   20.10
   6   2  -6  130.39   13.10
   6   2  -6  134.69   12.80
  -6  -2   6  137.79   13.40
  -6  -2   6  140.69   12.70
   8   3  -5   30.20    6.00
  -8  -3   5   44.80    7.20
  -8  -3   5   31.50    5.70
  10   4  -4   31.70    6.80
 -10  -4   4   32.70    6.80
 -10  -4   4   44.80    8.60
  12   5  -3   -0.60    6.80
 -12  -5   3   12.10    6.70
 -12  -5   3   17.20    7.60
 -11  -6 -15    2.60    3.70
  -9  -5 -14    1.70    3.00
   9   5  14   -0.10    3.10
  -7  -4 -13    3.20    2.60
  -7  -4 -13    9.40    2.90
   7   4  13    9.00    2.70
   7   4  13    8.30    2.90
  -5  -3 -12  543.35   41.90
  -5  -3 -12  463.55   42.10
   5   3  12  451.35   42.20
   5   3  12  522.85   41.90
  -3  -2 -11  398.66   34.00
  -3  -2 -11  388.36   34.40
   3   2  11  394.96   34.40
   3   2  11  428.26   34.00
  -1  -1 -10  256.47   21.90
  -1  -1 -10  257.77   22.50
   1   1  10  257.97   22.50
   1   1  10  258.77   22.00
   1   0  -9  861.61   69.19
   1   0  -9  804.22   69.49
  -1   0   9  801.02   69.49
   3   1  -8  100.89    9.70
   3   1  -8  109.99    9.80
   3   1  -8  106.49   10.30
  -3  -1   8   94.69   10.30
   5   2  -7   61.29    6.90
   5   2  -7   62.79    7.60
  -5  -2   7   65.39    8.30
  -5  -2   7   66.29    6.90
   7   3  -6    4.80    4.40
   7   3  -6    7.70    3.50
  -7  -3   6   -0.10    5.00
  -7  -3   6    0.90    4.80
   9   4  -5    4.10    4.80
  -9  -4   5    5.80    5.70
  -9  -4   5    6.10    4.40
 -11  -5   4   17.20    7.90
 -10  -5 -15    3.00    3.50
  -8  -4 -14    2.20    3.00
   8   4  14    5.50    3.00
  -6  -3 -13   19.70    3.40
  -6  -3 -13    8.70    2.90
   6   3  13   19.80    3.60
   6   3  13   18.20    3.10
  -4  -2 -12   12.70    2.90
  -4  -2 -12    5.00    2.30
   4   2  12    6.70    3.20
   4   2  12   11.40    2.30
  -2  -1 -11   38.80    5.20
  -2  -1 -11   42.50    4.30
   2   1  11   36.90    5.30
   2   1  11   45.50    4.40
   0   0 -10   26.30    4.60
   0   0 -10   29.30    3.80
   0   0  10   30.00    5.10
   2   1  -9  227.18   19.80
   2   1  -9  229.78   19.30
   2   1  -9  223.28   19.20
  -2  -1   9  201.68   19.80
   4   2  -8   80.29    8.10
   4   2  -8   78.49    8.80
   4   2  -8   83.89    8.30
  -4  -2   8   82.79    9.10
   6   3  -7  256.77   22.20
   6   3  -7  238.28   21.70
  -6  -3   7  238.08   21.70
  -6  -3   7  245.08   22.40
   8   4  -6  112.69   12.20
  -8  -4   6  123.39   13.30
  -8  -4   6  110.79   12.00
 -10  -5   5   17.80    7.60
 -10  -5   5   20.30    6.10
  12   6  -4    7.40    7.80
 -12  -6   4   14.70    7.90
  11   5  16    8.20    5.30
  -9  -4 -15    1.20    3.40
   9   4  15   -1.00    3.20
  -7  -3 -14    2.00    2.20
  -7  -3 -14    6.10    3.20
  -5  -2 -13   58.19    6.60
  -5  -2 -13   66.59    6.30
   5   2  13   82.39    8.10
   5   2  13   51.29    6.10
  -3  -1 -12  193.58   17.00
  -3  -1 -12  206.38   17.40
   3   1  12  185.18   17.00
   3   1  12  203.08   17.50
  -1   0 -11    4.90    2.90
  -1   0 -11    5.40    3.90
   1   0  11    4.20    2.20
   1   0  11    2.90    3.30
   1   1 -10   87.29    9.20
   1   1 -10   86.79    8.30
   1   1 -10   96.39    8.40
  -1  -1  10   78.39    9.10
   3   2  -9    9.70    3.20
   3   2  -9   16.10    4.10
   3   2  -9   12.60    3.40
  -3  -2   9   25.10    4.90
   5   3  -8  136.99   12.50
   5   3  -8  122.69   13.00
   5   3  -8  140.49   12.80
  -5  -3   8  125.49   13.40
   7   4  -7   17.40    5.60
   7   4  -7   19.50    5.00
   7   4  -7   22.50    5.60
  -7  -4   7   26.50    6.80
   9   5  -6   26.90    6.80
   9   5  -6    6.80    6.90
  -9  -5   6   20.00    7.90
  11   6  -5    3.70    6.40
  11   6  -5    9.50    7.00
 -11  -6   5   14.00    8.00
 -10  -4 -16   33.10    5.80
  10   4  16   31.30    6.60
  -8  -3 -15   41.10    5.70
   8   3  15   29.20    5.20
  -6  -2 -14  169.38   13.20
  -6  -2 -14  124.99   12.70
   6   2  14  144.89   13.30
   6   2  14  138.89   13.00
  -4  -1 -13  141.09   13.50
  -4  -1 -13  151.98   13.20
   4   1  13  143.99   13.60
   4   1  13  154.58   13.30
  -2   0 -12   59.59    6.20
  -2   0 -12   55.79    7.00
   2   0  12   66.49    7.30
   2   0  12   72.89    6.50
   0   1 -11   92.99    9.20
   0   1 -11   89.29    8.30
   0  -1  11   79.19    9.10
   0  -1  11   86.39    8.40
   2   2 -10   80.89    8.50
   2   2 -10   93.29    9.50
   2   2 -10   87.69    8.50
  -2  -2  10   94.69    9.60
   4   3  -9   39.90    5.40
   4   3  -9   25.50    5.80
   4   3  -9   22.50    4.30
  -4  -3   9   32.30    6.20
   6   4  -8   15.80    5.00
   6   4  -8    9.50    3.70
   6   4  -8    4.80    4.60
  -6  -4   8   10.40    5.70
   8   5  -7    3.80    4.90
   8   5  -7    6.80    5.20
  -8  -5   7    7.30    6.10
  10   6  -6   -3.40    6.20
  10   6  -6   -6.20    5.30
 -10  -6   6   10.50    7.90
  -9  -3 -16   20.20    5.10
   9   3  16   31.10    5.50
  -7  -2 -15    0.50    3.20
  -7  -2 -15    0.10    1.90
   7   2  15    3.60    2.80
   7   2  15    0.40    3.20
  -5  -1 -14   33.40    4.60
  -5  -1 -14   25.90    4.40
   5   1  14   29.00    4.80
  -3   0 -13   31.80    4.40
  -3   0 -13   29.80    4.80
   3   0  13   32.70    4.40
   3   0  13   32.30    5.20
  -1   1 -12  122.59   11.70
  -1   1 -12  115.09   10.90
   1  -1  12  128.59   11.10
   1  -1  12  113.59   11.60
   1   2 -11  277.67   23.80
   1   2 -11  284.47   24.40
  -1  -2  11  276.97   24.10
  -1  -2  11  261.87   24.50
   3   3 -10  195.58   18.80
   3   3 -10  216.08   18.30
   3   3 -10  203.48   18.30
  -3  -3  10  203.58   19.20
   5   4  -9  169.88   17.00
   5   4  -9  190.68   16.60
   5   4  -9  180.48   16.40
  -5  -4   9  167.48   17.30
   7   5  -8   41.00    7.50
   7   5  -8   48.80    7.50
  -7  -5   8   32.60    8.60
   9   6  -7    9.50    6.30
   9   6  -7    8.60    6.30
  -9  -6   7   10.30    7.30
  11   7  -6    0.90    6.70
 -11  -7   6    6.90    7.70
 -10  -3 -17   16.00    5.10
  -8  -2 -16   32.90    5.80
   8   2  16   30.20    5.80
  -6  -1 -15    8.60    3.10
  -6  -1 -15   12.00    3.90
   6   1  15   12.70    4.20
   6   1  15   12.30    3.80
  -4   0 -14   62.39    6.90
  -4   0 -14   60.59    6.60
   4   0  14   60.79    7.30
   4   0  14   62.89    6.70
  -2   1 -13   27.50    4.00
  -2   1 -13   20.10    4.50
   2  -1  13   21.90    5.00
   0   2 -12    2.10    2.70
   0   2 -12   -1.40    3.30
   0  -2  12   -1.00    4.10
   0  -2  12    5.10    2.70
   2   3 -11    5.80    3.20
   2   3 -11   11.80    3.40
   2   3 -11    6.20    3.90
  -2  -3  11    4.10    4.50
   4   4 -10   -1.30    3.80
   4   4 -10    4.20    3.50
   4   4 -10    6.10    3.50
  -4  -4  10    0.10    4.70
   6   5  -9    1.80    4.90
   6   5  -9   -2.90    4.00
  -6  -5   9    2.60    8.40
   8   6  -8   50.99    9.20
   8   6  -8   61.09    9.20
  -8  -6   8   65.29   11.30
 -10  -7   7   37.10   10.60
   9   2  17   65.29    9.60
  -7  -1 -16   28.50    5.20
  -7  -1 -16   16.80    3.20
   7   1  16   19.00    4.60
   7   1  16   21.90    4.20
  -5   0 -15   15.30    4.00
  -5   0 -15   20.80    4.20
   5   0  15   12.80    4.30
   5   0  15   21.50    4.20
  -3   1 -14    0.50    3.70
  -3   1 -14    3.90    2.80
   3  -1  14    1.50    3.90
   3  -1  14    3.30    2.90
  -1   2 -13  248.88   20.70
  -1   2 -13  242.68   21.20
   1  -2  13  223.38   20.80
   1  -2  13  227.58   21.40
   1   3 -12  264.67   22.30
   1   3 -12  229.78   21.50
  -1  -3  12  238.88   21.80
  -1  -3  12  253.67   22.50
   3   4 -11   88.09    8.80
   3   4 -11   83.09    8.70
   3   4 -11   87.39    9.60
  -3  -4  11   78.99    9.90
   5   5 -10   17.30    5.80
   5   5 -10   26.80    4.90
   7   6  -9   28.00    6.20
   7   6  -9   22.50    6.90
  -7  -6   9   26.10    8.60
   9   7  -8   11.40    6.20
  -9  -7   8    4.00    7.50
 -11  -8   7   10.60    9.00
  -8  -1 -17    1.70    4.10
   8   1  17    5.60    4.80
  -6   0 -16   12.80    4.00
  -6   0 -16   28.10    5.00
   6   0  16   23.00    5.20
   6   0  16   27.90    5.20
  -4   1 -15   62.29    7.20
   4  -1  15   56.49    7.10
   4  -1  15   52.19    7.70
  -2   2 -14   63.39    7.60
  -2   2 -14   49.99    6.50
   2  -2  14   62.39    7.20
   2  -2  14   68.09    8.40
   0   3 -13   59.79    8.00
   0   3 -13   56.49    6.80
   0  -3  13   61.19    8.50
   0  -3  13   51.79    6.90
   2   4 -12   36.10    6.70
   2   4 -12   41.80    5.90
  -2  -4  12   41.50    7.80
  -2  -4  12   43.90    6.30
   4   5 -11    2.90    4.60
   4   5 -11    2.10    3.50
   4   5 -11    6.90    3.70
   6   6 -10    6.90    5.30
   6   6 -10   -1.30    4.10
  -6  -6  10    4.20    6.70
   8   7  -9   21.60    6.50
  -8  -7   9   18.70    8.30
  10   8  -8   31.30    8.80
 -10  -8   8    7.10    7.90
  -9  -1 -18    8.40    5.10
  -7   0 -17   15.20    3.20
  -7   0 -17   16.80    5.10
   7   0  17   16.20    5.30
  -5   1 -16    9.10    3.90
  -5   1 -16   14.60    4.40
   5  -1  16    6.90    4.30
   5  -1  16   10.30    4.70
  -3   2 -15   49.00    6.30
  -3   2 -15   39.90    6.40
   3  -2  15   50.69    6.50
   3  -2  15   45.50    7.40
  -1   3 -14    6.20    3.50
  -1   3 -14    5.30    4.10
   1  -3  14    5.50    4.60
   1  -3  14    3.90    3.60
   1   4 -13   23.60    5.30
   1   4 -13   30.10    4.70
  -1  -4  13   16.00    4.40
  -1  -4  13   23.30    6.40
   3   5 -12    7.80    3.90
   3   5 -12   14.90    4.00
   3   5 -12   20.20    5.30
   5   6 -11    4.80    6.20
   5   6 -11   10.60    4.60
   5   6 -11   10.90    4.30
  -5  -6  11   17.40    7.50
   7   7 -10   26.00    6.80
  -7  -7  10   32.90    9.40
  -9  -8   9    7.50    8.10
  -8   0 -18   24.60    6.00
   8   0  18   22.10    6.40
  -6   1 -17   39.70    7.40
  -6   1 -17   45.90    6.50
   6  -1  17   56.79    8.00
   6  -1  17   59.09    7.70
  -4   2 -16  244.78   22.90
  -4   2 -16  255.07   23.10
   4  -2  16  268.47   23.90
   4  -2  16  271.27   23.30
  -2   3 -15   72.69    8.30
  -2   3 -15   75.69    9.00
   2  -3  15   83.09    8.90
   2  -3  15   88.69   10.00
   0   4 -14  113.99   12.60
   0   4 -14  137.69   13.70
   0  -4  14  142.89   13.30
   0  -4  14  165.58   14.80
   2   5 -13   13.70    4.20
   2   5 -13   -2.70    4.80
  -2  -5  13    5.90    4.20
   4   6 -12    7.00    4.40
   4   6 -12    8.90    4.10
  -4  -6  12   14.70    7.40
   6   7 -11    5.60    5.00
  -6  -7  11   -1.90    7.00
   8   8 -10    8.90    6.10
  -8  -8  10    8.10    8.40
 -10  -9   9    8.90   10.00
  -7   1 -18    7.40    4.70
  -7   1 -18    8.10    3.20
   7  -1  18   10.40    5.60
  -5   2 -17    6.90    4.30
  -5   2 -17    6.60    5.60
   5  -2  17    8.90    5.20
   5  -2  17    1.00    4.30
  -3   3 -16    5.20    4.00
  -3   3 -16    4.80    4.40
   3  -3  16    2.70    4.10
   3  -3  16    4.30    5.20
  -1   4 -15   16.00    5.60
  -1   4 -15   12.00    4.30
   1  -4  15   13.60    4.60
   1  -4  15   19.30    6.50
   1   5 -14   67.69    9.20
  -1  -5  14   58.29    8.40
   3   6 -13   74.19    9.10
   3   6 -13   74.59   10.70
  -3  -6  13   72.19   11.50
   5   7 -12   46.90    7.90
  -5  -7  12   42.10   10.40
   7   8 -11   26.50    6.80
  -7  -8  11   32.30    9.90
   9   9 -10   53.39    9.90
  -9  -9  10   47.20   12.40
  -8   1 -19   -2.40    5.00
  -6   2 -18   10.10    4.40
   6  -2  18   -2.20    5.20
  -4   3 -17   16.30    4.90
  -4   3 -17    8.30    4.50
   4  -3  17   16.70    5.90
  -2   4 -16   24.60    5.40
  -2   4 -16   17.40    5.30
   2  -4  16   28.40    7.10
   2  -4  16   20.40    5.70
   0   5 -15   30.30    6.80
   0   5 -15   46.60    6.60
   0  -5  15   53.09    9.30
   0  -5  15   31.50    7.20
   2   6 -14    7.60    4.30
   2   6 -14    3.80    5.20
  -2  -6  14    1.60    6.60
  -2  -6  14   -5.90    4.30
   4   7 -13    6.80    5.10
  -4  -7  13   20.90    8.10
   6   8 -12   12.80    5.30
  -6  -8  12   14.20    8.20
   8   9 -11    8.70    6.40
  -8  -9  11    7.90    9.10
  -7   2 -19   -0.90    3.30
  -7   2 -19    4.50    4.90
  -5   3 -18   -5.40    4.20
  -5   3 -18    8.30    4.40
   5  -3  18    7.10    5.80
   5  -3  18    8.20    5.70
  -3   4 -17   -4.20    4.40
  -3   4 -17   -1.50    3.90
   3  -4  17    0.70    4.50
   3  -4  17    2.60    5.80
  -1   5 -16   29.10    6.80
  -1   5 -16   32.30    6.30
   1  -5  16   45.50    9.00
   1  -5  16   41.50    7.10
   1   6 -15   34.30    6.40
   1   6 -15   36.00    7.90
  -1  -6  15   41.40    9.10
  -1  -6  15   43.70    7.40
   3   7 -14   66.39    9.20
  -3  -7  14   82.79   12.60
   5   8 -13  117.09   11.90
  -5  -8  13   86.89   15.20
   7   9 -12    7.00    6.10
  -6   3 -19    8.30    4.80
  -6   3 -19   11.00    4.70
  -6   3 -19    7.20    5.00
  -4   4 -18    7.30    4.80
  -4   4 -18   -0.60    4.70
   4  -4  18    9.50    6.90
  -2   5 -17    2.90    5.00
  -2   5 -17    6.50    4.50
   2  -5  17    4.50    4.90
   2  -5  17    1.00    6.20
   0   6 -16   23.70    6.60
   0   6 -16   32.60    6.20
   0  -6  16   26.40    6.80
   0  -6  16   28.80    8.30
   2   7 -15   19.90    5.40
  -2  -7  15   20.50    8.00
   4   8 -14    1.50    4.80
  -4  -8  14   -2.90    7.20
  -8 -10  12    5.90   10.00
  -5   4 -19    4.30    4.80
  -5   4 -19   -4.50    4.90
  -3   5 -18   -0.60    6.10
  -3   5 -18    0.80    4.70
   3  -5  18   15.60    7.20
  -1   6 -17    3.20    4.60
  -1   6 -17    2.40    5.20
   1  -6  17    1.10    6.60
   1   7 -16   -1.30    4.50
  -1  -7  16    0.70    7.30
   3   8 -15   -5.60    4.20
  -3  -8  15   -0.90    7.00
   7  10 -13   11.10    7.10
  -7 -10  13   23.30   10.70
  -4   5 -19   47.30    8.10
  -2   6 -18   11.20    5.30
  -2   6 -18   19.10    5.70
   2  -6  18   29.50    9.20
   0   7 -17   14.10    5.60
   0  -7  17   32.10    9.20
   2   8 -16  118.79   12.90
  -2  -8  16  128.59   18.20
   6  10 -14  -12.40    5.60
  -6 -10  14    7.70   10.50
  -5   5 -20   -7.20    5.70
  -3   6 -19    4.10    5.10
   3  -6  19    7.90    7.00
  -1   7 -18   -1.10    4.50
   1  -7  18    1.20    7.40
   1   8 -17    4.70    5.20
  -1  -8  17    7.20    8.30
   3   9 -16   16.90    6.10
  -3  -9  16    7.20    9.90
   5  10 -15    5.40    6.10
  -2   7 -19    9.40    7.90
   2  -7  19   12.30    8.50
   0   8 -18   -0.30    6.30
   0  -8  18   -1.10    7.60
   2   9 -17    1.10    5.40
  -2  -9  17    6.80    8.60
  -1   8 -19   14.90    6.00
   1  -8  19    4.10    7.60
   1   9 -18   -2.70    5.50
  -1  -9  18    7.20    9.30
   0  15  -4   16.30    6.00
  -2  14  -5    7.10    5.60
   3  16  -2   15.70    5.80
   1  15  -3   16.20    6.40
  -3  13  -5    0.90    5.10
   4  16  -1   -3.60    6.40
   4  16  -1    1.10    4.00
   2  15  -2   10.10    4.60
   0  14  -3   20.00    5.60
   0  14  -3    4.70    5.30
  -2  13  -4   17.60    7.10
  -4  12  -5   25.70    6.80
  -4  12  -5   13.00    6.90
   5  16   0   16.70    8.50
   5  16   0   23.70    5.60
   3  15  -1   27.00    6.20
   1  14  -2   21.30    5.40
   1  14  -2   26.10    7.60
  -1  13  -3    7.90    6.00
  -1  13  -3    5.20    4.70
  -3  12  -4    6.60    5.80
  -3  12  -4   18.30    5.70
  -5  11  -5    9.50    5.40
  -5  11  -5    4.60    5.40
   6  16   1    3.90    3.60
   6  16   1    3.90    6.50
   4  15   0    4.50    3.90
   2  14  -1   20.80    6.90
   2  14  -1   10.40    4.40
   0  13  -2   81.79    9.60
   0  13  -2   75.09   11.30
  -2  12  -3   72.09   10.00
  -2  12  -3   66.29   11.00
  -4  11  -4    8.10    6.20
  -4  11  -4   15.00    5.30
  -4  11  -4   13.50    5.80
  -6  10  -5   25.90    6.70
  -6  10  -5   32.30    7.20
   7  16   2    2.20    4.30
   7  16   2   -3.90    6.00
  -5 -15  -1   -5.20    4.20
   5  15   1    1.70    3.00
  -3 -14   0   -3.80    4.10
   3  14   0    0.00    3.30
   3  14   0    2.10    5.20
  -1 -13   1    2.10    3.90
   1  13  -1    0.90    4.50
   1  13  -1    3.60    3.70
  -1  12  -2    2.30    4.50
  -1  12  -2    5.40    3.90
  -3  11  -3   20.70    5.50
  -3  11  -3   11.10    5.30
  -3  11  -3   17.50    6.00
  -5  10  -4   10.60    5.20
  -5  10  -4   12.60    5.80
  -7   9  -5   16.30    6.30
  -7   9  -5   13.20    6.20
  -7   9  -5    3.10    4.60
   6  15   2   24.40    5.40
   4  14   1    8.00    3.70
   4  14   1    9.90    5.50
   2  13   0    4.70    3.60
   2  13   0   17.40    6.50
   0 -12   1   -0.10    3.70
   0 -12   1   -0.90    4.70
   0  12  -1   -1.10    4.30
   0  12  -1   -2.20    3.40
   2 -11   2   94.99   12.40
  -2  11  -2   80.49   11.20
  -2  11  -2   80.09   10.30
   4 -10   3    0.70    5.30
  -4  10  -3    3.30    4.40
  -4  10  -3    0.80    4.60
  -6   9  -4    9.00    5.90
  -6   9  -4    4.90    4.50
  -6   9  -4   11.20    5.30
  -8   8  -5    6.30    6.20
  -8   8  -5   -3.40    3.90
  -8   8  -5    7.10    5.80
   7  15   3    2.20    3.70
   7  15   3   -1.40    3.10
  -5 -14  -2   38.80    6.40
   5  14   2   22.90    7.30
  -3 -13  -1   76.29    8.90
   3  13   1   74.39   11.30
   3  13   1   79.59    8.70
  -1 -12   0   71.29    8.40
  -1 -12   0   68.09   10.20
   1  12   0   55.09    9.50
  -1  11  -1   81.09    9.80
  -1  11  -1   84.19   11.50
   3 -10   2   49.80    9.40
   3 -10   2   61.89    8.10
  -3  10  -2   69.19    9.10
   5  -9   3   33.90    8.10
  -5   9  -3   45.30    7.20
  -5   9  -3   38.70    7.10
  -7   8  -4    4.70    4.20
   8  15   4    0.90    3.40
   8  15   4    0.80    5.60
   6  14   3   21.90    6.80
   6  14   3   19.20    4.80
   6  14   3   22.80    4.80
  -4 -13  -2   42.10    7.20
   4  13   2   58.79    6.40
   4  13   2   49.50    9.10
  -2 -12  -1    0.60    3.50
   2  12   1    5.10    3.40
   2  12   1   -0.70    4.70
   0 -11   0   14.40    3.80
   0 -11   0    7.70    5.70
   0  11   0   14.60    4.00
   0  11   0    5.60    4.80
   2 -10   1   93.39   11.50
   2 -10   1   68.89    8.20
  -2  10  -1   79.09    9.60
  -2  10  -1   63.49    8.10
   4  -9   2   25.00    5.40
   4  -9   2   21.30    6.70
  -4   9  -2   53.99    7.00
  -4   9  -2   37.50    6.70
   6  -8   3   48.20    8.00
  -6   8  -3   45.80    7.60
  -6   8  -3   38.00    6.40
  -8   7  -4   23.50    6.00
  -8   7  -4   53.59    8.80
   9  15   5    5.80    3.90
   9  15   5   14.40    5.80
   9  15   5    0.00    6.30
   7  14   4   70.99    8.30
   7  14   4   75.99   11.10
   7  14   4   67.69    7.70
  -5 -13  -3  215.38   19.90
   5  13   3  215.28   21.80
   5  13   3  226.18   19.80
  -3 -12  -2  207.88   18.60
   3  12   2  195.18   18.40
   3  12   2  217.28   20.40
  -1 -11  -1  160.88   16.20
  -1 -11  -1  190.58   18.30
   1  11   1  185.88   16.30
   1  11   1  190.08   18.00
   1 -10   0  133.29   13.60
   1 -10   0  169.08   15.80
  -1  10   0  128.19   13.70
  -1  10   0  177.28   15.20
   3  -9   1  102.39   11.10
   3  -9   1   66.59    9.00
  -3   9  -1   97.29    9.60
  -3   9  -1   93.19   10.20
   5  -8   2   20.70    6.00
   5  -8   2    1.40    3.60
  -5   8  -2   17.20    5.10
  -5   8  -2   11.20    4.30
   7  -7   3   52.09    8.80
  -7   7  -3   41.40    6.60
  -7   7  -3   49.40    7.80
  -9   6  -4    3.80    4.10
  -9   6  -4    3.80    5.10
   8  14   5   12.70    4.40
   8  14   5    4.50    6.10
   8  14   5   13.10    4.40
   6  13   4   53.49    6.30
   6  13   4   45.30    6.10
   6  13   4   53.59   12.30
   6  13   4   40.40    8.20
  -4 -12  -3  130.99   12.50
   4  12   3  151.98   14.50
   4  12   3  118.59   12.00
  -2 -11  -2  115.59   11.40
  -2 -11  -2  124.39   13.30
   2  11   2  122.49   11.40
   0 -10  -1   20.10    3.80
   0 -10  -1    5.70    4.50
   0  10   1   20.20    3.50
   0  10   1   13.80    4.40
   2  -9   0   18.20    4.00
   2  -9   0    7.00    4.70
  -2   9   0   10.90    4.30
  -2   9   0   19.20    3.90
   4  -8   1   61.59    9.40
   4  -8   1   59.09    8.40
  -4   8  -1   66.09    7.80
  -4   8  -1   64.29    7.60
   6  -7   2   52.19    7.90
  -6   7  -2   48.00    7.90
  -6   7  -2   43.30    6.80
   8  -6   3   12.60    5.80
  -8   6  -3   18.80    5.80
  -8   6  -3    6.20    4.20
   9  14   6   -0.40    4.50
   9  14   6   -3.00    3.30
   9  14   6    1.40    3.90
   7  13   5    5.00    3.40
   7  13   5    2.80    3.10
   7  13   5   11.30    4.70
   5  12   4    6.10    2.60
   5  12   4   -2.20    4.00
  -3 -11  -3   12.10    4.80
  -3 -11  -3    9.50    3.40
   3  11   3    9.10    2.90
  -1 -10  -2   72.99    7.20
  -1 -10  -2   68.89    8.60
   1  10   2   66.39    7.10
   1  10   2   70.19    8.70
   1  -9  -1  100.09   10.70
   1  -9  -1  130.79   12.20
  -1   9   1  105.89   10.70
  -1   9   1  128.69   12.00
   3  -8   0   30.40    5.20
   3  -8   0   39.20    6.80
  -3   8   0   38.10    5.60
  -3   8   0   34.20    5.90
   5  -7   1   64.59    9.20
   5  -7   1   81.39   10.00
  -5   7  -1   84.09    9.20
  -5   7  -1   58.09    7.90
   7  -6   2   49.10    7.70
  -7   6  -2   48.90    8.00
  -7   6  -2   41.20    6.40
  -9   5  -3    0.70    4.10
  10  14   7   25.40    8.30
  10  14   7   27.70    6.50
   8  13   6   23.50    6.50
   8  13   6   30.00    5.20
   8  13   6   31.70    4.80
   6  12   5  156.18   12.80
   6  12   5  133.79   12.80
   6  12   5  101.19   15.10
   6  12   5  159.38   15.20
  -4 -11  -4   97.59   10.00
  -4 -11  -4   87.59   10.70
   4  11   4   93.99    8.80
  -2 -10  -3  106.59   11.30
  -2 -10  -3   92.59   10.20
   2  10   3  116.79   10.00
   2  10   3  105.69   11.20
   0  -9  -2    6.40    4.00
   0  -9  -2   13.20    3.10
   0   9   2   13.10    4.00
   0   9   2    8.30    2.70
   2  -8  -1   64.39    7.30
   2  -8  -1   81.99    9.60
  -2   8   1   72.19    7.50
  -2   8   1   69.09    8.00
   4  -7   0   57.09    7.20
   4  -7   0   66.79    8.30
  -4   7   0   80.79    8.50
  -4   7   0   62.49    7.70
   6  -6   1   10.60    3.90
   6  -6   1   14.40    4.80
  -6   6  -1   13.90    4.90
  -6   6  -1   13.90    4.10
   8  -5   2   15.80    5.20
  -8   5  -2    4.70    4.70
  -8   5  -2    6.50    4.00
  10  -4   3    6.20    5.20
 -10   4  -3    4.00    5.40
   9  13   7    5.00    5.50
   9  13   7    2.90    3.30
   9  13   7    5.50    3.40
   7  12   6    7.40    4.70
   7  12   6    5.90    2.70
   7  12   6    7.30    3.20
   7  12   6    7.30    6.40
  -5 -11  -5   98.09   11.20
   5  11   5  100.99    9.40
   5  11   5  100.09    9.30
  -3 -10  -4   12.80    3.10
  -3 -10  -4    6.50    3.90
   3  10   4   19.90    2.80
   3  10   4   15.10    4.20
  -1  -9  -3  139.59   12.50
  -1  -9  -3  140.59   13.70
   1   9   3  142.49   12.50
   1   9   3  132.19   13.50
   1  -8  -2  322.27   27.50
   1  -8  -2  278.57   26.40
  -1   8   2  326.47   26.60
  -1   8   2  306.37   27.10
   3  -7  -1  171.08   15.80
   3  -7  -1  184.38   16.50
  -3   7   1  183.28   16.40
  -3   7   1  165.78   15.80
   5  -6   0   59.39    7.40
   5  -6   0   47.70    7.80
  -5   6   0   57.39    7.80
  -5   6   0   64.39    7.60
   7  -5   1   42.20    6.50
  -7   5  -1   42.70    7.00
  -7   5  -1   34.50    5.90
   9  -4   2    7.30    4.50
  -9   4  -2    2.30    3.90
  -9   4  -2    5.50    4.60
  10  13   8   25.10    5.30
  10  13   8   25.40    7.00
  10  13   8   21.50    5.50
   8  12   7   11.10    3.10
   8  12   7    5.80    4.90
   8  12   7   15.60    3.40
   8  12   7   14.80    6.70
  -6 -11  -6   24.00    5.80
   6  11   6   22.90    4.00
   6  11   6   35.00    4.20
  -4 -10  -5   51.39    7.60
  -4 -10  -5   57.79    6.10
   4  10   5   41.80    5.00
   4  10   5   42.80    7.00
  -2  -9  -4    5.50    2.30
  -2  -9  -4   -1.40    2.90
   2   9   4    3.30    3.00
   2   9   4    7.90    1.90
   0  -8  -3   29.70    4.10
   0  -8  -3   26.30    5.10
   0   8   3   26.70    3.80
   0   8   3   22.50    4.70
   2  -7  -2   -0.30    2.20
   2  -7  -2    2.00    2.80
  -2   7   2    5.30    2.30
  -2   7   2    1.30    2.80
   4  -6  -1   16.00    3.60
   4  -6  -1   21.10    4.60
  -4   6   1    9.80    3.60
  -4   6   1   19.90    3.70
   6  -5   0   16.30    4.40
   6  -5   0   14.90    4.20
  -6   5   0   19.20    4.70
  -6   5   0   13.50    4.00
  -8   4  -1   93.99   11.10
  -8   4  -1   79.29    9.60
 -10   3  -2   12.80    5.10
   9  12   8    3.00    6.70
   9  12   8    1.80    2.70
   9  12   8    3.70    3.20
   7  11   7    3.00    2.60
   7  11   7    2.00    2.20
  -5 -10  -6    7.20    4.20
   5  10   6   13.70    2.80
   5  10   6   12.50    3.10
   5  10   6   20.60    4.80
  -3  -9  -5   99.79    8.50
  -3  -9  -5   83.29    9.80
   3   9   5   86.69    9.50
   3   9   5   90.29    8.30
  -1  -8  -4   89.59    9.30
  -1  -8  -4   88.99    8.00
   1   8   4   89.19    8.00
   1   8   4   79.59    9.00
   1  -7  -3  104.19   10.10
   1  -7  -3   92.39    9.00
  -1   7   3   99.79    9.00
  -1   7   3   95.79    9.70
   3  -6  -2  160.88   13.40
   3  -6  -2  126.19   12.50
  -3   6   2  136.29   12.70
  -3   6   2  137.69   13.10
   5  -5  -1   60.39    7.40
   5  -5  -1   80.19    8.30
  -5   5   1   66.19    7.20
  -5   5   1   56.99    7.00
   7  -4   0   10.50    3.60
  -7   4   0   14.80    4.30
  -7   4   0    7.20    3.90
   9  -3   1    2.80    3.70
  -9   3  -1    3.50    3.60
  -9   3  -1    1.60    4.70
 -11   2  -2   10.70    5.60
  10  12   9    7.70    6.70
  10  12   9    1.40    4.60
  10  12   9    2.40    3.50
  10  12   9    5.40    3.40
   8  11   8   13.80    6.30
   8  11   8   15.90    3.30
   8  11   8   13.30    3.20
  -6 -10  -7   81.69   10.50
   6  10   7  101.89   10.70
   6  10   7  103.09    9.00
  -4  -9  -6   69.69    8.20
   4   9   6   72.69    8.00
   4   9   6   69.39    6.50
  -2  -8  -5   39.10    6.00
  -2  -8  -5   38.20    4.40
   2   8   5   38.20    3.90
   2   8   5   33.10    5.60
   0  -7  -4  155.38   15.40
   0  -7  -4  184.98   14.60
   0   7   4  152.58   14.50
   0   7   4  172.48   15.30
   2  -6  -3   86.19    8.60
   2  -6  -3  115.89    9.60
  -2   6   3   80.89    8.50
  -2   6   3   91.89    9.10
   4  -5  -2   15.50    4.30
   4  -5  -2    6.90    3.00
  -4   5   2   11.20    3.40
  -4   5   2    6.60    3.10
   6  -4  -1    5.60    3.50
  -6   4   1    6.50    3.40
  -6   4   1    7.80    3.30
  -8   3   0   61.79    7.80
  -8   3   0   71.49    9.50
  10  -2   1   28.50    5.50
 -10   2  -1   26.20    6.90
 -10   2  -1   25.80    5.00
  11  12  10   33.20    5.80
  11  12  10   20.40    8.40
  11  12  10   28.40    7.50
  11  12  10   25.40    5.50
   9  11   9   64.19    9.70
   9  11   9   47.50    6.20
   9  11   9   45.40    8.20
  -7 -10  -8    3.30    3.90
   7  10   8    7.70    2.40
   7  10   8    3.50    3.80
   7  10   8    8.10    2.70
  -5  -9  -7    4.30    3.30
   5   9   7    3.80    1.80
   5   9   7   -0.10    3.10
   5   9   7    1.90    1.80
  -3  -8  -6    3.40    2.00
  -3  -8  -6    6.80    3.40
   3   8   6    2.80    2.80
   3   8   6    4.30    1.50
  -1  -7  -5    9.30    3.40
  -1  -7  -5   15.60    2.50
   1   7   5   13.00    3.40
   1   7   5   12.70    2.30
   1  -6  -4   39.00    4.20
   1  -6  -4   41.70    6.10
  -1   6   4   45.80    5.80
  -1   6   4   34.50    4.30
   3  -5  -3    3.60    2.30
   3  -5  -3   -3.50    4.90
  -3   5   3    1.30    2.30
  -3   5   3    0.30    2.60
   5  -4  -2   21.40    4.60
   5  -4  -2   29.50    5.40
  -5   4   2   28.70    4.60
  -5   4   2   28.30    4.60
   7  -3  -1    6.90    4.30
  -7   3   1   26.50    4.60
  -7   3   1   17.70    4.40
  -9   2   0    3.50    4.70
  -9   2   0   -2.50    3.80
 -11   1  -1   20.40    5.40
 -11   1  -1   22.40    7.00
  10  11  10   46.20    8.00
  10  11  10   48.60    6.10
  10  11  10   30.60    8.40
  10  11  10   59.79    6.50
   8  10   9   62.09    6.50
   8  10   9   61.19    6.40
   8  10   9   66.79    8.50
   8  10   9   69.49    9.60
  -6  -9  -8  158.78   17.00
   6   9   8  185.68   15.60
   6   9   8  163.98   16.90
   6   9   8  197.18   15.60
  -4  -8  -7  435.16   38.60
   4   8   7  448.06   37.40
   4   8   7  455.35   37.40
   4   8   7  433.96   38.40
  -2  -7  -6  115.19    9.30
  -2  -7  -6  107.19   10.50
   2   7   6  105.19   10.30
   2   7   6   97.39    9.20
   0  -6  -5   56.49    5.30
   0   6   5   54.79    5.20
   0   6   5   49.90    6.10
   2  -5  -4  273.47   22.00
   2  -5  -4  235.28   21.20
  -2   5   4  236.68   21.20
  -2   5   4  244.88   21.60
   4  -4  -3   52.69    6.20
   4  -4  -3   59.39    6.70
  -4   4   3   57.89    6.20
  -4   4   3   66.09    6.50
   6  -3  -2    5.10    3.70
   6  -3  -2   -0.10    2.70
  -6   3   2   -0.80    3.20
  -6   3   2    1.00    3.00
  -8   2   1    3.90    4.20
  -8   2   1    8.40    4.40
 -10   1   0   14.50    4.50
 -10   1   0   12.30    6.30
  11  11  11    4.10    3.70
  11  11  11   11.80    6.10
  11  11  11    4.10    3.90
   9  10  10    5.60    5.70
   9  10  10    9.90    2.80
   9  10  10   17.50    3.40
   9  10  10    5.10    3.60
  -7  -9  -9   43.60    6.40
   7   9   9   31.10    3.90
   7   9   9   36.60    5.80
   7   9   9   40.40    4.40
  -5  -8  -8   20.10    4.50
   5   8   8   18.10    2.30
   5   8   8   16.40    3.60
   5   8   8   15.30    2.20
  -3  -7  -7    4.90    2.90
   3   7   7    5.00    1.10
   3   7   7   -1.20    2.40
   1   6   6  193.68   17.30
   1  -5  -5  338.37   29.00
   1  -5  -5  337.37   29.60
  -1   5   5  326.77   29.50
  -1   5   5  362.26   29.00
   3  -4  -4  153.98   13.40
   3  -4  -4  151.38   13.80
  -3   4   4  148.89   13.40
  -3   4   4  147.99   13.70
   5  -3  -3  146.09   13.00
   5  -3  -3  126.79   12.70
  -5   3   3  136.49   12.80
  -5   3   3  142.99   12.90
   7  -2  -2  108.69   11.30
  -7   2   2  121.69   11.50
   9  -1  -1   63.29    7.60
  -9   1   1   58.79    9.10
  -9   1   1   64.89    8.20
 -11   0   0    7.30    4.20
 -11   0   0   -0.10    5.00
  10  10  11   35.40    5.70
  10  10  11   32.40    6.80
  10  10  11   43.30    5.80
  10  10  11   26.80    7.10
   8   9  10   49.00    5.40
   8   9  10   63.49    7.70
  -6  -8  -9   46.50    6.50
   6   8   9   40.30    4.00
   6   8   9   41.00    4.10
   6   8   9   45.00    6.10
  -4  -7  -8   73.59    8.00
   4   7   8   74.59    7.70
  -2  -6  -7  281.17   26.40
  -2  -6  -7  339.17   25.50
   2   6   7  273.17   26.20
   0  -5  -6   27.50    3.20
   0  -5  -6   28.90    4.60
   0   5   6   31.50    4.50
   0   5   6   25.80    3.10
   2  -4  -5    3.50    2.10
   2  -4  -5    3.70    2.70
  -2   4   5    6.30    2.60
  -2   4   5    1.40    1.90
   4  -3  -4   92.59    9.30
   4  -3  -4  107.19    9.80
  -4   3   4   94.49    9.40
  -4   3   4  101.79    9.60
   6  -2  -3    2.50    2.80
   6  -2  -3    4.80    5.00
  -6   2   3    4.50    3.40
  -6   2   3    7.70    3.20
   8  -1  -2   -0.30    3.40
  -8   1   2    7.90    4.40
  -8   1   2    4.90    4.20
  10   0  -1   46.20    7.50
 -10   0   1   54.09    7.20
 -10   0   1   46.70    7.70
 -12  -1   0   14.40    6.00
  11  10  12    6.60    4.10
  11  10  12   11.50    5.40
  11  10  12   12.20    5.00
  11  10  12   11.30    4.10
   9   9  11   16.20    3.40
   9   9  11    4.80    3.70
   9   9  11   11.90    2.90
   9   9  11   15.50    5.40
  -7  -8 -10   68.39    8.50
   7   8  10   73.59    7.00
   7   8  10   78.29    8.20
   7   8  10   76.69    6.90
  -5  -7  -9    5.80    3.10
   5   7   9    7.40    2.90
  -3  -6  -8   53.09    6.60
   3   6   8   64.09    6.40
  -1  -5  -7  119.79   10.30
  -1  -5  -7  125.59   11.30
   1   5   7  120.99   10.30
   1   5   7  115.09   11.20
   1  -4  -6  494.85   38.90
   1  -4  -6  446.76   38.30
  -1   4   6  456.75   38.80
  -1   4   6  425.56   38.30
   3  -3  -5  414.16   35.30
   3  -3  -5  416.46   35.60
  -3   3   5  440.86   35.30
  -3   3   5  389.96   35.50
   5  -2  -4  123.59   11.20
   5  -2  -4  105.89   10.70
  -5   2   4  121.39   10.80
  -5   2   4  107.99   10.90
   7  -1  -3   27.60    5.30
   7  -1  -3   31.60    5.30
  -7   1   3   36.30    6.00
  -7   1   3   41.30    5.90
   9   0  -2   30.80    6.00
  -9   0   2   39.00    6.80
  -9   0   2   46.40    6.70
  11   1  -1    0.20    4.50
 -11  -1   1    6.20    4.70
  10   9  12   31.50    5.90
  10   9  12   42.40    5.60
  10   9  12   24.70    6.20
   8   8  11   18.00    4.00
   8   8  11   25.20    4.40
   8   8  11   27.90    3.50
   6   7  10    7.30    2.00
   6   7  10   10.70    1.80
   6   7  10   11.70    3.20
  -4  -6  -9  202.78   17.60
   4   6   9  188.18   17.30
  -2  -5  -8  272.47   23.80
   2   5   8  274.07   23.80
   0  -4  -7   74.39    6.80
   0  -4  -7   77.99    7.80
   0   4   7   80.49    7.80
   0   4   7   75.19    6.80
   2  -3  -6  483.95   39.80
   2  -3  -6  474.05   40.20
  -2   3   6  453.85   40.10
   4  -2  -5  224.78   19.90
   4  -2  -5  212.68   19.50
  -4   2   5  222.58   19.80
  -4   2   5  236.88   19.60
   6  -1  -4   37.40    5.40
   6  -1  -4   35.50    5.50
  -6   1   4   39.30    5.90
  -6   1   4   36.40    5.50
   8   0  -3   -1.30    3.80
  -8   0   3    2.80    4.40
  -8   0   3    0.60    3.60
  10   1  -2    0.50    3.90
 -10  -1   2    4.40    4.90
 -10  -1   2    4.60    4.60
  12   2  -1    5.10    5.70
 -12  -2   1   10.60    6.40
 -12  -2   1    2.20    5.50
  11   9  13   51.69    6.60
  11   9  13   30.10    7.10
  11   9  13   59.39    7.50
   9   8  12   23.30    3.90
   9   8  12   23.40    5.00
  -7  -7 -11    4.90    3.40
   7   7  11    6.40    2.10
   7   7  11   10.40    3.30
  -5  -6 -10  206.38   19.20
   5   6  10  223.18   19.00
  -3  -5  -9   86.69    8.70
  -1  -4  -8   94.09    8.20
  -1  -4  -8   97.19    9.30
   1   4   8   99.79    9.30
   1  -3  -7  168.98   13.30
   1  -3  -7  124.79   12.60
  -1   3   7  136.39   12.60
  -1   3   7  160.68   13.20
   3  -2  -6   42.70    5.10
   3  -2  -6   47.20    5.80
  -3   2   6   48.70    5.10
  -3   2   6   49.60    5.80
   5  -1  -5    5.30    3.30
   5  -1  -5    3.20    2.60
  -5   1   5    2.20    2.50
  -5   1   5    0.40    3.20
   7   0  -4   40.70    5.90
   7   0  -4   35.80    5.60
  -7   0   4   35.80    6.30
  -7   0   4   35.00    5.50
   9   1  -3   64.59    8.80
  -9  -1   3   70.59    9.50
  -9  -1   3   77.99    9.00
  11   2  -2    1.70    4.70
 -11  -2   2    5.10    5.90
  10   8  13    7.40    4.00
  10   8  13    9.20    4.50
  10   8  13   12.50    4.00
  -8  -7 -12   52.99    6.70
   8   7  12   57.19    6.60
   8   7  12   52.89    5.60
  -6  -6 -11   79.79    8.80
   6   6  11   89.99    7.70
   6   6  11   85.69    8.70
  -4  -5 -10  184.68   16.30
   4   5  10  178.38   16.20
  -2  -4  -9  522.15   43.60
   2   4   9  501.55   43.50
   0  -3  -8  337.07   29.50
   0  -3  -8  363.16   28.90
   0   3   8  318.37   29.40
   0   3   8  347.47   28.90
   2  -2  -7  309.37   24.20
   2  -2  -7  283.77   24.50
  -2   2   7  251.07   24.40
   4  -1  -6    4.30    2.50
  -4   1   6    3.10    3.30
  -4   1   6    4.70    2.40
   6   0  -5   21.80    4.30
   6   0  -5   26.80    4.60
  -6   0   5   36.20    5.40
  -6   0   5   26.80    4.50
   8   1  -4    2.00    2.90
   8   1  -4    0.50    3.60
  -8  -1   4    5.00    4.50
  -8  -1   4    2.90    3.90
  10   2  -3   16.30    5.30
 -10  -2   3   18.00    5.90
 -10  -2   3   19.40    5.50
  12   3  -2    1.60    5.80
 -12  -3   2    2.80    6.80
 -12  -3   2   -0.10    5.60
  11   8  14    2.60    4.00
  -9  -7 -13   -1.20    2.40
   9   7  13    1.60    3.40
   9   7  13   -3.60    2.60
  -7  -6 -12    1.80    3.00
  -7  -6 -12    4.00    2.00
   7   6  12   10.30    2.20
   7   6  12    7.80    3.10
  -5  -5 -11  113.89   10.80
   5   5  11  113.19   10.70
  -3  -4 -10   28.00    4.10
   3   4  10   23.10    4.00
  -1  -3  -9  116.29    9.80
  -1  -3  -9  114.59   10.70
  -1  -3  -9  116.29    9.80
   1   3   9  106.09   10.60
   1  -2  -8   13.80    2.60
   1  -2  -8   11.80    3.30
  -1   2   8   15.20    3.60
  -1   2   8   18.60    2.70
   3  -1  -7  277.67   25.40
  -3   1   7  284.27   25.30
  -3   1   7  329.37   25.80
   5   0  -6  239.68   21.60
   5   0  -6  242.18   21.80
  -5   0   6  245.18   21.90
  -5   0   6  258.47   21.60
   7   1  -5   64.09    7.90
   7   1  -5   73.99    8.20
  -7  -1   5   90.09    9.00
  -7  -1   5   65.99    7.90
   9   2  -4   45.50    7.30
  -9  -2   4   53.29    7.70
  -9  -2   4   54.69    7.80
  11   3  -3   28.20    7.00
 -11  -3   3   49.40    9.20
 -10  -7 -14    1.40    2.80
  10   7  14   -0.30    3.50
  -8  -6 -13   11.40    3.60
   8   6  13   16.00    4.00
   8   6  13   25.70    3.50
  -6  -5 -12   82.09    7.50
  -6  -5 -12   75.29    8.30
   6   5  12   81.89    8.30
   6   5  12   87.79    7.50
  -4  -4 -11   14.80    1.80
  -4  -4 -11   10.70    3.10
   4   4  11   10.10    3.10
  -2  -3 -10   53.69    4.50
  -2  -3 -10   45.20    5.70
  -2  -3 -10   48.60    4.50
   2   3  10   43.80    5.70
   0  -2  -9  156.48   14.20
   0  -2  -9  161.68   13.60
   0  -2  -9  158.78   13.60
   0   2   9  149.39   14.20
   2  -1  -8   16.00    3.60
   2  -1  -8    9.10    2.60
  -2   1   8   13.60    2.60
  -2   1   8   15.20    3.70
   4   0  -7   19.30    3.70
   4   0  -7   18.70    4.00
  -4   0   7   16.00    3.40
  -4   0   7   17.70    4.30
   6   1  -6   16.50    3.70
   6   1  -6   16.90    4.40
  -6  -1   6   15.90    3.80
  -6  -1   6   13.30    4.90
   8   2  -5   19.60    4.90
  -8  -2   5   17.70    4.90
  -8  -2   5   22.00    6.40
  10   3  -4   12.00    5.30
 -10  -3   4    7.10    5.20
 -10  -3   4    9.10    4.70
  12   4  -3   -4.20    6.70
 -12  -4   3    3.90    5.80
 -11  -7 -15   41.70    5.90
  -9  -6 -14   47.30    5.50
   9   6  14   44.20    5.40
  -7  -5 -13   64.69    6.10
  -7  -5 -13   50.19    6.60
   7   5  13   71.29    7.60
   7   5  13   62.29    6.10
  -5  -4 -12  244.58   20.20
  -5  -4 -12  209.98   20.70
   5   4  12  243.68   20.20
   5   4  12  247.08   20.80
  -3  -3 -11   35.70    3.60
   3   3  11   41.00    4.90
   3   3  11   35.00    3.60
  -1  -2 -10   89.89    7.90
  -1  -2 -10  100.39    8.90
  -1  -2 -10   78.89    7.90
   1   2  10   93.99    8.80
   1  -1  -9   62.89    7.60
   1  -1  -9   78.79    6.80
   1  -1  -9   69.69    6.90
  -1   1   9   69.29    7.50
   3   0  -8   62.89    7.40
   3   0  -8   66.79    6.80
  -3   0   8   73.59    6.80
  -3   0   8   66.49    7.60
   5   1  -7   34.70    5.40
   5   1  -7   38.80    5.80
  -5  -1   7   40.30    5.30
  -5  -1   7   44.10    6.30
   7   2  -6   78.39    8.80
   7   2  -6   59.19    8.10
  -7  -2   6  100.59    9.60
   9   3  -5   13.00    4.90
  -9  -3   5    9.20    4.70
  -9  -3   5   17.30    6.40
  11   4  -4   -1.90    5.40
 -11  -4   4    3.80    6.70
 -10  -6 -15    7.30    3.60
  -8  -5 -14    4.10    2.70
  -8  -5 -14    9.50    2.90
   8   5  14    3.80    2.80
   8   5  14    6.30    3.10
  -6  -4 -13    8.60    3.10
  -6  -4 -13   12.30    2.50
   6   4  13   12.60    3.80
   6   4  13   10.90    2.50
  -4  -3 -12  170.48   14.30
  -4  -3 -12  160.08   15.00
   4   3  12  167.58   14.30
   4   3  12  164.98   15.00
  -2  -2 -11   29.40    4.40
  -2  -2 -11   28.90    3.30
   2   2  11   28.90    4.30
   2   2  11   26.50    3.20
   0  -1 -10  306.27   28.10
   0  -1 -10  341.17   27.60
   0  -1 -10  334.57   27.60
   0   1  10  312.27   28.10
   2   0  -9  293.97   24.50
   2   0  -9  298.57   24.60
   2   0  -9  284.47   25.00
  -2   0   9  260.87   24.90
   4   1  -8  170.28   16.60
   4   1  -8  195.18   16.30
  -4  -1   8  171.58   16.80
  -4  -1   8  189.28   16.20
   6   2  -7   86.19    9.20
   6   2  -7   95.99    9.80
  -6  -2   7   87.09    9.20
  -6  -2   7   95.49   10.20
   8   3  -6   13.10    5.00
  -8  -3   6   29.70    5.40
  -8  -3   6   16.00    6.10
  10   4  -5   -3.00    5.00
 -10  -4   5   -1.10    4.90
 -10  -4   5   -7.70    6.00
  12   5  -4  -11.00    6.10
 -12  -5   4    7.20    7.70
  -9  -5 -15   49.10    6.20
   9   5  15   54.69    7.00
  -7  -4 -14   48.90    5.10
  -7  -4 -14   38.00    5.30
   7   4  14   45.60    5.70
   7   4  14   44.90    5.20
  -5  -3 -13   20.70    3.70
  -5  -3 -13   24.00    3.40
   5   3  13   20.40    3.90
   5   3  13   18.80    3.10
  -3  -2 -12    7.10    2.90
  -3  -2 -12    9.40    2.10
   3   2  12    6.30    3.00
   3   2  12    7.80    2.10
  -1  -1 -11   64.69    6.90
  -1  -1 -11   62.39    6.10
   1   1  11   72.69    7.10
   1   1  11   60.09    6.10
   1   0 -10   37.20    4.40
   1   0 -10   38.60    4.50
   3   1  -9    4.10    3.50
   3   1  -9    0.60    2.70
   3   1  -9    3.40    2.60
  -3  -1   9   -1.30    3.50
   5   2  -8   22.80    4.50
  -5  -2   8   34.30    4.70
  -5  -2   8   41.00    6.10
   7   3  -7  116.89   11.50
   7   3  -7   92.79   10.70
  -7  -3   7  113.79   11.90
  -7  -3   7  105.19   10.80
   9   4  -6    1.80    4.90
  -9  -4   6   12.10    7.70
  -9  -4   6   14.60    5.20
  11   5  -5    2.00    6.00
 -11  -5   5   15.60    7.90
 -11  -5   5    0.20    5.30
 -10  -5 -16    5.60    3.70
  10   5  16   13.90    4.60
  -8  -4 -15    3.90    3.00
  -6  -3 -14    8.60    2.90
  -6  -3 -14    8.30    3.10
   6   3  14   19.00    3.20
   6   3  14   14.00    5.50
  -4  -2 -13  203.78   17.30
  -4  -2 -13  191.08   17.80
   4   2  13  196.98   17.30
   4   2  13  208.38   17.80
  -2  -1 -12  412.66   35.90
  -2  -1 -12  395.76   35.30
   2   1  12  419.66   35.90
   2   1  12  445.26   35.50
   0   0 -11  322.97   27.00
   0   0 -11  321.07   27.70
   0   0  11  305.17   27.60
   2   1 -10  262.17   23.10
   2   1 -10  261.07   22.80
   2   1 -10  265.87   22.60
  -2  -1  10  251.27   23.20
   4   2  -9  448.66   39.30
   4   2  -9  467.35   39.70
   4   2  -9  483.35   39.40
  -4  -2   9  435.86   39.80
   6   3  -8   11.00    3.80
   6   3  -8    9.40    4.80
   6   3  -8   14.40    4.70
  -6  -3   8    5.50    5.20
   8   4  -7    7.40    5.20
  10   5  -6    6.10    6.20
 -10  -5   6   11.50    8.40
  -9  -4 -16   -1.00    3.30
   9   4  16    0.80    3.40
  -7  -3 -15    8.20    3.40
  -7  -3 -15    3.20    2.40
   7   3  15    8.80    3.10
  -5  -2 -14   24.00    3.80
  -5  -2 -14   23.30    4.20
   5   2  14   23.80    4.50
   5   2  14   23.80    3.80
  -3  -1 -13    1.50    2.90
  -3  -1 -13    3.50    2.80
   3   1  13    5.70    2.40
   3   1  13    3.70    3.20
  -1   0 -12   70.99    6.90
  -1   0 -12   63.49    8.00
   1   0  12   80.79    7.20
   1   0  12   70.49    8.00
   1   1 -11   20.50    4.70
   1   1 -11   17.10    3.20
   1   1 -11   17.20    3.40
  -1  -1  11   18.90    4.60
   3   2 -10   51.19    6.20
   3   2 -10   49.99    5.70
   3   2 -10   34.10    6.50
  -3  -2  10   50.39    7.30
   5   3  -9  113.39   10.60
   5   3  -9  102.49   10.30
  -5  -3   9   92.39   11.40
   7   4  -8   19.30    5.80
   7   4  -8   29.00    6.30
  -7  -4   8   33.90    7.90
   9   5  -7   51.09    9.50
   9   5  -7   82.49   10.70
  -9  -5   7   77.99   11.50
  11   6  -6    8.70    7.90
 -11  -6   6   12.80    8.70
 -10  -4 -17   33.40    5.90
  10   4  17   32.70    6.80
  -8  -3 -16    0.60    3.40
   8   3  16    3.90    3.60
  -6  -2 -15   13.60    3.40
  -6  -2 -15   20.10    4.00
   6   2  15   10.20    4.40
  -4  -1 -14   64.69    6.60
  -4  -1 -14   62.99    7.20
   4   1  14   68.49    6.70
   4   1  14   62.89    7.80
  -2   0 -13  295.57   25.70
  -2   0 -13  326.97   26.80
   2   0  13  286.87   25.80
   2   0  13  295.17   26.30
   0   1 -12   28.80    4.00
   0   1 -12   23.10    4.80
   0  -1  12   23.20    4.90
   0  -1  12   26.90    4.20
   2   2 -11   11.40    3.30
   2   2 -11    6.80    3.90
   2   2 -11    4.30    2.90
  -2  -2  11    5.20    4.30
   4   3 -10   19.20    4.10
   4   3 -10    9.60    4.80
   4   3 -10   14.10    4.20
  -4  -3  10   23.40    5.90
   6   4  -9    8.20    5.00
   6   4  -9   13.40    4.20
   6   4  -9   11.70    4.70
  -6  -4   9   13.00    6.10
   8   5  -8   40.20    8.40
   8   5  -8   57.49    8.90
  -8  -5   8   56.89    9.70
 -10  -6   7    9.30    7.90
  -9  -3 -17   58.79    7.80
   9   3  17   62.29    8.70
  -7  -2 -16   59.79    6.50
  -7  -2 -16   40.60    5.50
   7   2  16   62.09    6.80
   7   2  16   52.59    6.10
  -5  -1 -15   53.69    6.60
  -5  -1 -15   54.19    6.30
   5   1  15   60.29    7.30
   5   1  15   60.69    6.50
  -3   0 -14  208.48   18.80
  -3   0 -14  231.68   20.70
   3   0  14  215.08   18.90
   3   0  14  211.88   19.40
  -1   1 -13  116.59   10.70
  -1   1 -13  110.09   11.40
   1  -1  13  113.49   11.70
   1  -1  13  124.59   11.60
   1   2 -12   55.59    6.20
   1   2 -12   61.39    7.80
  -1  -2  12   55.29    8.00
  -1  -2  12   59.89    6.50
   3   3 -11  109.79   10.70
   3   3 -11   88.09    9.60
   3   3 -11   90.99    9.60
  -3  -3  11  111.29   11.10
   5   4 -10   32.90    6.00
   5   4 -10   31.30    6.80
   5   4 -10   44.10    6.20
  -5  -4  10   28.60    7.20
   7   5  -9    7.70    5.30
   7   5  -9    0.60    4.80
  -7  -5   9   -1.80    5.70
   9   6  -8   -1.90    5.90
  -9  -6   8   15.20    8.50
  11   7  -7    7.60    8.40
 -11  -7   7   -2.90    7.60
 -10  -3 -18   -0.50    4.30
  -8  -2 -17    7.40    4.00
   8   2  17   10.80    4.30
  -6  -1 -16   49.10    6.10
  -6  -1 -16   34.20    5.50
   6   1  16   46.60    6.00
   6   1  16   41.50    5.90
  -4   0 -15   -2.60    4.00
  -4   0 -15   -1.70    3.10
   4   0  15   -0.20    3.80
   4   0  15    1.50    3.10
  -2   1 -14   32.10    4.40
  -2   1 -14   20.00    4.60
   2  -1  14   31.60    5.50
   2  -1  14   18.80    4.20
   0   2 -13   84.69    8.00
   0   2 -13   83.29    9.00
   0  -2  13   79.19    8.20
   0  -2  13   68.89    9.10
   2   3 -12   41.60    7.10
   2   3 -12   53.49    6.50
   2   3 -12   54.59    6.50
  -2  -3  12   44.00    7.60
   4   4 -11   79.69    9.00
   4   4 -11   87.59    9.10
   4   4 -11   93.89   10.10
  -4  -4  11   85.39   10.30
   6   5 -10  105.39   11.60
   6   5 -10  121.59   14.20
   6   5 -10  133.59   12.60
  -6  -5  10  110.09   13.80
   8   6  -9   43.10    8.80
   8   6  -9   63.99    9.20
  -8  -6   9   47.70   10.50
  10   7  -8   -3.10    6.70
 -10  -7   8    1.40    8.50
  -9  -2 -18   14.60    6.80
   9   2  18   15.30    5.80
  -7  -1 -17   22.70    5.00
  -7  -1 -17   12.40    3.30
   7   1  17   13.60    4.30
   7   1  17   23.50    5.00
  -5   0 -16   21.40    4.80
  -5   0 -16   25.80    5.20
   5   0  16   33.80    5.50
   5   0  16   32.20    5.30
  -3   1 -15   46.70    6.60
  -3   1 -15   50.79    6.30
   3  -1  15   42.30    6.20
   3  -1  15   57.89    7.70
  -1   2 -14   66.29    8.60
  -1   2 -14   71.59    7.90
   1  -2  14   64.69    8.00
   1  -2  14   76.79    9.40
   1   3 -13   -4.60    4.00
   1   3 -13    3.30    3.20
  -1  -3  13  -11.50    4.50
  -1  -3  13   -2.80    3.20
   3   4 -12    8.50    3.50
   3   4 -12   10.40    4.00
   3   4 -12    0.50    4.20
  -3  -4  12    2.70    5.40
   5   5 -11   16.10    4.90
  -5  -5  11    5.50    6.40
   7   6 -10   -1.00    4.60
   7   6 -10    4.30    5.90
  -7  -6  10    2.10    7.50
   9   7  -9    5.90    7.00
  -9  -7   9    3.00    7.80
   8   1  18    8.20    4.80
  -6   0 -17   11.10    4.00
  -6   0 -17   16.70    4.40
   6   0  17   14.60    4.90
   6   0  17   19.70    5.10
  -4   1 -16   52.99    7.40
  -4   1 -16   64.39    7.50
   4  -1  16   57.79    8.20
   4  -1  16   59.69    7.60
  -2   2 -15   19.30    5.20
  -2   2 -15   29.30    4.70
   2  -2  15   25.80    5.90
   2  -2  15   31.00    5.20
   0   3 -14   20.50    5.30
   0   3 -14   30.50    4.60
   0  -3  14   18.70    4.80
   0  -3  14   27.30    6.10
   2   4 -13  170.48   16.00
   2   4 -13  156.08   14.90
  -2  -4  13  159.58   16.30
   4   5 -12   46.20    7.30
   4   5 -12   65.09    7.60
  -4  -5  12   47.50    9.20
   6   6 -11   22.20    7.10
   6   6 -11   55.99    7.60
  -6  -6  11   41.30    8.80
   8   7 -10   20.30    6.60
  -8  -7  10   24.90    9.20
  10   8  -9    3.00    7.10
  -9  -1 -19   13.70    5.50
   9   1  19   11.50    6.00
  -7   0 -18    4.50    3.00
   7   0  18    5.00    5.30
  -5   1 -17   13.60    4.40
  -5   1 -17    5.70    3.80
   5  -1  17   12.80    5.20
   5  -1  17    6.50    4.40
  -3   2 -16   31.60    6.10
  -3   2 -16   34.20    5.80
   3  -2  16   42.30    7.30
   3  -2  16   52.09    6.70
  -1   3 -15   23.00    4.50
  -1   3 -15   12.10    5.10
   1  -3  15   15.80    6.00
   1  -3  15   17.70    4.40
   1   4 -14   39.30    6.00
   1   4 -14   40.60    7.20
  -1  -4  14   45.40    8.50
  -1  -4  14   54.29    7.10
   3   5 -13   -4.40    3.50
   3   5 -13    4.50    4.10
  -3  -5  13   -1.40    8.30
   5   6 -12    6.80    4.50
   5   6 -12    1.80    3.60
  -5  -6  12    4.00    6.30
   7   7 -11   -2.90    4.90
  -7  -7  11    5.60    8.10
   9   8 -10    1.60    6.30
  -9  -8  10   -6.20    8.70
  -8   0 -19    2.40    5.00
   8   0  19   -1.60    5.20
  -6   1 -18    0.00    4.10
   6  -1  18   -1.20    4.40
   6  -1  18    2.90    4.60
  -4   2 -17   14.70    4.70
  -4   2 -17   10.20    4.50
   4  -2  17   14.00    5.10
   4  -2  17   21.10    6.00
  -2   3 -16   12.70    4.20
  -2   3 -16    9.80    5.00
   2  -3  16   15.30    6.20
   2  -3  16   13.10    4.70
   0   4 -15    9.80    3.90
   0   4 -15    2.90    4.50
   0  -4  15    7.80    5.90
   0  -4  15   12.90    4.70
   2   5 -14   17.40    4.90
  -2  -5  14   28.50    7.90
  -2  -5  14   16.00    5.20
   4   6 -13   17.40    5.00
   4   6 -13   14.80    4.70
  -4  -6  13   21.90    7.60
   6   7 -12    0.00    4.70
  -6  -7  12    2.90    7.20
   8   8 -11    9.10    7.90
  -8  -8  11    5.90    8.20
  -7   1 -19   25.20    4.70
  -7   1 -19   34.50    6.30
   7  -1  19   27.00    7.30
  -5   2 -18   31.30    5.90
  -5   2 -18   24.70    5.50
   5  -2  18   29.60    6.70
  -3   3 -17   89.39   10.60
  -3   3 -17  124.29   14.70
   3  -3  17  103.19   11.90
   3  -3  17  103.69   11.00
  -1   4 -16  115.29   14.40
  -1   4 -16  124.89   13.60
   1  -4  16  144.69   13.60
   1  -4  16  148.39   15.40
   1   5 -15   15.40    6.90
   1   5 -15   21.50    5.00
  -1  -5  15   14.50    7.10
   3   6 -14   37.30    6.50
   3   6 -14   39.50    6.70
  -3  -6  14   45.30    9.80
   5   7 -13   -2.50    4.60
  -5  -7  13    4.60    7.80
   7   8 -12    0.20    5.80
  -7  -8  12    2.20    7.40
  -9  -9  11   12.30    9.20
  -6   2 -19    0.80    4.20
  -6   2 -19   -1.80    4.10
   6  -2  19   -1.90    5.40
  -4   3 -18    4.70    4.70
  -4   3 -18    7.60    4.50
   4  -3  18   17.80    6.30
   4  -3  18   13.50    5.40
  -2   4 -17   -0.30    4.70
  -2   4 -17    7.70    4.30
   2  -4  17    2.40    4.50
   0   5 -16   25.00    6.50
   0   5 -16   28.50    6.00
   0  -5  16   31.70    6.50
   0  -5  16   24.40    7.60
   2   6 -15    3.90    4.10
  -2  -6  15   -0.20    7.00
  -2  -6  15   -0.30    4.50
   4   7 -14   58.99    8.70
  -4  -7  14   65.19   12.10
   6   8 -13   17.40    6.10
  -6  -8  13   20.20    9.20
   8   9 -12    9.70    6.80
  -8  -9  12   12.60   10.10
  -7   2 -20    3.60    5.30
  -7   2 -20    1.80    4.80
  -7   2 -20    3.30    3.90
  -5   3 -19   -1.40    4.50
  -5   3 -19    4.20    4.70
   5  -3  19    8.10    6.50
  -3   4 -18   24.10    5.60
  -3   4 -18   24.30    5.90
   3  -4  18   15.90    6.40
  -1   5 -17   11.20    5.50
  -1   5 -17   15.60    5.00
   1  -5  17   15.20    7.00
   1  -5  17   10.00    5.40
   1   6 -16   38.50    6.60
  -1  -6  16   44.30    9.40
  -1  -6  16   33.70    7.50
   3   7 -15    5.00    4.80
  -3  -7  15   13.00    7.70
   5   8 -14    3.70    5.00
  -5  -8  14   -0.30    7.10
   7   9 -13    3.20    6.00
  -7  -9  13   11.40    8.70
  -6   3 -20   -2.60    4.50
  -6   3 -20    3.60    4.80
  -4   4 -19   10.90    5.40
  -4   4 -19    8.90    5.50
  -2   5 -18    1.60    4.30
  -2   5 -18   -5.20    5.00
   2  -5  18   -0.10    6.00
   0   6 -17    5.70    4.90
   0  -6  17   10.10    7.30
   2   7 -16    4.30    4.90
  -2  -7  16   16.60    7.60
   4   8 -15   46.00    8.10
  -4  -8  15   51.79   11.10
   6   9 -14   42.00    8.50
  -6  -9  14   41.90   11.70
  -5   4 -20    7.50    5.20
  -5   4 -20    4.80    5.80
  -3   5 -19   10.60    6.20
  -3   5 -19   14.60    5.20
   3  -5  19   11.10    7.40
  -1   6 -18    5.80    5.10
   1  -6  18    6.50    7.20
   1   7 -17   24.30    6.50
  -1  -7  17   43.40   10.00
   3   8 -16   28.60    7.00
  -3  -8  16   32.60   10.40
   5   9 -15    0.80    5.70
  -5  -9  15    6.20    8.60
  -4   5 -20   -8.10    5.40
  -4   5 -20    3.00    5.20
  -2   6 -19   -0.10    4.40
   2  -6  19   10.60    8.00
   0   7 -18   -2.70    4.60
   0  -7  18    4.80    7.80
   2   8 -17    5.10    5.90
  -2  -8  17    1.70    8.60
   4   9 -16    4.90    5.60
  -4  -9  16   12.90    9.20
  -3   6 -20   31.70   11.40
   3  -6  20   33.70    9.50
   1  -7  19   43.60   10.70
   1   8 -18   46.00    8.90
   3   9 -17   31.00    7.30
  -3  -9  17   22.70   10.40
   0   8 -19    1.90    5.50
   2   9 -18   -7.60    5.40
  -2  -9  18   10.90   10.40
   0  15  -3   18.40    6.00
  -2  14  -4   11.10    5.80
   3  16  -1    4.90    4.60
   3  16  -1   -2.60    5.80
   1  15  -2    7.20    6.50
   1  15  -2   15.30    5.60
  -1  14  -3   14.30    8.30
  -3  13  -4   18.20    7.10
  -3  13  -4   20.80    6.70
   4  16   0   35.40   10.20
   4  16   0   27.70    6.40
   2  15  -1   31.30    6.40
   2  15  -1   24.40    7.40
   0  14  -2   32.20    9.00
   0  14  -2   31.60    6.40
  -2  13  -3   17.40    7.20
  -2  13  -3   16.90    5.50
  -4  12  -4    5.50    5.00
  -4  12  -4   -2.30    5.30
   5  16   1   -0.90    6.20
   5  16   1   -0.60    4.40
   3  15   0    7.60    4.10
   1  14  -1    9.70    5.70
   1  14  -1    2.60    3.80
  -1  13  -2   15.70    5.30
  -1  13  -2    7.90    6.00
  -3  12  -3   19.60    6.60
  -3  12  -3   17.10    5.90
  -5  11  -4    1.60    5.70
  -5  11  -4   13.40    6.00
  -5  11  -4    8.80    6.20
   6  16   2   13.30    4.50
  -4 -15  -1    9.20    4.80
   4  15   1   34.40    5.40
  -2 -14   0   51.69    8.70
   2  14   0   76.19    9.00
   2  14   0   90.39   11.90
   0  13  -1   38.40    8.10
   0  13  -1   29.80    6.20
   2 -12   2   13.10    7.50
  -2  12  -2   25.80    5.70
  -2  12  -2   21.70    6.60
  -4  11  -3    9.10    6.00
  -4  11  -3   15.80    6.00
  -4  11  -3   19.30    6.40
  -6  10  -4    3.50    5.30
  -6  10  -4   -1.70    4.50
  -6  10  -4    6.80    6.40
   7  16   3    1.80    4.30
  -5 -15  -2    6.50    4.80
   5  15   2    7.40    4.10
  -3 -14  -1    8.40    4.70
   3  14   1    3.40    4.90
   3  14   1   13.80    4.30
  -1 -13   0    9.50    4.30
   1  13   0   16.10    4.40
   1  13   0   13.60    6.00
   1 -12   1   31.60    7.30
   1 -12   1   13.40    4.60
  -1  12  -1   23.80    6.80
  -1  12  -1   26.60    5.30
   3 -11   2  117.09   14.80
  -3  11  -2  105.19   12.50
  -3  11  -2  105.79   12.00
  -5  10  -3   27.90    6.50
  -5  10  -3   21.10    6.10
  -7   9  -4   20.70    5.60
  -7   9  -4   26.50    8.20
  -7   9  -4   19.40    6.60
   6  15   3    7.50    3.80
  -4 -14  -2    0.80    4.30
   4  14   2    1.30    5.00
  -2 -13  -1    7.70    4.40
   2  13   1   19.90    6.20
   0 -12   0   10.00    5.70
   0  12   0   11.20    5.80
   0  12   0    8.50    3.90
   2 -11   1   -3.40    3.40
   2 -11   1    3.30    5.40
  -2  11  -1    6.00    4.80
  -2  11  -1    2.50    3.90
   4 -10   2    9.20    5.90
  -4  10  -2    2.30    4.50
  -4  10  -2    8.20    4.30
   6  -9   3   23.80    7.50
  -6   9  -3   15.60    5.20
  -6   9  -3   17.90    5.80
  -8   8  -4   19.00    6.80
  -8   8  -4   10.20    4.90
  -8   8  -4    4.80    5.70
   7  15   4   12.60    3.90
   7  15   4   16.30    4.40
  -5 -14  -3   81.09    9.80
   5  14   3   93.99    9.20
   5  14   3   91.19   13.60
  -3 -13  -2    5.90    4.20
   3  13   2   12.20    3.80
   3  13   2    7.10    5.00
  -1 -12  -1   27.60    5.30
  -1 -12  -1   27.70    6.90
   1  12   1   24.30    6.50
   1  12   1   26.90    5.20
   1 -11   0    5.40    3.40
  -1  11   0    1.90    3.40
  -1  11   0    1.20    4.30
   3 -10   1    9.10    4.20
   3 -10   1    8.10    5.60
  -3  10  -1   15.60    4.70
   5  -9   2   45.00    9.20
  -5   9  -2   51.99    7.80
  -5   9  -2   43.60    7.70
   7  -8   3    8.60    6.90
  -7   8  -3   -1.30    3.70
  -9   7  -4    6.80    5.40
  -9   7  -4   -4.20    4.10
   8  15   5    5.10    4.30
   6  14   4   10.00    3.70
   6  14   4   13.70    3.80
   6  14   4    8.20    5.30
  -4 -13  -3   44.00    6.30
   4  13   3   34.30    7.60
   4  13   3   40.40    5.70
  -2 -12  -2    8.30    4.00
   2  12   2    8.10    4.80
   2  12   2   13.90    3.70
   0 -11  -1  117.19   14.20
   0 -11  -1   92.29   10.60
   0  11   1  126.79   12.40
   0  11   1  109.89   10.80
   2 -10   0   61.79    8.10
   2 -10   0   76.39   10.10
  -2  10   0   61.89    9.70
   4  -9   1   28.90    5.80
   4  -9   1   27.40    7.20
  -4   9  -1   41.40    7.00
  -4   9  -1   44.80    6.60
   6  -8   2   20.30    6.40
  -6   8  -2   19.40    5.10
  -6   8  -2   23.90    5.90
   8  -7   3   11.50    6.90
  -8   7  -3    6.90    5.70
  -8   7  -3    6.10    4.30
   9  15   6   30.80    6.10
   7  14   5    8.20    5.30
   7  14   5   10.80    3.90
   7  14   5   10.80    3.50
  -5 -13  -4   28.50    5.40
   5  13   4   14.90    6.20
   5  13   4   28.50    4.30
  -3 -12  -3   66.29    8.20
   3  12   3   71.09    7.40
   3  12   3   63.09    9.50
  -1 -11  -2    3.50    4.50
  -1 -11  -2    5.00    3.20
   1  11   2    4.00    2.70
   1  11   2    8.30    4.50
   1 -10  -1    6.40    3.40
   1 -10  -1    0.00    4.60
  -1  10   1    5.70    4.50
  -1  10   1   10.10    3.20
   3  -9   0   34.10    5.60
   3  -9   0   27.50    6.80
  -3   9   0   43.20    6.80
   5  -8   1   46.80    8.30
  -5   8  -1   44.10    7.20
  -5   8  -1   54.69    7.60
   7  -7   2    5.00    5.00
  -7   7  -2    5.10    5.20
  -7   7  -2   -2.80    3.40
  -9   6  -3    7.70    4.80
  -9   6  -3    5.70    5.60
   8  14   6   12.50    3.80
   8  14   6   21.60    6.70
   8  14   6   12.70    4.30
   6  13   5   52.29    6.30
   6  13   5   59.29    7.00
   6  13   5   69.69   12.70
   6  13   5   68.09    9.80
  -4 -12  -4  181.98   16.40
  -4 -12  -4  169.48   18.10
   4  12   4  186.78   17.90
   4  12   4  178.98   16.10
  -2 -11  -3  200.68   18.00
  -2 -11  -3  205.28   19.80
   2  11   3  210.18   20.00
   2  11   3  196.78   18.00
   0 -10  -2  161.58   15.40
   0 -10  -2  139.49   13.60
   0  10   2  145.89   13.70
   0  10   2  157.18   14.90
   2  -9  -1  220.38   18.90
   2  -9  -1  168.68   17.40
  -2   9   1  188.48   17.70
  -2   9   1  211.98   18.60
   4  -8   0   95.79   11.50
   4  -8   0   85.69   10.20
  -4   8   0  113.79   10.80
  -4   8   0  110.99   11.00
   6  -7   1   16.40    5.20
  -6   7  -1   11.90    4.60
  -6   7  -1   13.00    4.30
   8  -6   2   22.90    6.90
  -8   6  -2   16.50    4.90
  -8   6  -2   23.90    5.90
 -10   5  -3   10.70    4.30
   9  14   7   -1.90    3.40
   9  14   7    1.80    3.60
   7  13   6    5.70    4.90
   7  13   6    4.40    3.20
   7  13   6    4.70    2.60
  -5 -12  -5   42.10    8.00
   5  12   5   48.50    8.20
   5  12   5   55.99    6.30
  -3 -11  -4  109.59   10.80
  -3 -11  -4   97.79   12.40
   3  11   4  127.49   10.80
  -1 -10  -3  166.68   16.80
  -1 -10  -3  158.48   15.30
   1  10   3  168.88   16.60
   1  10   3  189.58   15.40
   1  -9  -2    3.90    4.10
   1  -9  -2    9.10    3.10
  -1   9   2    5.00    3.40
  -1   9   2   12.70    3.30
   3  -8  -1    7.80    4.30
   3  -8  -1    7.90    3.30
  -3   8   1    9.90    3.90
  -3   8   1   10.50    3.70
   5  -7   0    3.70    4.40
  -5   7   0    2.80    3.30
  -5   7   0   -0.20    3.50
   7  -6   1    5.70    4.30
  -7   6  -1    3.70    3.70
  -7   6  -1    9.10    4.80
   9  -5   2    8.10    5.80
  -9   5  -2    4.90    4.50
  10  14   8    0.50    5.70
  10  14   8   10.10    4.70
  10  14   8    6.00    3.60
   8  13   7    3.70    4.60
   8  13   7    8.80    3.20
   8  13   7    9.30    3.60
  -6 -12  -6    1.20    3.80
   6  12   6   -2.10    2.20
   6  12   6    0.30    3.90
  -4 -11  -5   45.00    7.90
  -4 -11  -5   39.00    5.60
   4  11   5   45.30    4.90
  -2 -10  -4   49.50    5.60
  -2 -10  -4   45.10    7.50
   2  10   4   45.70    7.40
   2  10   4   55.89    5.50
   0  -9  -3   32.20    4.60
   0  -9  -3   27.50    5.90
   0   9   3   40.10    4.70
   0   9   3   39.10    5.90
   2  -8  -2   96.19   10.40
   2  -8  -2   82.79    9.30
  -2   8   2  105.09   10.20
  -2   8   2  103.99    9.50
   4  -7  -1    5.30    3.90
   4  -7  -1    7.00    3.00
  -4   7   1    5.00    3.10
  -4   7   1    9.30    3.70
   6  -6   0   57.59    7.70
   6  -6   0   57.29    8.40
  -6   6   0   74.39    9.30
  -6   6   0   55.59    7.40
   8  -5   1   35.20    6.10
  -8   5  -1   27.00    5.60
  -8   5  -1   32.80    7.00
 -10   4  -2    4.70    5.60
 -10   4  -2    8.40    4.10
   9  13   8   48.70    6.20
   9  13   8   38.80    8.00
   9  13   8   47.70    6.60
   7  12   7  105.59   11.20
   7  12   7  119.59   10.90
   7  12   7  123.99   13.00
  -5 -11  -6   35.30    7.40
   5  11   6   38.90    5.00
   5  11   6   54.69    5.60
  -3 -10  -5  175.38   15.40
  -3 -10  -5  162.98   16.80
   3  10   5  175.88   16.80
   3  10   5  178.18   15.30
  -1  -9  -4   77.19    7.50
  -1  -9  -4   78.19    8.90
   1   9   4   74.69    7.40
   1   9   4   81.89    8.60
   1  -8  -3   94.59    9.30
   1  -8  -3   77.09    7.90
  -1   8   3   80.39    8.00
  -1   8   3   80.19    8.80
   3  -7  -2   42.50    6.90
   3  -7  -2   46.30    5.40
  -3   7   2   47.40    6.70
  -3   7   2   48.00    6.00
   5  -6  -1   14.30    4.00
   5  -6  -1    6.60    4.00
  -5   6   1    6.80    3.80
  -5   6   1   10.20    4.20
   7  -5   0    0.70    3.80
  -7   5   0    1.10    3.70
  -7   5   0   -2.30    3.40
   9  -4   1    4.90    4.50
  -9   4  -1   -1.90    4.40
  -9   4  -1    1.90    4.10
  10  13   9   16.80    4.60
  10  13   9   18.90    7.10
  10  13   9   16.00    4.80
   8  12   8    8.80    5.20
   8  12   8    1.90    2.40
   8  12   8    5.80    5.90
  -6 -11  -7    6.60    4.60
   6  11   7    5.20    2.20
   6  11   7    9.60    2.70
  -4 -10  -6   56.49    8.60
  -4 -10  -6   64.19    6.60
   4  10   6   73.09    8.20
  -2  -9  -5  226.68   20.80
  -2  -9  -5  227.78   19.60
   2   9   5  236.28   19.70
   2   9   5  212.78   20.60
   0  -8  -4   14.20    3.90
   0  -8  -4   17.40    3.10
   0   8   4   16.40    2.90
   0   8   4    6.50    3.50
   2  -7  -3  128.29   12.50
   2  -7  -3  142.59   13.50
  -2   7   3  137.39   12.50
  -2   7   3  146.39   13.20
   4  -6  -2  194.68   19.50
   4  -6  -2  246.58   20.10
  -4   6   2  220.98   19.60
  -4   6   2  218.98   19.80
   6  -5  -1   63.29    8.40
   6  -5  -1   68.29    8.10
  -6   5   1   69.69    8.00
  -6   5   1   76.09    8.20
   8  -4   0   14.80    4.60
  -8   4   0   16.40    4.90
  -8   4   0   13.50    5.30
 -10   3  -1   17.40    4.70
   9  12   9   34.00    6.80
   9  12   9   14.40    7.50
   9  12   9   27.80    4.60
  -7 -11  -8   36.20    7.50
   7  11   8   43.90    5.00
   7  11   8   50.99    5.20
  -5 -10  -7   21.50    5.20
   5  10   7   31.10    5.50
   5  10   7   26.10    3.60
   5  10   7   30.20    3.50
  -3  -9  -6   65.99    8.30
  -3  -9  -6   52.29    5.50
   3   9   6   54.69    6.90
   3   9   6   54.99    5.30
  -1  -8  -5   45.20    6.40
  -1  -8  -5   31.60    4.00
   1   8   5   41.80    5.80
   1  -7  -4   70.29    7.30
   1  -7  -4   90.89    8.60
  -1   7   4   80.49    8.30
  -1   7   4   74.89    7.40
   3  -6  -3   27.80    5.20
   3  -6  -3   27.00    4.50
  -3   6   3   31.10    4.50
  -3   6   3   35.80    5.10
   5  -5  -2    8.60    3.50
   5  -5  -2   15.90    4.20
  -5   5   2   12.40    3.90
  -5   5   2   18.60    4.00
   7  -4  -1    5.40    3.70
   7  -4  -1    3.30    3.60
  -7   4   1    4.40    3.90
  -7   4   1    3.90    3.70
   9  -3   0   47.30    6.90
  -9   3   0   47.50    6.80
  -9   3   0   47.80    8.30
 -11   2  -1   13.30    6.80
 -11   2  -1   13.60    4.30
  10  12  10   31.80    8.40
  10  12  10   37.10    5.50
  10  12  10   34.10    5.10
  10  12  10   25.80    7.10
   8  11   9    2.10    2.30
   8  11   9    4.80    2.50
   8  11   9    0.70    5.20
  -6 -10  -8    3.70    4.10
   6  10   8    9.80    2.30
   6  10   8    8.70    2.30
   6  10   8    8.90    4.20
  -4  -9  -7    3.70    3.40
   4   9   7    2.70    1.50
   4   9   7    0.10    2.80
  -2  -8  -6  223.78   20.40
  -2  -8  -6  229.78   19.10
   2   8   6  218.68   20.10
   2   8   6  220.28   19.10
   0  -7  -5  148.39   12.00
   0  -7  -5  127.39   12.90
   0   7   5  125.99   12.70
   2  -6  -4   50.29    5.80
   2  -6  -4   57.39    6.80
  -2   6   4   62.29    6.60
  -2   6   4   59.39    5.90
   4  -5  -3  108.99   11.30
   4  -5  -3  106.89   10.80
  -4   5   3  124.29   11.10
  -4   5   3  115.79   10.90
   6  -4  -2   92.69    9.30
   6  -4  -2   77.29    8.90
  -6   4   2   85.39    9.00
  -6   4   2   82.69    9.00
   8  -3  -1   18.00    4.70
  -8   3   1   25.80    5.80
  -8   3   1   15.00    4.90
  10  -2   0   -1.90    4.30
 -10   2   0    3.60    4.10
 -10   2   0    0.00    4.70
  11  12  11    0.20    3.20
  11  12  11    5.50    5.60
  11  12  11   10.80    7.90
  11  12  11    1.20    4.00
   9  11  10    6.20    2.70
   9  11  10    6.00    2.90
   9  11  10    8.40    6.10
  -7 -10  -9    3.90    3.90
   7  10   9    4.90    2.10
   7  10   9    6.50    2.00
   7  10   9    1.80    3.40
  -5  -9  -8   73.49    9.00
   5   9   8   63.99    5.90
   5   9   8   53.79    7.30
   5   9   8   66.59    5.90
  -3  -8  -7  120.19   10.40
  -3  -8  -7  113.69   11.80
   3   8   7  122.89   10.30
   3   8   7  115.19   11.60
  -1  -7  -6   29.90    3.20
  -1  -7  -6   29.10    5.00
   1   7   6   24.90    4.60
   1   7   6   26.60    3.10
   1  -6  -5  174.28   15.40
   1  -6  -5  182.78   16.40
  -1   6   5  168.28   16.10
  -1   6   5  184.58   15.50
   3  -5  -4  241.68   19.50
   3  -5  -4  215.38   18.90
  -3   5   4  182.98   18.80
  -3   5   4  230.18   19.30
   5  -4  -3   46.90    6.60
   5  -4  -3   54.39    6.90
  -5   4   3   56.39    6.80
  -5   4   3   61.89    7.00
   7  -3  -2    5.40    3.60
  -7   3   2   -2.20    5.00
  -7   3   2    6.30    4.10
   9  -2  -1    5.50    3.60
  -9   2   1    5.20    4.30
  -9   2   1    5.20    4.30
 -11   1   0   22.90    5.20
 -11   1   0   22.80    7.70
  10  11  11   30.10    7.00
  10  11  11   30.70    4.70
  10  11  11   20.30    7.50
   8  10  10   57.59    6.00
   8  10  10   73.59    8.10
  -6  -9  -9    3.00    3.40
   6   9   9    5.10    3.30
   6   9   9    5.20    1.60
   6   9   9    6.30    1.60
  -4  -8  -8   10.00    3.70
   4   8   8    8.60    3.20
  -2  -7  -7   10.80    1.80
  -2  -7  -7    8.00    3.40
   2   7   7    9.50    1.60
   2   7   7   11.80    3.30
   0  -6  -6   49.80    6.20
   0  -6  -6   50.89    4.90
   0   6   6   56.79    6.00
   0   6   6   44.90    4.80
   2  -5  -5    5.70    2.40
   2  -5  -5    7.30    2.90
  -2   5   5    9.10    3.00
  -2   5   5    5.80    2.30
   4  -4  -4    4.50    2.90
   4  -4  -4    2.70    2.50
  -4   4   4    3.00    2.30
  -4   4   4    3.70    2.90
   6  -3  -3    3.40    3.10
   6  -3  -3    9.50    3.60
  -6   3   3   10.00    3.90
  -6   3   3   12.20    3.90
   8  -2  -2    5.20    3.60
  -8   2   2    9.30    4.50
  -8   2   2    9.10    4.60
  10  -1  -1   11.50    4.50
 -10   1   1   11.10    4.70
 -10   1   1   15.90    6.00
  11  11  12    3.60    3.40
  11  11  12   -1.70    3.30
  11  11  12   12.10    5.80
   9  10  11   67.29    9.10
   9  10  11   65.39    6.70
   9  10  11   71.59    6.70
   9  10  11   54.89    9.90
  -7  -9 -10   67.79    8.50
   7   9  10   58.39    7.50
   7   9  10   65.49    5.80
   7   9  10   56.89    5.70
  -5  -8  -9  133.59   13.20
   5   8   9  136.49   13.10
  -3  -7  -8  469.45   39.30
   3   7   8  439.86   39.10
  -1  -6  -7  225.08   19.30
  -1  -6  -7  222.88   18.20
   1   6   7  207.08   19.10
   1   6   7  205.38   18.20
   1  -5  -6   43.80    5.00
   1  -5  -6   61.29    7.90
  -1   5   6   58.39    6.60
  -1   5   6   48.70    5.00
   3  -4  -5   58.59    6.80
   3  -4  -5   56.39    6.00
  -3   4   5   57.19    5.80
  -3   4   5   54.79    6.30
   5  -3  -4   76.49    7.90
   5  -3  -4   66.89    7.40
  -5   3   4   68.99    7.50
  -5   3   4   76.09    7.90
   7  -2  -3   29.60    5.50
   7  -2  -3   32.30    5.70
  -7   2   3   32.50    5.60
  -7   2   3   38.60    6.10
   9  -1  -2    7.50    4.10
  -9   1   2    2.50    4.40
  -9   1   2    8.60    4.90
  11   0  -1   13.60    5.10
 -11   0   1    1.90    5.00
 -11   0   1   18.40    5.50
  10  10  12    0.20    2.70
  10  10  12    0.50    3.60
  10  10  12    7.20    5.30
  10  10  12    2.10    3.00
  -8  -9 -11   14.90    4.70
   8   9  11   19.60    4.50
   8   9  11   14.30    3.20
   8   9  11   18.20    3.00
  -6  -8 -10   75.29    8.10
   6   8  10   59.69    7.40
  -4  -7  -9    5.50    3.00
   4   7   9    4.50    3.00
  -2  -6  -8    0.80    2.80
   2   6   8    2.90    2.50
   0  -5  -7  320.57   24.70
   0  -5  -7  249.58   21.70
   0   5   7  236.08   22.30
   0   5   7  251.27   21.60
   2  -4  -6  133.09   13.90
   2  -4  -6  127.19   11.00
  -2   4   6  117.49   11.50
  -2   4   6  120.39   11.00
   4  -3  -5  184.08   16.80
   4  -3  -5  202.08   17.20
  -4   3   5  188.58   17.00
  -4   3   5  183.48   16.80
   6  -2  -4   68.79    7.80
   6  -2  -4   55.09    7.30
  -6   2   4   75.49    8.20
  -6   2   4   64.49    7.20
   8  -1  -3   57.99    7.80
  -8   1   3   70.89    9.20
  -8   1   3   61.49    8.20
  10   0  -2   33.80    6.50
 -10   0   2   50.59    7.70
 -10   0   2   48.10    7.30
  12   1  -1    2.50    5.40
 -12  -1   1    7.40    6.40
  11  10  13    4.00    3.20
  11  10  13    7.00    3.90
  11  10  13    5.10    4.80
   9   9  12   26.70    4.90
   9   9  12   23.00    3.70
  -7  -8 -11   70.39    9.40
   7   8  11  100.09    8.00
   7   8  11   87.09    8.10
   7   8  11   89.79    9.40
  -5  -7 -10  112.99   11.40
   5   7  10  116.39   11.00
  -3  -6  -9   68.19    8.90
   3   6   9   40.40    5.40
  -1  -5  -8   83.29    8.20
  -1  -5  -8   80.19    6.70
   1   5   8   68.29    6.60
   1   5   8   81.29    7.90
   1  -4  -7   13.10    2.20
   1  -4  -7    4.80    3.10
  -1   4   7   10.90    3.10
  -1   4   7    5.10    2.00
   3  -3  -6   50.09    8.30
   3  -3  -6   38.20    5.00
  -3   3   6   52.09    5.60
  -3   3   6   46.00    5.00
   5  -2  -5  149.09   12.90
   5  -2  -5  125.09   12.40
  -5   2   5  125.89   12.50
  -5   2   5  142.39   12.80
   7  -1  -4   12.40    4.10
   7  -1  -4    7.80    4.00
  -7   1   4   21.50    4.70
   9   0  -3    2.90    4.30
  -9   0   3    0.80    4.20
  -9   0   3    4.50    4.60
  11   1  -2    7.70    4.70
 -11  -1   2   -1.60    5.40
 -11  -1   2   13.30    5.40
  10   9  13   28.40    6.70
  10   9  13   45.90    5.70
  10   9  13   40.20    5.60
  -8  -8 -12   34.50    6.00
   8   8  12   46.20    5.10
   8   8  12   35.40    4.40
   8   8  12   54.49    6.60
  -6  -7 -11   47.20    6.70
   6   7  11   52.09    6.60
   4   6  10  131.59   12.30
  -2  -5  -9   93.59    9.60
   2   5   9  103.69    9.60
   0  -4  -8  162.58   14.90
   0  -4  -8  166.38   14.10
   0   4   8  163.38   14.10
   0   4   8  162.78   14.80
   2  -3  -7  229.08   20.10
  -2   3   7  218.78   20.00
  -2   3   7  253.67   20.50
   4  -2  -6  274.77   24.60
   4  -2  -6  297.47   25.00
  -4   2   6  285.37   24.80
  -4   2   6  280.67   24.60
   6  -1  -5  116.39   11.90
   6  -1  -5  114.89   11.80
  -6   1   5  130.69   11.80
  -6   1   5  131.39   12.10
   8   0  -4    9.00    4.20
   8   0  -4   -0.30    2.40
  -8   0   4   10.20    4.30
  -8   0   4    4.70    4.80
  10   1  -3    5.60    4.60
 -10  -1   3    6.90    4.90
 -10  -1   3    2.80    5.00
  12   2  -2   -0.90    5.30
 -12  -2   2   11.20    6.60
  11   9  14    7.50    4.60
  11   9  14    3.30    3.80
  11   9  14   -0.30    4.50
   9   8  13    3.20    2.60
   9   8  13    5.70    3.40
  -7  -7 -12   81.09    9.70
   7   7  12   88.39    7.70
   7   7  12   85.99    9.20
  -5  -6 -11   -0.50    2.60
   5   6  11   -0.40    2.80
  -3  -5 -10   72.89    8.00
   3   5  10   80.79    7.90
  -1  -4  -9  220.98   18.70
  -1  -4  -9  218.28   19.60
   1   4   9  224.08   19.50
   1  -3  -8  374.26   30.70
   1  -3  -8  359.66   31.30
  -1   3   8  337.87   31.10
  -1   3   8  374.96   30.70
   3  -2  -7   90.29    8.60
   3  -2  -7   91.39    9.20
  -3   2   7   87.29    9.10
  -3   2   7   94.89    8.50
   5  -1  -6   56.59    6.80
   5  -1  -6   54.29    6.30
  -5   1   6   57.99    7.00
  -5   1   6   59.99    6.30
   7   0  -5   69.39    8.40
   7   0  -5   69.89    8.50
  -7   0   5   93.69   10.00
   9   1  -4    7.90    4.60
  -9  -1   4    7.60    5.10
  -9  -1   4    9.10    5.20
  11   2  -3    3.50    5.20
 -11  -2   3   -4.30    4.80
 -11  -2   3   -2.60    5.20
  10   8  14   26.30    5.50
  10   8  14   35.70    6.70
  -8  -7 -13  102.49   12.50
   8   7  13  152.28   11.80
   8   7  13  130.29   12.50
  -6  -6 -12   27.10    4.90
   6   6  12   35.80    5.20
  -4  -5 -11   10.10    3.10
   4   5  11   13.00    3.10
  -2  -4 -10  176.28   16.10
   2   4  10  181.28   16.00
   0  -3  -9    0.40    1.70
   0  -3  -9    5.00    2.90
   0   3   9    3.90    2.80
   2  -2  -8  200.28   18.70
   2  -2  -8  206.08   17.20
  -2   2   8  197.78   17.10
  -2   2   8  185.48   17.60
   4  -1  -7   92.69    9.30
   4  -1  -7  105.39    9.80
  -4   1   7   93.99    9.30
  -4   1   7   99.89    9.90
   6   0  -6    3.60    3.60
   6   0  -6    7.90    3.70
  -6   0   6   15.40    3.90
  -6   0   6   11.40    4.50
   8   1  -5    3.00    3.80
  -8  -1   5    0.70    4.60
  -8  -1   5   -0.70    3.70
  10   2  -4   24.30    6.10
 -10  -2   4   34.50    7.00
 -10  -2   4   31.80    6.40
  12   3  -3    1.00    6.00
  -9  -7 -14    9.50    2.90
   9   7  14   11.40    3.40
   9   7  14    7.80    4.00
  -7  -6 -13   20.20    4.50
  -7  -6 -13   31.50    3.40
   7   6  13   31.40    3.50
   7   6  13   33.50    5.00
  -5  -5 -12   67.59    7.60
   5   5  12   73.79    7.40
  -3  -4 -11  123.39   11.50
   3   4  11  120.99   11.40
  -1  -3 -10  409.16   32.10
  -1  -3 -10  388.46   32.10
  -1  -3 -10  346.87   32.70
   1   3  10  373.76   32.80
   1  -2  -9  811.02   62.89
  -1   2   9  681.03   63.19
   3  -1  -8   48.50    6.00
   3  -1  -8   53.99    5.60
  -3   1   8   47.50    6.50
  -3   1   8   48.30    5.30
   5   0  -7   84.69    9.00
   5   0  -7   81.89    8.50
  -5   0   7   86.69    9.20
  -5   0   7   90.09    8.60
   7   1  -6    1.90    3.60
   7   1  -6    2.40    3.80
  -7  -1   6    5.10    4.80
   9   2  -5    1.80    4.20
  -9  -2   5   -2.20    4.00
  -9  -2   5    2.10    5.20
  11   3  -4   -3.90    5.10
 -11  -3   4    3.20    5.20
 -10  -7 -15    1.20    2.70
  -8  -6 -14    7.20    3.30
  -8  -6 -14   12.90    3.30
   8   6  14   14.50    4.10
   8   6  14   16.20    3.20
  -6  -5 -13   14.60    2.40
  -6  -5 -13   10.00    3.30
   6   5  13   16.30    3.90
   6   5  13   16.70    2.30
  -4  -4 -12   88.49    8.60
   4   4  12   81.89    8.50
  -2  -3 -11    8.80    1.60
  -2  -3 -11    6.70    2.90
  -2  -3 -11   10.70    1.70
   2   3  11    7.70    3.20
   0  -2 -10    1.20    1.80
   0  -2 -10    2.50    3.10
   0  -2 -10    1.40    1.80
   0   2  10   -0.40    3.10
   2  -1  -9    0.70    2.80
   2  -1  -9    1.20    2.10
  -2   1   9   -1.30    2.10
  -2   1   9   -3.90    3.00
   4   0  -8   14.20    3.60
   4   0  -8    4.20    2.60
  -4   0   8   14.20    4.10
  -4   0   8   10.00    3.00
   6   1  -7  175.58   16.80
   6   1  -7  172.78   16.90
  -6  -1   7  184.88   16.70
  -6  -1   7  205.48   17.50
   8   2  -6   65.79    9.00
  -8  -2   6   71.09    8.90
  -8  -2   6   84.79   10.40
  10   3  -5   27.10    6.60
 -10  -3   5   33.70    6.50
  12   4  -4    7.80    6.70
 -12  -4   4   28.50    9.30
 -11  -7 -16    1.20    3.20
  11   7  16    7.30    4.40
  -9  -6 -15   -1.10    2.60
   9   6  15    3.90    3.30
   9   6  15    1.60    2.80
  -7  -5 -14   29.40    4.80
  -7  -5 -14   37.40    4.40
   7   5  14   39.60    5.50
   7   5  14   36.00    4.40
  -5  -4 -13   53.09    5.40
  -5  -4 -13   66.79    6.50
   5   4  13   56.09    6.50
   5   4  13   56.79    5.40
  -3  -3 -12   52.19    4.70
  -3  -3 -12   52.89    5.80
   3   3  12   57.19    6.00
   3   3  12   41.10    4.60
  -1  -2 -11   56.69    5.20
  -1  -2 -11   50.19    6.30
  -1  -2 -11   52.29    5.10
   1   2  11   53.69    6.30
   1  -1 -10   89.69    8.00
   1  -1 -10   90.09    8.30
   1  -1 -10   78.09    8.70
  -1   1  10   80.59    8.80
   3   0  -9   75.39    7.50
   3   0  -9   71.09    7.80
  -3   0   9   70.39    7.10
  -3   0   9   68.59    8.00
   5   1  -8    3.50    3.50
   5   1  -8    1.50    2.80
  -5  -1   8    1.60    4.20
  -5  -1   8    1.60    2.80
   7   2  -7    6.20    4.40
   7   2  -7    3.20    3.90
  -7  -2   7   10.60    5.40
  -7  -2   7   14.70    4.60
   9   3  -6    5.30    4.90
  -9  -3   6    0.40    4.30
  11   4  -5   -6.50    5.50
 -11  -4   5    9.60    7.60
 -11  -4   5   -5.60    5.30
 -10  -6 -16   12.60    3.70
  10   6  16   11.80    4.10
  -8  -5 -15  104.49    8.80
  -8  -5 -15   73.99    9.00
   8   5  15   96.99    8.90
  -6  -4 -14  108.19    8.90
  -6  -4 -14   79.09    9.40
   6   4  14   95.69    9.50
   6   4  14  100.09    8.90
  -4  -3 -13   58.59    5.50
  -4  -3 -13   55.39    6.60
   4   3  13   60.09    5.50
   4   3  13   53.09    6.50
  -2  -2 -12  131.29   11.70
  -2  -2 -12  135.59   12.60
   2   2  12  137.29   11.80
   2   2  12  135.29   12.50
   0  -1 -11   54.79    5.60
   0  -1 -11   56.49    5.60
   0  -1 -11   57.69    6.70
   0   1  11   55.79    7.10
   2   0 -10    4.20    3.70
   2   0 -10   17.60    3.10
   2   0 -10   12.10    3.00
  -2   0  10    2.60    3.90
   4   1  -9   12.60    3.30
   4   1  -9   12.80    4.30
  -4  -1   9   13.30    5.00
   6   2  -8   25.20    5.60
   6   2  -8   31.60    5.40
  -6  -2   8   38.00    5.60
  -6  -2   8   49.10    7.20
   8   3  -7   19.10    5.40
  -8  -3   7   23.50    6.90
  -8  -3   7   20.10    5.30
  10   4  -6    4.60    5.70
 -10  -4   6   20.30    6.90
 -10  -4   6   25.40    6.10
  -9  -5 -16    2.10    3.10
   9   5  16    3.90    3.50
  -7  -4 -15   -3.20    2.50
  -7  -4 -15    0.30    2.60
   7   4  15    3.70    2.60
   7   4  15    0.20    4.00
  -5  -3 -14   17.40    3.10
  -5  -3 -14    9.20    3.40
   5   3  14   17.70    3.90
   5   3  14   16.30    2.80
  -3  -2 -13   75.29    8.40
  -3  -2 -13   83.19    7.60
   3   2  13   88.79    7.60
   3   2  13   78.09    8.50
  -1  -1 -12   78.99    8.90
  -1  -1 -12   91.79    8.00
   1   1  12   90.59    9.10
   1   0 -11   63.29    6.10
   1   0 -11   59.59    6.10
   1   0 -11   54.69    6.90
  -1   0  11   55.19    7.20
   3   1 -10  294.37   25.10
   3   1 -10  277.97   24.60
   3   1 -10  282.17   24.60
  -3  -1  10  277.87   25.20
   5   2  -9  114.99   12.20
   5   2  -9  135.49   11.90
   5   2  -9  122.59   11.70
  -5  -2   9  107.19   12.40
   7   3  -8    9.80    4.20
   7   3  -8   15.50    5.30
  -7  -3   8   21.10    6.60
  -7  -3   8   11.10    4.70
   9   4  -7    5.50    5.40
  -9  -4   7    3.70    6.30
  -9  -4   7   15.60    5.40
 -11  -5   6   12.60    8.10
 -11  -5   6    3.20    6.10
 -10  -5 -17    1.10    3.50
  10   5  17   -3.00    3.80
  -8  -4 -16   63.19    6.40
  -8  -4 -16   43.30    5.90
   8   4  16   59.09    6.20
   8   4  16   67.69    7.30
  -6  -3 -15   82.49    7.40
  -6  -3 -15   57.29    7.50
   6   3  15   78.39    7.90
   6   3  15   73.79    7.30
  -4  -2 -14   31.70    5.30
  -4  -2 -14   45.30    5.60
   4   2  14   35.50    4.40
   4   2  14   36.20    5.70
  -2  -1 -13    9.40    3.50
   2   1  13   11.60    4.10
   2   1  13   15.90    2.80
   0   0 -12   38.40    4.80
   0   0 -12   37.40    4.70
   0   0 -12   54.09    6.00
   0   0  12   43.90    6.20
   2   1 -11    7.20    3.80
   2   1 -11   18.00    3.30
   2   1 -11   12.90    3.20
  -2  -1  11   11.40    4.40
   4   2 -10   28.30    4.70
   4   2 -10   24.70    5.60
   4   2 -10   29.20    4.90
  -4  -2  10   25.40    5.80
   6   3  -9   11.10    5.10
   6   3  -9    4.10    3.40
  -6  -3   9    8.10    5.50
   8   4  -8   74.69   10.80
   8   4  -8   66.59   12.10
  -8  -4   8  101.49   12.40
  10   5  -7   11.10    7.10
 -10  -5   7   23.40    8.80
  -9  -4 -17   20.70    4.50
   9   4  17   21.10    5.00
  -7  -3 -16   27.00    4.50
  -7  -3 -16   44.20    5.30
  -5  -2 -15   10.50    3.20
  -5  -2 -15   10.90    3.70
   5   2  15   10.20    2.90
   5   2  15   10.20    4.10
  -3  -1 -14   32.50    5.50
   3   1  14   39.40    5.90
   3   1  14   48.50    4.90
  -1   0 -13  480.25   42.20
  -1   0 -13  488.85   41.60
   1   0  13  495.55   42.30
   1   0  13  498.75   41.70
   1   1 -12  250.97   21.00
   1   1 -12  227.08   21.60
   1   1 -12  253.87   21.10
  -1  -1  12  226.28   21.70
   3   2 -11  178.88   15.20
   3   2 -11  164.88   15.80
   3   2 -11  169.58   15.20
  -3  -2  11  148.59   15.90
   5   3 -10   91.99    9.70
   5   3 -10  100.89   10.10
   5   3 -10   84.69   10.60
  -5  -3  10  104.29   11.20
   7   4  -9   39.80    7.00
   7   4  -9   15.40    4.80
  -7  -4   9   33.90    7.50
   9   5  -8    4.50    6.20
   9   5  -8   -6.60    4.90
  -9  -5   8    6.90    6.60
  11   6  -7    1.80    7.40
 -11  -6   7    3.10    7.70
 -10  -4 -18    9.00    4.40
  10   4  18    7.20    5.00
  -8  -3 -17   16.30    4.20
   8   3  17   12.80    4.00
  -6  -2 -16    9.90    3.60
  -6  -2 -16    2.90    3.10
   6   2  16    3.80    3.20
   6   2  16    1.40    3.50
  -4  -1 -15    4.00    2.90
   4   1  15    4.40    3.00
   4   1  15    2.00    3.60
  -2   0 -14   50.79    6.00
  -2   0 -14   59.09    7.20
   2   0  14   64.89    6.30
   2   0  14   56.19    7.20
   0   1 -13   22.30    4.80
   0   1 -13   31.50    4.30
   0  -1  13   21.70    5.40
   0  -1  13   21.80    4.40
   2   2 -12   55.69    6.20
   2   2 -12   53.79    6.30
   2   2 -12   52.89    7.50
  -2  -2  12   53.29    7.70
   4   3 -11   36.50    5.60
   4   3 -11   30.50    5.80
   4   3 -11   41.30    6.90
  -4  -3  11   64.19    8.30
   6   4 -10   12.10    4.60
   6   4 -10    8.10    5.00
  -6  -4  10    7.30    6.10
   8   5  -9   16.40    6.30
   8   5  -9   15.90    6.70
  -8  -5   9   29.30    8.20
  10   6  -8   20.90    7.90
 -10  -6   8   11.60    8.80
  -9  -3 -18    4.20    3.90
   9   3  18    5.10    4.50
  -7  -2 -17   13.10    3.60
  -7  -2 -17   30.20    4.90
   7   2  17   28.60    5.10
  -5  -1 -16   11.80    3.70
  -5  -1 -16    5.50    4.00
   5   1  16    2.40    3.10
   5   1  16    2.60    3.90
  -3   0 -15   26.70    5.40
  -3   0 -15   36.20    4.90
   3   0  15   39.20    5.40
   3   0  15   36.50    6.10
  -1   1 -14   99.29   10.10
  -1   1 -14   99.49    9.30
   1  -1  14  106.59   10.60
   1  -1  14   87.99    9.60
   1   2 -13  216.38   19.30
   1   2 -13  190.18   18.30
  -1  -2  13  224.88   19.50
   3   3 -12    0.20    3.50
   3   3 -12    3.00    3.60
   3   3 -12   -3.10    3.90
  -3  -3  12    3.10    5.00
   5   4 -11   24.00    6.30
   5   4 -11   21.80    5.00
   5   4 -11   25.40    5.60
  -5  -4  11   16.00    6.70
   7   5 -10   13.60    6.10
   7   5 -10   26.10    6.40
  -7  -5  10   12.50    7.10
   9   6  -9    1.50    5.90
  -9  -6   9   17.30    9.20
  -8  -2 -18   14.00    4.80
   8   2  18   14.70    5.20
  -6  -1 -17   78.49    8.80
  -6  -1 -17   93.09    9.00
   6   1  17   79.59    9.20
   6   1  17   87.89    9.10
  -4   0 -16  104.99   10.90
   4   0  16  112.39   10.70
   4   0  16  111.79   11.40
  -2   1 -15  100.89   10.30
  -2   1 -15  104.19   11.00
   2  -1  15  123.09   11.60
   2  -1  15  113.89   10.60
   0   2 -14  156.28   14.30
   0   2 -14  159.78   15.30
   0  -2  14  159.78   14.60
   0  -2  14  155.98   15.50
   2   3 -13   12.60    3.80
   2   3 -13   10.60    5.00
   2   3 -13   12.30    3.80
  -2  -3  13   17.90    5.80
   4   4 -12    8.30    5.10
   4   4 -12   12.70    4.40
   4   4 -12   21.80    5.40
  -4  -4  12   20.10    6.40
   6   5 -11    1.20    5.10
   6   5 -11   -1.60    3.50
   6   5 -11    4.50    4.60
  -6  -5  11    7.70    6.30
   8   6 -10   20.70    6.70
  -8  -6  10   19.90    8.90
  10   7  -9   -3.60    6.30
 -10  -7   9    5.90    9.00
  -9  -2 -19   -2.40    4.80
  -7  -1 -18    1.30    3.00
  -7  -1 -18    6.70    4.60
   7   1  18    5.50    4.60
   7   1  18   10.10    4.50
  -5   0 -17   16.40    4.70
  -5   0 -17   20.70    4.40
   5   0  17   28.50    5.60
   5   0  17   20.20    4.70
  -3   1 -16    1.60    3.30
  -3   1 -16    3.00    3.80
   3  -1  16    5.80    4.70
   3  -1  16    2.40    3.40
  -1   2 -15    3.60    4.00
  -1   2 -15    3.60    3.30
   1  -2  15    0.30    3.30
   1  -2  15    0.80    4.70
   1   3 -14   42.60    7.50
   1   3 -14   54.49    6.80
  -1  -3  14   56.89    7.10
  -1  -3  14   54.89    8.80
   3   4 -13   25.70    6.50
   3   4 -13   44.40    6.00
   3   4 -13   30.90    5.70
  -3  -4  13   33.40    7.70
   5   5 -12   59.89    7.70
   5   5 -12   54.69    8.10
  -5  -5  12   51.99    9.80
   7   6 -11   70.19    9.40
  -7  -6  11   53.69   10.40
   9   7 -10   16.10    7.20
  -9  -7  10   29.40    9.80
  -8  -1 -19   13.80    5.20
  -6   0 -18   29.70    5.60
   6   0  18   33.60    6.10
   6   0  18   34.40    6.40
  -4   1 -17   39.70    6.20
  -4   1 -17   35.10    6.30
   4  -1  17   48.30    7.50
   4  -1  17   51.79    6.90
  -2   2 -16   35.70    6.50
  -2   2 -16   48.20    6.00
   2  -2  16   30.90    6.10
   2  -2  16   37.40    7.20
   0   3 -15    1.80    4.20
   0   3 -15   -2.60    3.20
   0  -3  15    3.20    5.10
   0  -3  15    0.00    3.70
   2   4 -14    2.10    4.70
   2   4 -14   -0.30    3.60
   2   4 -14    1.00    3.70
  -2  -4  14   -0.60    5.10
   4   5 -13   -1.10    3.70
   4   5 -13   -1.00    4.30
  -4  -5  13   -7.20    5.90
   6   6 -12    6.10    5.40
  -6  -6  12    5.50    6.90
   8   7 -11   -0.90    5.80
  -8  -7  11   -0.70    7.90
  -7   0 -19   -0.80    3.30
  -7   0 -19    3.40    4.60
   7   0  19   -0.90    4.60
  -5   1 -18   28.30    5.70
  -5   1 -18   36.20    5.70
   5  -1  18   37.90    7.00
   5  -1  18   36.10    6.60
  -3   2 -17    0.90    3.70
  -3   2 -17    1.80    4.20
   3  -2  17   11.60    4.40
   3  -2  17    8.00    5.10
  -1   3 -16  126.29   12.00
  -1   3 -16  116.19   12.90
   1  -3  16  134.59   12.80
   1  -3  16  126.39   13.70
   1   4 -15   39.10    5.80
   1   4 -15    9.80    5.30
  -1  -4  15   20.10    5.40
  -1  -4  15   24.00    7.50
   3   5 -14   51.49    7.00
   3   5 -14   33.70    7.60
   3   5 -14   36.20    6.40
  -3  -5  14   50.09    9.20
   5   6 -13  146.09   14.70
  -5  -6  13  148.89   16.50
   7   7 -12   21.70    6.60
  -7  -7  12   23.00    9.40
   9   8 -11   10.70    7.50
  -9  -8  11   16.40    9.80
  -8   0 -20   10.60    5.30
   8   0  20    1.00    5.80
  -6   1 -19    1.00    3.90
  -6   1 -19    2.30    4.20
   6  -1  19    0.90    4.80
  -4   2 -18    6.20    6.60
  -4   2 -18   -2.80    4.30
   4  -2  18   -2.10    4.90
   4  -2  18   -2.80    4.10
  -2   3 -17   33.90    6.00
  -2   3 -17   30.60    6.40
   2  -3  17   28.50    7.10
   2  -3  17   32.10    6.40
   0   4 -16   66.39    8.80
   0   4 -16   44.80    8.50
   0  -4  16   71.59   10.60
   0  -4  16   52.49    8.00
   2   5 -15    9.40    5.50
   2   5 -15   14.40    4.70
  -2  -5  15    9.30    6.80
   4   6 -14   27.50    6.10
  -4  -6  14   25.50    8.40
   6   7 -13    5.80    5.30
  -6  -7  13   -4.20    7.10
   8   8 -12    6.90    6.60
  -8  -8  12    7.70    8.50
  -7   1 -20   11.40    5.00
  -7   1 -20   16.10    5.50
  -5   2 -19   -1.90    4.40
  -5   2 -19    1.90    4.10
   5  -2  19    0.50    4.90
   5  -2  19    3.60    5.30
  -3   3 -18    3.00    4.00
  -3   3 -18   -6.30    4.10
   3  -3  18    2.70    5.40
  -1   4 -17    0.00    4.00
   1  -4  17    4.70    5.70
   1  -4  17    0.50    5.70
   1   5 -16   21.30    5.20
   1   5 -16   21.60    6.80
  -1  -5  16   18.40    7.40
  -1  -5  16   29.10    6.10
   3   6 -15   22.00    5.90
  -3  -6  15   27.30    8.50
   5   7 -14    7.20    5.10
  -5  -7  14    3.20    7.80
   7   8 -13    3.60    5.80
  -7  -8  13    1.50    8.30
  -6   2 -20   25.60    5.70
  -6   2 -20   12.80    5.30
   6  -2  20   25.90    7.10
  -4   3 -19   33.60    6.10
  -4   3 -19   18.20    5.90
   4  -3  19   29.60    7.30
   4  -3  19   34.60    7.50
  -2   4 -18   65.59    9.00
   2  -4  18   65.89    9.90
   2  -4  18   85.19   11.70
   0   5 -17   77.19    9.80
   0   5 -17  102.89   12.10
   0  -5  17   99.39   13.00
   0  -5  17   96.29   11.00
   2   6 -16   70.99    9.60
  -2  -6  16   90.49   12.60
   4   7 -15    4.00    5.30
  -4  -7  15   15.30    8.30
  -5   3 -20   -2.40    4.80
  -5   3 -20    4.70    4.60
   5  -3  20    3.80    6.20
  -3   4 -19    1.70    4.40
   3  -4  19    5.80    6.30
  -1   5 -18   -5.30    4.60
  -1   5 -18   -0.60    4.40
   1  -5  18    5.90    6.70
   1   6 -17    0.60    4.50
  -1  -6  17    6.70    7.30
   3   7 -16   11.60    5.30
  -3  -7  16    5.90    7.50
  -4   4 -20   19.30    6.10
   4  -4  20   28.30    8.20
  -2   5 -19    8.70    5.00
   2  -5  19    9.30    7.40
   0   6 -18   42.50    7.50
   0  -6  18   62.39   10.80
   2   7 -17   13.90    5.50
  -2  -7  17   21.30    9.20
   6   9 -15   -5.40    5.60
  -6  -9  15    1.00    9.70
  -3   5 -20    0.10    4.90
   3  -5  20    6.00    7.30
  -1   6 -19   24.60    6.00
   1  -6  19   13.20    7.90
   1   7 -18    5.70    5.10
  -1  -7  18   -3.90    7.40
  -3  -8  17   18.30    9.60
   5   9 -16    1.10    5.90
  -5  -9  16    8.10   10.80
  -2   6 -20    6.50    5.40
   2  -6  20   16.40    9.00
   0  -7  19    5.70    8.10
   2   8 -18   10.40    6.10
  -2  -8  18   16.40    9.80
   4   9 -17   21.50    6.70
  -1   7 -20    7.90    5.80
   1  -7  20   23.70   10.20
   1   8 -19   -6.70    5.10
  -1  -8  19    9.10    9.50
   2  16  -1   12.00    4.90
   0  15  -2   28.10    8.30
  -2  14  -3   25.90    7.10
   3  16   0   -1.20    4.00
   3  16   0   -1.30    5.80
   1  15  -1    5.20    6.20
   1  15  -1    5.80    4.40
  -1  14  -2   12.90    4.90
  -1  14  -2    7.40    6.90
  -3  13  -3   13.10    5.70
  -3  13  -3   14.50    8.20
   4  16   1   -2.90    5.30
   4  16   1    3.00    3.60
   2  15   0    3.10    4.10
   0  14  -1   10.10    4.90
   0  14  -1   13.40    6.10
  -2  13  -2   17.10    7.20
  -2  13  -2   13.80    5.60
  -4  12  -3   11.40    6.60
  -4  12  -3   11.30    6.10
   5  16   2    5.20    7.00
   5  16   2    2.70    4.00
   3  15   1   79.99    9.90
   1  14   0   26.90    5.50
   1  14   0   23.30    8.70
  -1  13  -1   27.60    6.10
  -1  13  -1   26.70    8.10
  -3  12  -2   34.00    7.60
  -3  12  -2   25.70    6.60
  -5  11  -3   -0.60    5.20
  -5  11  -3    4.90    5.10
   6  16   3    4.50    4.40
   6  16   3    3.50    5.90
  -4 -15  -2   -3.30    4.40
   4  15   2    1.60    3.90
  -2 -14  -1    7.70    4.20
   2  14   1    4.20    3.40
   2  14   1   10.00    5.90
   0 -13   0    2.00    3.50
   0  13   0    5.00    5.20
   0  13   0    6.00    3.60
   2 -12   1    3.00    7.20
  -2  12  -1    9.70    5.00
  -2  12  -1    5.60    5.00
   4 -11   2    3.50    5.60
  -4  11  -2    2.20    4.80
  -4  11  -2    2.80    4.90
  -6  10  -3    7.50    5.10
  -6  10  -3   -3.40    4.50
   7  16   4   22.30    5.40
   7  16   4   18.30    5.00
  -5 -15  -3   34.30    9.30
   5  15   3   31.20    5.60
  -3 -14  -2   82.19    9.70
   3  14   2   68.79    8.50
   1  13   1   75.59    9.00
   1  13   1   94.59   11.30
   1 -12   0   35.60    8.20
   1 -12   0   31.90    6.10
  -1  12   0   43.00    8.20
  -1  12   0   41.40    6.40
   3 -11   1   22.30    7.40
  -3  11  -1   30.30    6.70
  -3  11  -1   24.00    5.90
   5 -10   2   -0.20    6.00
  -5  10  -2    3.70    4.60
  -5  10  -2   10.50    4.90
   7  -9   3    0.10    6.60
  -7   9  -3    9.50    5.80
   6  15   4    2.00    3.50
  -4 -14  -3   29.30    6.00
   4  14   3   27.20    7.10
   4  14   3   28.30    4.90
  -2 -13  -2   27.00    5.40
   2  13   2   33.00    5.10
   2  13   2   21.50    6.30
   0 -12  -1    8.40    3.80
   0 -12  -1   14.80    6.20
   0  12   1    9.30    3.60
   0  12   1    4.60    4.50
   2 -11   0   21.70    6.80
   2 -11   0   17.60    4.70
  -2  11   0   28.30    5.90
  -2  11   0   30.60    5.30
  -4  10  -1   71.59   10.20
  -4  10  -1   59.39    8.90
   6  -9   2   43.40    8.90
  -6   9  -2   40.10    7.90
  -6   9  -2   50.19    8.70
  -8   8  -3   14.10    6.60
  -8   8  -3    6.80    4.70
   7  15   5   -1.20    3.40
   7  15   5    7.10    3.40
  -5 -14  -4    1.60    4.10
   5  14   4    1.80    3.10
   5  14   4    3.60    5.20
  -3 -13  -3   22.70    5.00
   3  13   3   20.30    4.40
   3  13   3   15.00    5.90
  -1 -12  -2   24.60    4.70
  -1 -12  -2   19.50    6.90
   1  12   2   22.50    6.30
   1  12   2   19.30    4.20
   1 -11  -1   27.20    5.00
   1 -11  -1   16.10    5.80
  -1  11   1   13.00    5.30
   3 -10   0   -1.70    3.30
   3 -10   0    2.00    5.20
  -3  10   0    8.10    5.00
  -3  10   0   12.40    4.30
   5  -9   1    0.40    5.10
  -5   9  -1    7.30    4.60
  -5   9  -1   11.80    4.70
   7  -8   2   16.10    7.30
  -7   8  -2   17.50    6.80
  -7   8  -2    4.30    4.30
  -9   7  -3   -0.40    4.40
   8  15   6   36.70    6.30
   6  14   5   41.10    5.40
   6  14   5   47.50    9.50
   6  14   5   41.90    5.90
  -4 -13  -4   33.20    5.30
   4  13   4   25.00    6.20
  -2 -12  -3   62.89    8.00
   2  12   3   82.09    8.00
   2  12   3   82.69   10.90
   0 -11  -2   17.80    4.30
   0  11   2   12.40    3.70
   0  11   2   20.40    6.10
   2 -10  -1   23.00    4.70
   2 -10  -1   29.20    7.20
  -2  10   1   28.50    6.10
   4  -9   0   11.80    4.30
   4  -9   0   15.80    6.20
  -4   9   0    7.00    4.10
  -4   9   0   20.60    5.30
   6  -8   1   17.80    6.20
  -6   8  -1   16.00    5.10
  -6   8  -1   16.70    5.60
   8  -7   2   24.00    7.70
  -8   7  -2   26.10    7.20
  -8   7  -2   14.50    5.50
   9  15   7    1.20    4.30
   9  15   7    5.00    3.60
   7  14   6    9.40    3.70
   7  14   6    5.00    6.40
   7  14   6    7.50    3.50
   5  13   5   12.60    5.20
   5  13   5   16.40    3.40
  -3 -12  -4   20.80    4.50
  -3 -12  -4   12.50    5.30
   3  12   4   29.00    6.60
   3  12   4   22.30    3.90
  -1 -11  -3   48.70    9.10
  -1 -11  -3   55.09    6.40
   1  11   3   59.39    8.90
   1  11   3   57.59    6.40
   1 -10  -2   73.69    8.50
   1 -10  -2   93.09   10.60
  -1  10   2   79.19    8.60
  -1  10   2   92.99    9.90
   3  -9  -1  113.09   11.90
   3  -9  -1   86.29    9.90
  -3   9   1  102.39   11.00
   5  -8   0   40.20    7.80
   5  -8   0   29.30    6.00
  -5   8   0   39.80    6.50
  -5   8   0   47.90    7.20
   7  -7   1    3.70    5.00
  -7   7  -1    2.60    4.10
  -7   7  -1    6.40    5.10
   9  -6   2    7.40    6.80
  -9   6  -2    7.80    4.90
  -9   6  -2    5.00    5.10
   8  14   7   63.09    7.10
   8  14   7   61.89   10.80
   8  14   7   64.79    7.40
   6  13   6   99.29   12.10
   6  13   6   72.29    8.20
   6  13   6   90.29    8.40
  -4 -12  -5    9.30    5.80
  -4 -12  -5   19.10    4.30
   4  12   5   18.80    5.90
   4  12   5   19.60    3.60
  -2 -11  -4   32.00    6.90
  -2 -11  -4   47.90    6.00
   2  11   4   53.39    7.90
   2  11   4   46.90    5.30
   0 -10  -3   33.90    7.70
   0 -10  -3   52.39    6.00
   0  10   3   45.70    7.50
   0  10   3   59.99    6.10
   2  -9  -2    6.10    4.50
   2  -9  -2   12.50    3.60
  -2   9   2   11.20    3.60
  -2   9   2   10.40    4.40
   4  -8  -1   57.99    9.20
   4  -8  -1   48.70    7.30
  -4   8   1   66.99    8.30
  -4   8   1   57.29    8.00
   6  -7   0   64.19    9.40
  -6   7   0   65.69    9.50
  -6   7   0   65.99    8.30
   8  -6   1   11.00    5.50
  -8   6  -1    9.80    5.50
  -8   6  -1   11.10    4.80
 -10   5  -2   10.30    4.70
   9  14   8    7.70    4.20
   9  14   8    5.40    4.10
   7  13   7   10.20    3.40
   7  13   7    8.30    2.80
   7  13   7   14.80    5.60
  -5 -12  -6   15.20    5.70
   5  12   6   22.50    6.30
   5  12   6   27.70    3.70
  -3 -11  -5  101.19   10.30
  -3 -11  -5  112.59   12.10
   3  11   5  106.99   10.10
   3  11   5  116.79   11.90
  -1 -10  -4  246.98   22.20
  -1 -10  -4  264.97   23.60
   1  10   4  251.27   22.20
   1  10   4  262.67   23.30
   1  -9  -3  100.79    9.70
   1  -9  -3  110.19   11.30
  -1   9   3   99.09   10.60
  -1   9   3   98.89    9.80
   3  -8  -2  177.98   16.40
   3  -8  -2  140.69   14.70
  -3   8   2  165.28   15.10
  -3   8   2  176.78   15.70
   5  -7  -1   90.09   10.60
  -5   7   1   63.49    8.60
  -5   7   1   84.19    9.60
   7  -6   0    6.60    4.50
  -7   6   0    4.50    4.50
  -7   6   0    0.20    3.80
   9  -5   1   22.10    6.10
  -9   5  -1   20.90    5.50
   8  13   8   16.20    3.40
   8  13   8   12.80    4.20
   8  13   8    9.80    6.80
  -6 -12  -7    6.00    4.60
   6  12   7    0.80    2.60
   6  12   7    0.10    3.90
   6  12   7    3.20    2.30
  -4 -11  -6   70.19    9.30
  -4 -11  -6   52.49    6.30
   4  11   6   57.49    6.00
   4  11   6   64.79   11.10
  -2 -10  -5   98.29   11.60
  -2 -10  -5  114.69   10.20
   2  10   5  107.29   10.10
   2  10   5  118.39   11.40
   0  -9  -4  187.78   17.90
   0  -9  -4  224.98   19.20
   0   9   4  197.38   17.80
   0   9   4  212.68   18.90
   2  -8  -3   19.50    4.90
   2  -8  -3   14.70    3.60
  -2   8   3   24.30    4.00
  -2   8   3   14.80    4.40
   4  -7  -2   24.40    5.50
   4  -7  -2   17.60    4.50
  -4   7   2   26.40    5.00
  -4   7   2   23.20    4.80
   6  -6  -1    3.10    3.70
   6  -6  -1    3.10    4.20
  -6   6   1    8.20    4.60
  -6   6   1   11.30    3.90
   8  -5   0   10.70    5.00
  -8   5   0   14.70    4.80
  -8   5   0    5.30    4.40
  10  -4   1   19.00    6.00
 -10   4  -1   15.20    6.60
 -10   4  -1   15.80    5.30
   9  13   9   13.80    5.80
   9  13   9   19.60    4.80
   9  13   9   16.50    3.70
   7  12   8   14.80    5.10
   7  12   8    9.20    3.10
   7  12   8   12.10    2.80
  -5 -11  -7    8.50    4.50
   5  11   7   14.50    2.80
  -3 -10  -6   61.39    8.20
  -3 -10  -6   50.29    5.60
   3  10   6   46.00    5.50
   3  10   6   61.99    7.30
  -1  -9  -5   17.10    3.20
  -1  -9  -5   10.00    4.10
   1   9   5   13.20    3.70
   1   9   5   20.30    3.00
   1  -8  -4   75.09    9.00
   1  -8  -4   85.99    7.80
  -1   8   4   73.79    7.80
  -1   8   4   82.99    8.80
   3  -7  -3   14.50    4.10
   3  -7  -3   11.00    3.10
  -3   7   3   14.20    3.70
  -3   7   3   18.80    3.50
   5  -6  -2  103.99   10.60
   5  -6  -2   84.59    9.80
  -5   6   2   86.69   10.00
  -5   6   2  100.89   10.10
   7  -5  -1   -2.80    3.50
  -7   5   1   -5.70    3.50
  -7   5   1    2.80    4.20
   9  -4   0   10.60    5.00
  -9   4   0    8.70    5.00
  -9   4   0    7.10    5.50
 -11   3  -1    9.50    4.40
  10  13  10   17.90    4.60
  10  13  10   13.60    3.70
   8  12   9   82.39   11.20
   8  12   9   81.49   11.90
   8  12   9   75.49    7.80
   8  12   9   82.69    7.90
  -6 -11  -8   93.09   11.80
   6  11   8   89.59    8.40
   6  11   8   89.49    8.40
  -4 -10  -7  259.87   24.50
   4  10   7  247.08   24.40
   4  10   7  282.27   22.80
  -2  -9  -6  147.39   12.80
  -2  -9  -6  140.09   14.10
   2   9   6  142.89   13.90
   2   9   6  146.19   12.70
   0  -8  -5   52.79    5.80
   0  -8  -5   68.79    8.20
   0   8   5   60.59    5.80
   0   8   5   53.39    6.80
   2  -7  -4   32.90    5.60
   2  -7  -4   28.70    4.30
  -2   7   4   35.10    4.50
  -2   7   4   38.50    5.40
   4  -6  -3    8.40    4.00
   4  -6  -3    7.30    3.40
  -4   6   3    8.00    3.60
  -4   6   3   10.20    3.70
   6  -5  -2   55.19    8.40
   6  -5  -2   60.99    8.40
  -6   5   2   66.89    8.30
  -6   5   2   69.89    8.20
   8  -4  -1    4.20    4.10
  -8   4   1    7.70    4.70
  -8   4   1    3.60    4.40
  10  -3   0   -0.80    4.10
 -10   3   0    3.80    5.80
 -10   3   0   -1.30    4.30
   9  12  10   16.80    5.20
   9  12  10   23.60    7.20
   9  12  10   14.00    3.50
   9  12  10    7.20    2.90
  -7 -11  -9    3.00    4.40
   7  11   9   13.00    2.60
   7  11   9    9.70    2.50
  -5 -10  -8   -0.20    3.80
   5  10   8    5.60    1.80
   5  10   8    5.30    3.60
   5  10   8    4.00    1.90
  -3  -9  -7   18.00    5.00
  -3  -9  -7   34.60    3.60
   3   9   7   17.90    4.60
   3   9   7   35.80    3.40
  -1  -8  -6  138.09   11.80
  -1  -8  -6  128.89   12.90
   1   8   6  128.79   12.80
   1   8   6  134.09   11.70
   1  -7  -5   66.19    8.10
   1  -7  -5   78.09    7.10
  -1   7   5   70.99    7.90
  -1   7   5   72.59    7.00
   3  -6  -4   10.10    3.20
   3  -6  -4   15.70    4.30
  -3   6   4   11.60    3.30
  -3   6   4   10.60    3.60
   5  -5  -3  238.68   21.40
   5  -5  -3  251.77   21.90
  -5   5   3  235.88   21.60
  -5   5   3  234.38   21.50
   7  -4  -2   76.59    9.30
   7  -4  -2   84.79    9.70
  -7   4   2   92.99    9.50
  -7   4   2   88.59    9.80
   9  -3  -1   10.00    4.30
  -9   3   1   11.40    4.40
  -9   3   1    2.20    4.50
  11  -2   0    9.30    6.00
 -11   2   0   14.50    5.10
 -11   2   0    2.40    6.50
  10  12  11   16.00    3.90
  10  12  11   19.50    4.20
  10  12  11   18.00    7.60
  10  12  11   10.90    5.30
   8  11  10   36.00    4.30
   8  11  10   34.00    4.60
  -6 -10  -9   97.49   10.30
   6  10   9   90.89   10.30
   6  10   9   88.09    8.10
   6  10   9   93.79    8.20
  -4  -9  -8  144.09   14.00
   4   9   8  141.79   12.00
   4   9   8  135.89   12.00
   4   9   8  140.99   13.70
  -2  -8  -7   80.09    7.40
  -2  -8  -7   78.69    8.90
   2   8   7   84.79    7.30
   2   8   7   77.19    8.70
   0  -7  -6    1.10    1.90
   0  -7  -6    7.50    3.20
   0   7   6    4.20    1.90
   0   7   6   -1.50    2.80
   2  -6  -5   14.30    3.70
  -2   6   5   22.10    3.10
   4  -5  -4    6.30    3.20
   4  -5  -4    4.40    2.80
  -4   5   4    7.10    3.10
  -4   5   4    2.50    2.50
   6  -4  -3    2.20    3.60
   6  -4  -3    4.30    3.40
  -6   4   3   10.60    4.00
  -6   4   3    3.60    4.10
   8  -3  -2   -1.30    3.40
  -8   3   2    4.00    4.60
  -8   3   2   -3.80    3.90
  10  -2  -1    7.60    5.90
 -10   2   1   15.60    5.10
   9  11  11   47.90    9.00
   9  11  11   52.59    5.50
  -7 -10 -10   21.30    5.70
   7  10  10   26.60    3.20
   7  10  10   31.60    5.90
   7  10  10   38.00    3.60
  -5  -9  -9   42.00    7.10
   5   9   9   49.60    6.80
  -3  -8  -8    0.20    2.90
   3   8   8    1.10    1.00
   3   8   8   -0.40    2.70
   1   7   7  153.08   14.20
   1  -6  -6  269.77   22.50
   1  -6  -6  244.58   21.50
  -1   6   6  246.38   22.20
  -1   6   6  247.28   21.60
   3  -5  -5  115.49   11.40
   3  -5  -5  130.09   12.00
  -3   5   5  122.29   11.90
  -3   5   5  131.49   11.40
   5  -4  -4   84.79    8.90
   5  -4  -4   77.59    8.50
  -5   4   4   87.39    8.70
  -5   4   4   86.69    8.90
   7  -3  -3   50.89    8.00
   7  -3  -3   56.49    7.60
  -7   3   3   56.09    7.60
  -7   3   3   48.40    7.40
   9  -2  -2    8.00    4.30
  -9   2   2    8.60    4.90
  -9   2   2    7.90    5.30
 -11   1   1    2.40    6.40
 -11   1   1    6.00    4.50
  10  11  12   15.50    3.20
  10  11  12   10.90    5.10
  10  11  12    5.40    3.30
  10  11  12    9.60    6.60
  -8 -10 -11    5.60    4.30
   8  10  11   15.10    2.60
   8  10  11   11.30    2.30
   8  10  11    9.40    4.40
  -6  -9 -10   11.50    4.20
   6   9  10    9.20    3.80
  -4  -8  -9   19.80    4.70
   4   8   9   33.70    5.00
  -2  -7  -8  101.79    8.30
  -2  -7  -8   93.09    9.80
   2   7   8   90.89    9.50
   2   7   8   92.09    8.20
   0  -6  -7   90.89    8.50
   0  -6  -7  101.49    9.70
   0   6   7   96.99    9.50
   0   6   7   97.19    8.60
   2  -5  -6   55.89    6.60
   2  -5  -6   41.50    5.00
  -2   5   6   54.29    6.40
  -2   5   6   44.90    5.00
   4  -4  -5  264.57   21.40
   4  -4  -5  224.98   20.80
  -4   4   5  239.08   21.10
  -4   4   5  226.38   20.80
   6  -3  -4    0.90    3.20
   6  -3  -4   -3.00    2.80
  -6   3   4   -0.90    3.70
  -6   3   4   -0.10    3.00
   8  -2  -3    7.90    3.90
   8  -2  -3    1.10    2.90
  -8   2   3    3.30    4.30
  -8   2   3    7.70    4.90
  10  -1  -2   -1.00    4.20
 -10   1   2    0.20    4.20
 -10   1   2    3.40    5.50
  11  11  13   13.80    4.10
   9  10  12    2.20    2.70
   9  10  12    5.40    2.30
   9  10  12   10.30    4.60
  -7  -9 -11   70.89    9.50
   7   9  11  106.19    9.70
  -5  -8 -10  111.99   11.40
   5   8  10  114.19   11.30
  -3  -7  -9   19.20    4.10
   3   7   9   10.30    3.60
  -1  -6  -8    4.10    3.00
  -1  -6  -8    0.60    1.40
   1   6   8    1.60    1.30
   1   6   8    3.60    2.50
   1  -5  -7    5.90    2.90
   1  -5  -7    8.20    2.10
  -1   5   7    4.20    1.90
  -1   5   7    4.30    2.90
   3  -4  -6   18.50    4.10
  -3   4   6   20.40    3.40
  -3   4   6   15.80    3.80
   5  -3  -5   10.40    3.50
   5  -3  -5    4.70    2.90
  -5   3   5    6.50    3.70
  -5   3   5   13.50    3.20
   7  -2  -4    0.30    3.60
   7  -2  -4    4.30    3.70
  -7   2   4   13.20    4.80
  -7   2   4   11.70    4.20
   9  -1  -3   22.20    5.40
  -9   1   3   35.10    6.90
  -9   1   3   23.80    5.90
  11   0  -2    6.50    5.30
 -11   0   2    4.00    5.50
 -11   0   2    9.00    5.30
  10  10  13    5.20    5.50
  10  10  13    0.50    3.10
  10  10  13   -3.40    4.00
  -8  -9 -12   13.00    4.70
   8   9  12   17.70    2.90
   8   9  12   15.30    4.20
  -6  -8 -11  132.59   13.20
   6   8  11  135.19   13.10
  -4  -7 -10  156.68   15.00
   4   7  10  165.58   14.90
  -2  -6  -9  189.48   17.50
   2   6   9  195.58   17.40
   0  -5  -8  465.55   39.70
   0  -5  -8  464.15   38.90
   0   5   8  474.25   38.90
   0   5   8  442.86   39.60
   2  -4  -7   49.70    6.10
   2  -4  -7   47.80    5.20
  -2   4   7   54.39    5.20
  -2   4   7   52.19    6.10
   4  -3  -6   36.90    5.00
   4  -3  -6   39.80    5.50
  -4   3   6   31.60    5.30
  -4   3   6   37.30    5.00
   6  -2  -5   30.40    5.30
   6  -2  -5   30.10    5.10
  -6   2   5   22.90    5.30
  -6   2   5   35.60    6.00
   8  -1  -4    4.60    3.10
   8  -1  -4    2.30    3.80
  -8   1   4    8.80    4.90
  -8   1   4    6.60    4.10
  10   0  -3    8.90    5.10
 -10   0   3    4.70    5.00
 -10   0   3    8.50    5.30
  11  10  14   -0.10    3.30
  11  10  14    6.30    4.90
  11  10  14    1.70    4.80
   9   9  13   -3.80    2.10
   9   9  13   -2.50    2.20
   9   9  13   -2.20    4.30
  -7  -8 -12    0.70    3.50
   7   8  12    2.20    3.40
  -5  -7 -11   37.60    5.90
   5   7  11   51.99    6.10
  -3  -6 -10    9.30    3.50
   3   6  10   14.00    3.40
  -1  -5  -9   59.09    5.30
  -1  -5  -9   53.09    6.60
   1   5   9   55.79    6.60
   1   5   9   62.39    5.30
   1  -4  -8    4.90    2.00
   1  -4  -8   10.80    3.00
  -1   4   8    6.80    2.70
  -1   4   8    9.40    2.00
   3  -3  -7  146.49   12.50
   3  -3  -7  121.59   11.90
  -3   3   7  138.59   12.40
  -3   3   7  125.39   11.90
   5  -2  -6  174.58   15.60
   5  -2  -6  149.09   15.20
  -5   2   6  172.38   15.30
  -5   2   6  175.98   15.60
   7  -1  -5   63.39    8.50
   7  -1  -5   60.69    8.20
  -7   1   5   75.59    8.90
  -7   1   5   72.59    8.90
   9   0  -4   44.70    7.50
  -9   0   4   49.50    8.30
  -9   0   4   69.19    8.40
  11   1  -3   11.90    6.20
 -11  -1   3   22.00    7.30
 -11  -1   3   32.00    6.80
  10   9  14   14.80    5.30
  10   9  14    9.50    3.40
  10   9  14    8.80    3.50
  10   9  14    6.30    4.90
  -8  -8 -13   29.20    5.50
   8   8  13   33.60    5.40
   8   8  13   40.60    3.90
   8   8  13   30.70    3.80
  -6  -7 -12   33.10    5.40
   6   7  12   31.00    5.50
  -4  -6 -11  193.88   17.60
   4   6  11  193.28   17.40
  -2  -5 -10   77.09    7.90
   2   5  10   72.19    7.80
   0  -4  -9   58.39    5.40
   0  -4  -9   66.99    6.50
   0   4   9   71.69    6.60
   0   4   9   45.50    5.20
   2  -3  -8   27.20    4.70
   2  -3  -8   25.20    3.80
  -2   3   8   27.50    3.70
  -2   3   8   32.30    4.80
   4  -2  -7    4.30    3.10
   4  -2  -7    1.10    2.60
  -4   2   7    5.50    3.30
  -4   2   7    0.40    2.40
   6  -1  -6   65.19    7.70
   6  -1  -6   61.09    7.40
  -6   1   6   69.99    8.10
   8   0  -5   14.80    4.30
   8   0  -5   26.10    5.50
  -8   0   5   39.00    5.90
  -8   0   5   44.60    6.60
  10   1  -4   -4.80    4.50
 -10  -1   4    0.70    4.90
 -10  -1   4   12.90    5.40
  11   9  15    4.50    5.20
  11   9  15    6.20    4.70
  11   9  15    0.80    3.40
   9   8  14   33.10    4.70
   9   8  14   27.40    5.90
   9   8  14   36.00    4.40
  -7  -7 -13   69.19    8.10
   7   7  13   72.69    8.00
  -5  -6 -12   57.19    7.20
   5   6  12   57.79    6.80
  -3  -5 -11   46.80    6.00
   3   5  11   54.89    6.40
  -1  -4 -10   83.69    8.40
  -1  -4 -10   89.59    7.30
  -1  -4 -10   75.59    7.30
   1   4  10   84.09    8.40
   1  -3  -9   46.80    5.90
   1  -3  -9   47.70    5.00
  -1   3   9   49.40    6.00
  -1   3   9   52.39    4.90
   3  -2  -8   87.69    8.40
   3  -2  -8   86.69    8.90
  -3   2   8   80.49    8.90
  -3   2   8   93.59    8.30
   5  -1  -7   48.80    6.30
   5  -1  -7   60.69    7.00
  -5   1   7   61.79    6.40
  -5   1   7   56.09    7.10
   7   0  -6   99.89   11.00
   7   0  -6  108.09   11.00
  -7   0   6  104.79   10.80
  -7   0   6  116.69   11.60
   9   1  -5   27.90    6.40
  -9  -1   5   40.00    6.80
  -9  -1   5   36.00    7.20
  11   2  -4    3.00    5.60
 -11  -2   4    5.30    5.50
  10   8  15   11.70    4.60
  10   8  15    4.90    4.80
   8   7  14    4.30    2.00
   8   7  14   -0.50    3.40
  -6  -6 -13   31.80    5.90
   6   6  13   40.50    5.70
  -4  -5 -12   21.80    4.70
   4   5  12   27.80    4.50
  -2  -4 -11    6.00    3.20
   2   4  11    4.10    3.00
   0  -3 -10  142.49   13.40
   0  -3 -10  146.29   14.20
   0  -3 -10  172.48   13.40
   0   3  10  152.28   14.20
   2  -2  -9  123.29   10.60
   2  -2  -9  112.19   11.10
  -2   2   9  105.99   11.10
  -2   2   9  119.59   10.40
   4  -1  -8   57.99    6.90
   4  -1  -8   56.79    6.40
  -4   1   8   59.69    7.20
  -4   1   8   64.09    6.50
   6   0  -7   60.69    7.60
   6   0  -7   66.79    8.10
  -6   0   7   72.79    8.70
  -6   0   7   82.09    7.90
   8   1  -6    3.10    3.00
   8   1  -6   14.60    4.80
  -8  -1   6   13.10    5.80
  -8  -1   6    2.70    4.30
  10   2  -5    2.30    5.00
 -10  -2   5    6.40    4.90
   9   7  15   48.90    6.90
   9   7  15   44.30    5.50
  -7  -6 -14   66.49    9.30
  -7  -6 -14   95.39    7.90
   7   6  14   82.59    9.20
   7   6  14   92.59    7.90
  -5  -5 -13   22.20    6.50
   5   5  13   48.10    6.00
  -3  -4 -12   18.80    6.00
   3   4  12   24.50    4.20
  -1  -3 -11  173.88   15.60
  -1  -3 -11  165.78   14.60
  -1  -3 -11  170.48   14.60
   1   3  11  175.38   15.50
   1  -2 -10    2.00    1.90
   1  -2 -10   -3.20    2.00
   1  -2 -10   -0.70    2.80
  -1   2  10    1.30    3.20
   3  -1  -9   29.20    5.00
   3  -1  -9   33.00    6.10
  -3   1   9   28.60    4.10
  -3   1   9   21.80    4.80
   5   0  -8   30.20    5.00
   5   0  -8   44.20    5.90
  -5   0   8   35.80    5.90
  -5   0   8   33.80    5.00
   7   1  -7   12.60    4.80
   7   1  -7   14.10    4.80
  -7  -1   7   13.80    5.60
  -7  -1   7   15.00    4.10
   9   2  -6    2.50    4.80
  -9  -2   6   -0.40    4.40
  -9  -2   6   -3.90    5.50
  11   3  -5    3.80    5.60
 -11  -3   5   13.00    6.00
 -11  -3   5    0.00    5.50
 -10  -7 -16    5.10    2.90
  -8  -6 -15   -2.70    3.00
  -8  -6 -15   -1.70    2.00
   8   6  15    3.00    2.40
   8   6  15   -0.40    3.70
  -6  -5 -14   15.10    3.90
  -6  -5 -14   13.00    2.40
   6   5  14   19.00    2.60
   6   5  14   15.70    4.20
  -4  -4 -13   70.49    6.30
  -4  -4 -13   70.89    8.60
   4   4  13   74.99    7.80
  -2  -3 -12  100.19    8.10
  -2  -3 -12   81.59    8.00
  -2  -3 -12   96.79    9.30
   2   3  12   90.39    9.20
   0  -2 -11  371.76   34.10
   0  -2 -11  407.46   33.50
   0  -2 -11  421.76   33.60
   0   2  11  377.46   34.10
   2  -1 -10  287.47   23.70
   2  -1 -10  281.57   23.70
   2  -1 -10  264.97   24.20
  -2   1  10  262.17   24.20
   4   0  -9  187.88   16.60
   4   0  -9  169.78   16.00
  -4   0   9  184.58   15.90
  -4   0   9  172.28   16.60
   6   1  -8    3.70    4.00
   6   1  -8    3.70    3.30
  -6  -1   8    3.50    4.70
  -6  -1   8    6.00    3.50
   8   2  -7   19.90    5.50
  -8  -2   7   29.40    5.90
  -8  -2   7   29.90    7.50
  10   3  -6    2.10    5.30
 -10  -3   6    1.30    4.80
 -10  -3   6   15.00    6.80
  -9  -6 -16    3.80    2.80
   9   6  16    1.40    3.00
  -7  -5 -15   21.40    4.30
  -7  -5 -15   27.90    3.60
   7   5  15   27.80    4.80
   7   5  15   27.00    3.70
  -5  -4 -14    0.60    1.90
  -5  -4 -14    1.60    3.00
   5   4  14    0.30    3.50
   5   4  14    2.50    1.80
  -3  -3 -13   22.00    4.90
  -3  -3 -13   25.80    3.20
   3   3  13   24.90    4.60
   3   3  13   25.40    3.10
  -1  -2 -12   56.99    5.60
  -1  -2 -12   60.09    6.70
  -1  -2 -12   61.29    5.70
   1   2  12   55.29    6.80
   1  -1 -11    0.50    2.20
   1  -1 -11    3.00    2.20
   1  -1 -11   -0.80    3.10
  -1   1  11   -4.70    3.50
   3   0 -10    0.50    3.60
   3   0 -10   -0.30    2.70
   3   0 -10   -1.40    2.30
  -3   0  10    0.10    3.80
   5   1  -9   10.50    3.20
   5   1  -9   15.90    4.30
  -5  -1   9   21.00    3.90
  -5  -1   9   16.00    5.10
   7   2  -8   27.60    6.40
   7   2  -8   44.50    6.90
  -7  -2   8   53.29    8.40
  -7  -2   8   43.90    6.50
   9   3  -7   46.40    9.30
  -9  -3   7   53.99    8.20
  -9  -3   7   51.19    8.90
  11   4  -6   -5.20    6.00
 -11  -4   6   19.20    8.30
 -11  -4   6   16.10    6.70
 -10  -6 -17   -1.60    2.90
  -8  -5 -16    4.60    3.00
  -8  -5 -16    4.90    2.70
   8   5  16    9.50    2.90
   8   5  16   -0.10    4.00
  -6  -4 -15    0.90    2.30
  -6  -4 -15    5.70    3.30
   6   4  15    6.40    3.60
   6   4  15    6.70    2.50
  -4  -3 -14  130.89   11.00
   4   3  14  128.59   11.90
   4   3  14  116.19   11.00
  -2  -2 -13  106.19   10.20
  -2  -2 -13  101.79    9.20
   2   2  13   98.79   10.10
   0  -1 -12  122.79   10.40
   0  -1 -12   98.89   11.10
   0  -1 -12  122.79   10.40
   0   1  12  108.89   11.20
   2   0 -11   31.10    4.50
   2   0 -11   34.30    5.40
  -2   0  11   26.80    5.30
   4   1 -10    4.40    3.40
   4   1 -10    0.60    2.80
   4   1 -10    4.60    3.70
  -4  -1  10    2.70    4.50
   6   2  -9   -1.80    3.00
   6   2  -9    3.70    4.20
  -6  -2   9   -1.30    5.00
  -8  -3   8    4.40    4.20
  -8  -3   8    2.70    5.40
  10   4  -7    8.80    6.00
 -10  -4   7    5.60    5.90
 -10  -4   7    5.60    6.40
  -9  -5 -17   10.90    3.50
   9   5  17   14.40    4.10
  -7  -4 -16   65.49    8.90
  -7  -4 -16  105.89    8.70
   7   4  16  101.79    8.80
   7   4  16   88.39    9.20
  -5  -3 -15  136.29   11.50
  -5  -3 -15  111.39   12.40
   5   3  15  129.89   12.30
   5   3  15  127.19   11.40
  -3  -2 -14   40.50    6.50
  -3  -2 -14   54.39    5.40
   3   2  14   56.09    6.60
   3   2  14   52.69    5.30
  -1  -1 -13  102.79    8.80
  -1  -1 -13   85.19    9.60
   1   1  13   93.99    9.90
   1   0 -12   84.69    7.50
   1   0 -12   74.19    7.50
   1   0 -12   75.99    8.50
  -1   0  12   63.39    8.60
   3   1 -11    2.30    3.00
   3   1 -11    4.30    3.60
   3   1 -11    2.10    2.80
  -3  -1  11   10.20    4.70
   5   2 -10    4.50    4.20
   5   2 -10    3.50    4.40
   5   2 -10   10.50    3.90
  -5  -2  10    2.10    4.80
   7   3  -9   21.50    5.30
   7   3  -9   32.60    6.80
   7   3  -9   28.10    6.40
  -7  -3   9   31.00    7.10
   9   4  -8   14.30    6.90
   9   4  -8   10.60    6.10
  -9  -4   8   18.30    7.20
  11   5  -7    7.40    8.00
 -11  -5   7    0.00    8.10
 -10  -5 -18    3.50    3.80
  -8  -4 -17   10.80    3.50
  -8  -4 -17    7.20    2.90
   8   4  17    3.90    3.80
  -6  -3 -16   18.00    4.40
  -6  -3 -16   31.50    4.30
   6   3  16   29.80    4.40
   6   3  16   29.10    5.20
  -4  -2 -15   17.90    3.30
  -4  -2 -15    7.40    3.70
   4   2  15   14.40    3.10
   4   2  15   11.40    4.10
  -2  -1 -14   23.60    4.50
  -2  -1 -14   17.10    3.60
   2   1  14   17.10    3.30
   2   1  14   19.30    4.80
   0   0 -13  128.19   10.60
   0   0 -13   93.69   11.20
   0   0 -13  118.09   10.50
   0   0  13  113.39   11.60
   2   1 -12   75.19    9.30
   2   1 -12   92.89    8.70
   2   1 -12   96.69    8.70
  -2  -1  12   83.39    9.70
   4   2 -11  141.99   13.60
   4   2 -11  147.09   13.90
   4   2 -11  137.29   14.30
  -4  -2  11  155.68   14.70
   6   3 -10   90.19   10.20
   6   3 -10   78.29   10.20
  -6  -3  10   90.59   12.10
   8   4  -9   24.80    6.70
   8   4  -9   34.60    7.90
  -8  -4   9   26.60    7.70
  10   5  -8   18.30    7.60
 -10  -5   8   15.60    8.70
  -9  -4 -18   27.70    5.10
   9   4  18   31.20    5.50
  -7  -3 -17   19.50    4.00
  -7  -3 -17    6.50    3.30
   7   3  17   20.50    4.40
   7   3  17   14.10    4.00
  -5  -2 -16  149.99   12.90
  -5  -2 -16  130.69   14.60
   5   2  16  144.39   12.90
   5   2  16  135.39   13.50
  -3  -1 -15   47.60    5.90
  -3  -1 -15   60.19    7.40
   3   1  15   57.19    6.00
   3   1  15   62.19    7.40
  -1   0 -14   20.90    4.90
  -1   0 -14   17.80    3.60
   1   0  14   19.60    5.00
   1   0  14   21.00    3.90
   1   1 -13   34.70    5.00
   1   1 -13   43.50    5.40
   1   1 -13   39.00    6.20
  -1  -1  13   44.50    6.70
   3   2 -12   26.90    4.70
   3   2 -12   31.30    5.70
   3   2 -12   20.40    4.40
  -3  -2  12   30.70    6.20
   5   3 -11   -5.70    4.70
   5   3 -11    1.50    5.30
   5   3 -11    6.30    3.70
   7   4 -10    2.40    5.10
   7   4 -10    8.50    5.60
  -7  -4  10    4.10    5.90
   9   5  -9   20.60    7.80
  -9  -5   9    7.90    7.40
 -11  -6   8    0.30    8.90
  -8  -3 -18    0.70    3.80
   8   3  18    9.50    3.70
   8   3  18    4.30    4.00
  -6  -2 -17   -0.30    3.50
  -6  -2 -17    3.50    3.50
   6   2  17    2.80    3.80
   6   2  17   -2.60    2.90
  -4  -1 -16   24.70    4.10
  -4  -1 -16   10.00    4.50
   4   1  16   17.40    5.20
  -2   0 -15    4.10    2.80
  -2   0 -15   -2.00    3.60
   2   0  15    3.40    4.40
   0   1 -14  129.99   14.00
   0   1 -14  152.58   13.30
   0  -1  14  158.98   14.50
   0  -1  14  140.99   13.40
   2   2 -13  342.87   32.10
   2   2 -13  379.86   31.30
   2   2 -13  371.96   31.30
  -2  -2  13  347.77   32.10
   4   3 -12   64.79    7.40
   4   3 -12   52.49    8.60
   4   3 -12   71.29    7.60
   6   4 -11   54.29    8.20
   6   4 -11   40.40    8.00
   6   4 -11   54.99    7.30
  -6  -4  11   40.90    8.60
   8   5 -10   41.80    8.40
  -8  -5  10   39.20    8.80
  10   6  -9    7.90    7.80
 -10  -6   9   20.20    9.90
  -9  -3 -19    8.50    4.30
  -7  -2 -18    4.60    3.90
  -7  -2 -18    3.60    3.10
   7   2  18    2.00    3.90
   7   2  18    5.20    3.70
  -5  -1 -17   17.40    4.10
  -5  -1 -17   12.90    4.40
   5   1  17   16.80    5.00
   5   1  17   20.50    4.40
  -3   0 -16    2.70    3.70
  -3   0 -16    6.10    3.30
   3   0  16    1.90    3.20
   3   0  16    1.50    4.20
  -1   1 -15   39.00    4.80
  -1   1 -15   24.20    5.30
   1  -1  15   20.60    4.50
   1  -1  15   36.90    6.40
   1   2 -14   25.60    5.70
   1   2 -14   21.60    4.70
   1   2 -14   30.20    4.80
  -1  -2  14   23.00    6.00
   3   3 -13    3.40    3.60
   3   3 -13    5.30    3.80
   3   3 -13    1.40    4.50
   5   4 -12   45.10    8.20
   5   4 -12   44.00    7.30
   5   4 -12   64.39    8.10
  -5  -4  12   58.99    9.40
   7   5 -11    3.90    5.80
  -7  -5  11   14.90    7.50
  -9  -6  10   14.20    9.20
  -8  -2 -19    3.30    4.30
   8   2  19    4.70    4.90
  -6  -1 -18   13.60    4.30
  -6  -1 -18    5.10    5.70
   6   1  18   15.30    4.70
   6   1  18    1.70    3.90
  -4   0 -17   27.90    5.70
  -4   0 -17   39.40    5.50
   4   0  17   34.50    6.50
   4   0  17   39.90    5.90
  -2   1 -16   34.90    5.10
  -2   1 -16   25.70    5.60
   2  -1  16   24.50    6.50
   2  -1  16   31.70    5.10
   0   2 -15   10.40    3.50
   0   2 -15    8.60    4.60
   0  -2  15    6.60    5.60
   0  -2  15   21.20    4.50
   2   3 -14   37.70    5.40
   2   3 -14   33.70    6.50
   2   3 -14   28.80    5.00
   4   4 -13   62.19    9.30
   4   4 -13   67.89    7.80
  -4  -4  13   54.69    9.30
   6   5 -12    3.70    5.80
   6   5 -12   12.40    5.20
  -6  -5  12    7.00    7.00
   8   6 -11   10.40    6.50
  -8  -6  11   -2.70    7.00
 -10  -7  10    9.90    9.40
  -7  -1 -19   20.70    5.30
  -7  -1 -19   16.60    4.20
   7   1  19   13.40    5.70
   7   1  19   29.60    5.50
  -5   0 -18   55.59    6.90
  -5   0 -18   37.60    6.90
   5   0  18   55.29    7.60
   5   0  18   52.59    7.10
  -3   1 -17  134.09   14.70
  -3   1 -17  153.58   14.10
   3  -1  17  167.88   14.70
   3  -1  17  161.68   15.40
  -1   2 -16  142.79   13.30
  -1   2 -16  128.49   14.00
   1  -2  16  146.49   14.70
   1  -2  16  149.09   13.70
   1   3 -15   32.70    6.60
   1   3 -15   31.00    5.40
   3   4 -14   68.99    8.60
   3   4 -14   67.39    8.00
   3   4 -14   57.39    9.40
  -3  -4  14   67.59   10.50
   5   5 -13   15.30    5.30
   5   5 -13   -2.80    3.80
  -5  -5  13    6.20    6.90
   7   6 -12    6.20    6.10
  -7  -6  12    7.50    7.80
   9   7 -11   10.30    7.10
  -8  -1 -20    0.20    4.40
  -6   0 -19    2.20    4.20
  -6   0 -19    1.60    4.00
   6   0  19    2.60    4.60
   6   0  19    0.40    4.70
  -4   1 -18   -2.60    3.70
  -4   1 -18    7.80    4.50
   4  -1  18   10.60    5.20
   4  -1  18    9.40    4.60
  -2   2 -17   -1.30    4.30
  -2   2 -17    2.50    3.80
   2  -2  17    5.80    4.10
   2  -2  17    6.50    5.20
   0   3 -16   -6.00    4.80
   0   3 -16   -3.30    3.50
   0  -3  16   -3.60    4.10
   2   4 -15   20.40    4.90
   2   4 -15    4.90    4.00
   2   4 -15    6.60    5.30
  -2  -4  15    7.90    5.90
   4   5 -14   37.40    6.60
   4   5 -14   43.10    7.00
  -4  -5  14   40.50    8.50
   6   6 -13   49.70    7.80
  -6  -6  13   26.10    8.90
   8   7 -12    8.80    6.70
  -7   0 -20   -1.60    4.60
  -7   0 -20    4.90    4.80
   7   0  20   -0.30    5.10
   7   0  20    8.50    5.30
  -5   1 -19   37.50    7.90
  -5   1 -19   32.50    6.50
   5  -1  19   43.40    7.50
   5  -1  19   51.29    7.40
  -3   2 -18   63.29    7.60
  -3   2 -18   44.80    7.80
   3  -2  18   59.19    8.20
   3  -2  18   63.29    9.20
  -1   3 -17   69.39    8.00
  -1   3 -17   58.49    9.20
   1  -3  17   61.99   10.10
   1  -3  17   79.79    9.40
   1   4 -16   16.40    5.90
   1   4 -16   12.40    4.50
  -1  -4  16   15.30    5.80
  -1  -4  16   19.20    7.00
   3   5 -15    0.50    3.90
   3   5 -15    2.90    4.30
  -3  -5  15   -5.00    5.90
   5   6 -14    3.00    4.90
  -5  -6  14    9.30    7.10
  -7  -7  13   -4.80    7.30
  -9  -8  12   24.40   11.30
  -6   1 -20    1.30    4.50
  -6   1 -20   10.50    4.40
   6  -1  20    8.20    5.50
  -4   2 -19    4.40    4.70
  -4   2 -19    2.70    4.10
   4  -2  19   -0.40    5.50
  -2   3 -18    7.90    5.20
  -2   3 -18    7.60    4.30
   2  -3  18   12.90    6.50
   2  -3  18   12.60    5.50
   0   4 -17    2.30    5.10
   0   4 -17   -2.70    3.90
   0  -4  17    2.80    6.00
   0  -4  17    3.00    4.80
   2   5 -16   42.40    7.40
   2   5 -16   61.09    7.80
  -2  -5  16   55.79   10.30
   4   6 -15   38.80    7.30
  -4  -6  15   47.70   10.30
   6   7 -14   20.50    6.40
  -6  -7  14   21.90    9.40
   8   8 -13   44.60    9.40
  -8  -8  13   44.10   12.00
  -7   1 -21   -0.80    5.20
  -5   2 -20    6.70    4.50
  -5   2 -20   -0.20    4.70
   5  -2  20    5.80    5.90
   5  -2  20    8.50    5.90
  -3   3 -19   -2.50    4.60
  -3   3 -19   -3.90    4.00
   3  -3  19    5.40    5.90
   3  -3  19   -0.30    5.00
  -1   4 -18    4.60    5.10
  -1   4 -18   10.80    4.80
   1  -4  18    3.00    5.20
   1  -4  18    7.00    6.30
   1   5 -17   16.40    5.40
  -1  -5  17   20.40    7.90
  -1  -5  17   33.90    7.00
   3   6 -16   16.70    5.70
  -3  -6  16   18.60    8.10
   5   7 -15   11.90    5.90
  -5  -7  15    2.50    7.30
   7   8 -14   -1.60    5.90
  -7  -8  14   17.50    9.60
  -6   2 -21   17.10    5.50
  -6   2 -21    2.60    5.10
   6  -2  21   20.10    7.10
  -4   3 -20   -0.20    4.60
  -4   3 -20   -6.90    4.70
   4  -3  20    4.50    6.10
  -2   4 -19    2.50    4.50
  -2   4 -19   -4.60    4.90
   2  -4  19    7.30    5.80
   2  -4  19   11.80    6.60
   0   5 -18   15.00    5.20
   0  -5  18   14.50    7.80
   2   6 -17    2.00    4.80
  -2  -6  17   14.30    8.00
   4   7 -16   10.70    5.50
  -4  -7  16    3.50    8.10
   6   8 -15   -5.50    5.70
  -6  -8  15   -6.30    8.60
  -5   3 -21   13.50    5.50
  -5   3 -21    3.50    5.70
   5  -3  21   13.90    7.90
  -3   4 -20   22.60    6.90
  -3   4 -20   26.90    6.40
   3  -4  20   49.99    9.10
  -1   5 -19    0.30    4.90
   1  -5  19   14.80    7.00
   1   6 -18   79.89   10.30
  -1  -6  18   75.59   12.90
   3   7 -17   50.79    8.20
  -3  -7  17   41.30   10.30
   5   8 -16    3.00    5.80
  -5  -8  16    7.70    8.00
  -4   4 -21   -6.20    5.60
  -4   4 -21   12.20    5.60
   4  -4  21   10.00    8.20
  -2   5 -20   -3.90    4.50
   2  -5  20   -0.40    6.70
   0   6 -19    0.90    4.80
   0  -6  19    2.00    6.90
   2   7 -18    8.00    5.30
   4   8 -17    3.30    5.80
  -4  -8  17    2.00    8.10
  -3   5 -21    8.30    6.20
   3  -5  21    9.40    7.60
  -1   6 -20   14.90    6.00
   1  -6  20   20.00    9.10
   3   8 -18   10.70    5.90
  -3  -8  18   13.60    9.40
   0   7 -20    2.10    5.60
   0  -7  20   20.10   10.70
   2   8 -19    1.70    6.20
  -2  -8  19    0.40    9.10
   2  16   0   51.99    8.30
   0  15  -1   22.20    6.00
   0  15  -1   21.10    7.40
   3  16   1    8.20    4.10
   3  16   1    7.90    6.50
   1  15   0    5.60    4.30
   1  15   0   17.30    6.90
  -1  14  -1   32.30    8.00
  -1  14  -1   21.50    5.70
  -3  13  -2   29.70    8.00
  -3  13  -2   26.00    7.20
  -5  12  -3   11.90    6.60
   4  16   2   12.40    4.60
   4  16   2    1.70    6.40
   2  15   1   -0.20    3.90
   0  14   0    7.50    3.90
  -2  13  -1    5.80    5.10
  -2  13  -1    7.10    5.90
  -4  12  -2    8.60    5.80
  -6  11  -3    0.70    5.40
  -5 -16  -3    2.90    5.10
   5  16   3    7.40    4.10
  -3 -15  -2    0.00    4.60
   3  15   2    2.30    3.30
  -1 -14  -1   -0.70    4.10
   1  14   1   -0.60    3.60
  -1  13   0   13.50    4.90
  -1  13   0   20.70    7.30
  -3  12  -1   18.20    6.80
  -3  12  -1   27.20    6.40
   5 -11   2   11.20    7.40
  -5  11  -2    5.70    5.40
  -5  11  -2   12.20    5.70
   6  16   4    6.00    6.10
   6  16   4   -1.10    3.10
   6  16   4    3.10    3.80
  -4 -15  -3    1.50    8.30
   4  15   3    7.10    3.60
  -2 -14  -2   44.80    7.80
   2  14   2   40.40    8.80
   2  14   2   54.19    7.00
   0 -13  -1   60.99    8.10
   0  13   1   52.49    7.70
   0  13   1   63.89   10.30
  -2  12   0   38.20    7.30
  -2  12   0   41.40    8.20
   4 -11   1   11.10    6.70
  -4  11  -1   20.30    5.90
  -4  11  -1   29.70    7.10
   6 -10   2   20.80    8.80
  -6  10  -2    7.50    5.30
  -6  10  -2   11.00    5.50
   7  16   5   11.70    5.90
  -5 -15  -4    8.20    4.80
   5  15   4   14.20    7.50
  -3 -14  -3    5.60    4.30
   3  14   3   17.10    6.50
  -1 -13  -2    5.20    3.70
   1  13   2    3.00    3.40
   1  13   2    6.60    5.30
   1 -12  -1   -2.00    3.50
   1 -12  -1    0.70    5.40
  -1  12   1   12.30    4.00
  -1  12   1    7.90    5.00
   3 -11   0    1.30    5.20
  -3  11   0    0.30    4.60
  -3  11   0   -1.70    3.60
   5 -10   1    2.50    5.80
  -5  10  -1    5.00    4.70
  -5  10  -1    9.60    4.60
   7  -9   2    8.00    6.90
  -7   9  -2   10.00    6.40
  -7   9  -2   -0.40    4.70
   6  15   5    0.30    6.50
   6  15   5   17.40    4.10
   6  15   5   12.50    3.80
  -4 -14  -4   71.59    8.30
   4  14   4   75.49   12.70
   4  14   4   64.19    7.50
  -2 -13  -3  108.19   11.30
   2  13   3  115.99   11.20
   2  13   3  116.59   13.60
   0 -12  -2   91.79   10.70
   0 -12  -2  101.39   13.20
   0  12   2   99.39   12.70
   2 -11  -1   65.69    9.20
   2 -11  -1   69.79   11.20
  -2  11   1  102.19   12.20
  -2  11   1   87.89   10.00
  -4  10   0   40.80    7.30
  -4  10   0   33.20    7.60
   6  -9   1   12.90    6.20
  -6   9  -1   19.00    5.40
  -6   9  -1   11.60    5.10
   8  -8   2    0.90    7.20
  -8   8  -2    1.80    5.90
  -8   8  -2   -5.60    4.50
   7  15   6   -2.10    3.50
   7  15   6    0.50    2.80
  -5 -14  -5   11.70    4.40
   5  14   5    4.00    5.20
   5  14   5   16.30    3.70
  -3 -13  -4    9.00    4.00
   3  13   4   16.70    3.50
   3  13   4    7.40    5.20
  -1 -12  -3   13.00    4.00
  -1 -12  -3    2.70    5.20
   1  12   3   10.00    3.20
   1  12   3   13.90    5.30
   1 -11  -2   12.50    5.90
   1 -11  -2   18.80    4.40
  -1  11   2   27.90    4.80
  -1  11   2   18.50    5.40
   3 -10  -1    2.70    3.80
   3 -10  -1   10.10    5.90
  -3  10   1    7.60    4.70
  -3  10   1   11.80    4.00
   5  -9   0   10.80    6.20
  -5   9   0   20.10    5.40
   7  -8   1   49.40    9.10
  -7   8  -1   57.59    8.50
  -7   8  -1   84.79   11.10
   9  -7   2   19.00    8.60
  -9   7  -2   10.80    5.30
   8  15   7    1.40    3.80
   8  15   7   -0.50    3.30
   6  14   6    3.80    6.10
   6  14   6   10.00    2.90
   6  14   6    5.30    3.10
  -4 -13  -5    8.40    4.10
   4  13   5    7.90    3.10
   4  13   5    8.30    5.20
  -2 -12  -4   72.69    7.90
   2  12   4   56.39    9.20
   2  12   4   62.29    7.00
   0 -11  -3    5.40    3.40
   0 -11  -3   15.50    6.70
   0  11   3   11.00    3.50
   0  11   3   14.50    5.00
   2 -10  -2   31.90    5.40
   2 -10  -2   39.40    7.70
  -2  10   2   42.00    7.60
  -2  10   2   32.60    5.70
   4  -9  -1   15.70    5.80
   4  -9  -1    7.40    3.80
  -4   9   1   11.90    4.50
  -4   9   1   12.10    4.80
   6  -8   0    3.90    5.30
  -6   8   0    5.30    4.30
  -6   8   0    2.10    4.70
   8  -7   1   12.30    7.50
  -8   7  -1   12.20    4.70
  -8   7  -1   13.50    5.80
   9  15   8    6.40    3.50
   7  14   7   94.79    9.30
   7  14   7   90.19    9.50
   7  14   7  118.89   13.20
   5  13   6   48.20    9.10
   5  13   6   52.79    6.20
  -3 -12  -5   24.80    6.50
  -3 -12  -5   29.00    5.10
   3  12   5   27.10    6.30
   3  12   5   36.30    4.60
  -1 -11  -4  210.28   20.00
   1  11   4  226.98   20.10
   1  11   4  258.77   22.20
   1 -10  -3    5.90    4.90
   1 -10  -3    0.40    3.00
  -1  10   3    5.50    3.20
   3  -9  -2   42.40    7.90
   3  -9  -2   38.40    6.20
  -3   9   2   43.60    7.10
  -3   9   2   55.19    8.00
   5  -8  -1    2.80    4.50
   5  -8  -1    6.60    3.60
  -5   8   1    3.80    3.90
  -5   8   1    0.70    3.90
   7  -7   0   12.90    5.50
  -7   7   0   12.10    5.40
  -7   7   0   11.10    4.60
  -9   6  -1   18.30    5.90
  -9   6  -1   11.00    5.20
   8  14   8    6.00    3.50
   8  14   8    2.60    5.30
   8  14   8    9.50    3.30
   6  13   7    1.80    4.10
   6  13   7    4.20    2.30
  -4 -12  -6   18.60    4.90
  -4 -12  -6   13.70    5.60
   4  12   6   21.60    3.50
   4  12   6   26.20    5.80
  -2 -11  -5   41.40    5.80
  -2 -11  -5   47.20    8.20
   2  11   5   34.20    7.30
   2  11   5   44.50    5.10
   0 -10  -4   77.19    8.20
   0 -10  -4   94.29   11.50
   0  10   4   79.59    9.60
   0  10   4   83.89    8.20
   2  -9  -3   59.89    7.50
   2  -9  -3   70.99    9.80
  -2   9   3   68.09    8.90
  -2   9   3   60.19    7.20
   4  -8  -2  102.39   11.00
   4  -8  -2  129.39   12.80
  -4   8   2  106.69   11.50
   6  -7  -1   34.20    6.80
  -6   7   1   28.90    5.70
  -6   7   1   31.90    6.60
   8  -6   0    7.70    4.90
  -8   6   0    7.10    4.60
  -8   6   0    0.10    4.90
 -10   5  -1    3.00    4.90
   9  14   9   15.70    4.50
   9  14   9   20.90    4.30
   7  13   8   16.10    3.50
   7  13   8   23.10    4.00
   7  13   8   24.50    6.60
  -5 -12  -7   89.79   11.20
   5  12   7   97.59    8.80
   5  12   7   90.19    8.70
   5  12   7   95.09   11.30
  -3 -11  -6   65.49    6.50
  -3 -11  -6   45.90    8.10
   3  11   6   64.19    8.80
   3  11   6   41.30    5.40
  -1 -10  -5    9.10    4.20
   1  10   5    4.00    2.50
   1  10   5    5.60    3.60
   1  -9  -4   51.19    6.10
   1  -9  -4   44.40    7.70
  -1   9   4   60.69    7.30
  -1   9   4   64.19    6.30
   3  -8  -3    4.80    3.50
   3  -8  -3    7.70    4.50
  -3   8   3    8.10    3.90
  -3   8   3    6.50    3.30
   5  -7  -2   25.60    6.00
  -5   7   2   34.10    5.70
  -5   7   2   24.10    5.40
   7  -6  -1    2.40    4.30
  -7   6   1    4.40    4.00
  -7   6   1    6.40    4.40
   9  -5   0   39.00    7.60
  -9   5   0   31.30    6.90
   8  13   9    9.50    3.10
   8  13   9    9.10    2.60
   8  13   9    7.90    6.00
  -6 -12  -8   21.70    6.10
   6  12   8   27.30    3.80
   6  12   8   17.50    5.70
   6  12   8   26.80    3.80
  -4 -11  -7    8.40    2.80
  -4 -11  -7    2.60    3.90
   4  11   7   10.10    2.80
   4  11   7    4.00    4.30
  -2 -10  -6   25.30    3.80
  -2 -10  -6   20.50    5.00
   2  10   6   37.00    3.70
   2  10   6   16.30    4.70
   0  -9  -5  187.78   17.10
   0   9   5  174.58   16.70
   0   9   5  166.98   15.50
   2  -8  -4  214.88   18.80
   2  -8  -4  179.38   17.50
  -2   8   4  196.98   18.50
  -2   8   4  205.28   17.70
   4  -7  -3   47.30    6.60
   4  -7  -3   55.49    8.00
  -4   7   3   52.69    7.20
  -4   7   3   46.40    6.80
   6  -6  -2   49.20    7.10
   6  -6  -2   45.50    7.50
  -6   6   2   40.60    6.70
  -6   6   2   48.10    7.20
   8  -5  -1   35.00    6.80
  -8   5   1   48.20    7.80
  -8   5   1   37.10    6.90
  10  -4   0    0.80    5.60
 -10   4   0    2.30    6.00
 -10   4   0   -1.60    4.40
   9  13  10    3.30    5.10
   9  13  10    4.40    2.90
   9  13  10   -0.10    2.60
  -7 -12  -9    4.00    4.50
   7  12   9    4.00    4.30
   7  12   9    5.40    2.40
  -5 -11  -8   15.60    4.90
   5  11   8   11.80    2.40
   5  11   8   12.50    2.70
   5  11   8    6.70    4.40
  -3 -10  -7   21.60    3.70
  -3 -10  -7   25.10    5.60
   3  10   7   27.90    3.30
   3  10   7   21.30    5.20
  -1  -9  -6   18.20    4.80
  -1  -9  -6   28.80    3.80
   1   9   6   25.20    3.50
   1   9   6   20.30    4.70
   1  -8  -5  140.79   12.80
  -1   8   5  110.99   11.40
  -1   8   5  134.39   12.60
   3  -7  -4   16.00    4.90
   3  -7  -4   17.90    3.60
  -3   7   4   19.20    4.40
  -3   7   4   17.70    3.80
   5  -6  -3    1.50    4.10
   5  -6  -3    3.10    3.40
  -5   6   3    9.80    3.80
  -5   6   3    2.10    3.70
   7  -5  -2    5.40    4.20
  -7   5   2    8.10    4.80
  -7   5   2   14.90    4.90
   9  -4  -1    3.00    5.10
  -9   4   1    8.80    5.00
  -9   4   1    6.50    5.20
  10  13  11   18.60    4.10
  10  13  11   21.80    4.10
   8  12  10   13.90    4.80
   8  12  10    7.20    2.50
  -6 -11  -9   24.20    6.10
   6  11   9   34.50    3.60
   6  11   9   19.00    5.60
   6  11   9   31.20    3.70
  -4 -10  -8   11.10    4.60
   4  10   8   18.70    2.60
   4  10   8   15.10    4.80
  -2  -9  -7   18.60    3.10
  -2  -9  -7   26.40    5.10
   2   9   7   27.00    3.10
   2   9   7    9.70    4.20
   0  -8  -6   25.10    3.40
   0  -8  -6   20.30    4.70
   0   8   6   17.40    4.50
   0   8   6   17.90    3.00
   2  -7  -5   56.09    7.60
   2  -7  -5   54.09    6.20
  -2   7   5   48.00    6.20
  -2   7   5   54.89    7.30
   4  -6  -4   12.00    4.20
   4  -6  -4    9.20    3.40
  -4   6   4   11.00    3.90
  -4   6   4   11.90    3.40
   6  -5  -3   66.89    9.00
  -6   5   3   74.69    9.20
  -6   5   3   86.79    9.50
   8  -4  -2   -0.10    3.80
  -8   4   2   -1.00    4.30
  -8   4   2    0.80    4.30
  10  -3  -1   -3.60    4.70
 -10   3   1    0.50    5.20
 -10   3   1    1.90    4.70
   9  12  11   28.30    6.50
   9  12  11   29.40    3.80
   9  12  11   23.30    7.30
  -7 -11 -10   42.00    7.60
   7  11  10   50.59    7.50
   7  11  10   37.20    4.00
   7  11  10   38.80    4.00
  -5 -10  -9  180.88   18.80
   5  10   9  203.98   16.90
   5  10   9  200.08   18.60
   5  10   9  199.08   16.90
  -3  -9  -8  122.49   13.20
  -3  -9  -8  137.69   11.50
   3   9   8  134.19   11.40
   3   9   8  117.39   12.80
  -1  -8  -7   83.19    9.40
  -1  -8  -7   91.89    8.00
   1   8   7   83.39    9.20
   1   8   7   85.69    7.90
   1  -7  -6   52.99    7.20
   1  -7  -6   43.60    5.10
  -1   7   6   57.79    6.90
  -1   7   6   49.40    5.20
   3  -6  -5   71.89    7.20
   3  -6  -5   68.29    8.20
  -3   6   5   70.49    7.20
  -3   6   5   69.79    7.80
   5  -5  -4   32.50    6.00
   5  -5  -4   45.90    6.70
  -5   5   4   45.50    6.40
  -5   5   4   43.50    6.40
   7  -4  -3   -2.10    3.30
   7  -4  -3    5.30    3.50
  -7   4   3    5.80    4.00
  -7   4   3   -2.10    3.90
   9  -3  -2   15.20    5.50
  -9   3   2   21.00    5.80
  -9   3   2   17.40    5.10
 -11   2   1   10.30    5.10
  10  12  12    9.30    7.30
  10  12  12    4.00    5.10
  -8 -11 -11   21.70    5.90
   8  11  11   26.10    5.90
   8  11  11   29.40    3.30
   8  11  11   31.70    3.40
  -6 -10 -10   15.30    4.90
   6  10  10   22.30    5.10
  -4  -9  -9    9.50    4.00
   4   9   9   14.10    4.30
  -2  -8  -8   82.59    7.10
  -2  -8  -8   70.29    8.60
   2   8   8   78.49    8.60
   2   8   8   79.09    7.00
   0  -7  -7   65.19    7.70
   0  -7  -7   68.39    6.40
   0   7   7   64.59    6.30
   0   7   7   66.49    7.40
   2  -6  -6  157.18   15.10
   2  -6  -6  159.88   14.30
  -2   6   6  160.28   14.90
  -2   6   6  161.08   14.20
   4  -5  -5   31.80    5.50
   4  -5  -5   32.00    5.00
  -4   5   5   30.70    5.40
  -4   5   5   33.80    4.80
   6  -4  -4   66.79    8.50
   6  -4  -4   73.89    8.70
  -6   4   4   72.89    8.60
   8  -3  -3   78.69   10.00
  -8   3   3   85.19   10.30
  -8   3   3   82.69   10.60
  10  -2  -2    9.70    5.10
 -10   2   2    7.70    5.10
   9  11  12    5.70    2.20
   9  11  12    6.40    5.10
   9  11  12    6.10    2.50
  -7 -10 -11   35.10    6.70
   7  10  11   47.60    7.10
  -5  -9 -10   86.39    9.80
   5   9  10   88.49    9.80
  -3  -8  -9  133.09   12.10
   3   8   9  108.99   11.70
  -1  -7  -8   47.90    4.90
  -1  -7  -8   66.39    7.70
   1   7   8   50.99    4.80
   1   7   8   49.30    6.20
   1  -6  -7   29.10    4.00
   1  -6  -7   30.80    5.20
  -1   6   7   27.10    3.60
  -1   6   7   26.10    5.00
   3  -5  -6   25.50    3.60
   3  -5  -6   13.00    3.90
  -3   5   6   23.40    3.60
   5  -4  -5   22.30    4.70
   5  -4  -5   21.40    4.30
  -5   4   5   27.70    4.90
  -5   4   5   26.00    4.60
   7  -3  -4   12.30    4.30
   7  -3  -4   10.60    4.30
  -7   3   4    9.20    4.90
  -7   3   4    3.60    3.90
   9  -2  -3   -1.00    4.30
  -9   2   3    5.70    5.10
  -9   2   3   -1.70    4.60
  11  -1  -2    5.30    5.40
 -11   1   2    8.10    5.60
 -11   1   2    9.40    5.40
  10  11  13    9.50    6.50
  -8 -10 -12    9.00    4.40
   8  10  12    8.60    4.30
  -6  -9 -11  108.79   11.70
   6   9  11  114.29   11.60
  -4  -8 -10    3.60    3.20
   4   8  10    3.30    3.10
  -2  -7  -9   64.59    7.70
   2   7   9   47.70    6.30
   0  -6  -8   40.60    3.80
   0   6   8   23.30    4.50
   0   6   8   35.10    3.70
   2  -5  -7  181.48   15.00
   2  -5  -7  150.28   14.00
  -2   5   7  146.09   14.00
  -2   5   7  165.98   14.70
   4  -4  -6  265.17   23.90
   4  -4  -6  289.67   24.50
  -4   4   6  266.67   24.20
  -4   4   6  274.97   23.90
   6  -3  -5   57.69    7.10
   6  -3  -5   43.10    6.70
  -6   3   5   44.90    6.70
  -6   3   5   46.40    6.90
   8  -2  -4   34.80    6.40
  -8   2   4   38.50    6.80
  -8   2   4   36.40    6.50
  10  -1  -3    8.70    5.00
 -10   1   3   12.10    5.30
 -10   1   3    8.30    5.20
   9  10  13    7.70    2.10
   9  10  13    7.00    2.20
   9  10  13    4.10    4.80
  -7  -9 -12    0.50    3.70
   7   9  12    0.60    3.20
  -5  -8 -11    8.70    3.90
   5   8  11    7.10    3.50
  -3  -7 -10    5.40    3.30
   3   7  10    8.50    3.00
  -1  -6  -9  114.39   11.80
  -1  -6  -9  127.59   10.60
   1   6   9  123.49   10.60
   1   6   9  120.19   11.80
   1  -5  -8   86.09    7.70
   1  -5  -8   84.99    8.70
  -1   5   8   80.89    7.70
  -1   5   8   82.29    8.60
   3  -4  -7   48.40    5.80
   3  -4  -7   42.20    6.30
  -3   4   7   49.10    5.60
  -3   4   7   48.90    6.40
   5  -3  -6  102.09   10.10
   5  -3  -6   89.49    9.50
  -5   3   6   99.79    9.90
  -5   3   6   89.39    9.30
   7  -2  -5   38.00    6.30
  -7   2   5   47.90    7.00
  -7   2   5   47.60    7.30
   9  -1  -4    8.30    4.70
  -9   1   4   12.60    5.60
  -9   1   4   12.30    4.90
  11   0  -3    2.10    5.80
 -11   0   3    4.80    5.00
 -11   0   3    0.20    5.20
  10  10  14   26.70    3.90
  10  10  14   20.30    6.50
  10  10  14   21.60    5.80
  -8  -9 -13    5.80    4.20
   8   9  13   18.00    4.60
  -6  -8 -12   34.40    6.00
   6   8  12   40.90    6.00
  -4  -7 -11  170.78   16.10
   4   7  11  173.28   16.10
  -2  -6 -10    8.90    3.40
   2   6  10    7.80    3.20
   0  -5  -9    1.20    1.50
   0  -5  -9   -0.80    2.60
   0   5   9   -0.90    2.50
   0   5   9    0.60    1.50
   2  -4  -8   27.50    4.80
   2  -4  -8   37.30    4.20
  -2   4   8   25.90    4.90
  -2   4   8   27.20    3.80
   4  -3  -7    8.10    3.30
   4  -3  -7    7.90    2.80
  -4   3   7    2.40    2.80
  -4   3   7   -1.70    3.30
   6  -2  -6    3.40    3.70
   6  -2  -6    5.00    3.40
  -6   2   6    7.50    4.50
  -6   2   6   -0.90    3.40
   8  -1  -5   11.90    4.50
   8  -1  -5   -1.40    3.70
  -8   1   5    4.60    4.40
  -8   1   5    3.80    5.20
  10   0  -4    4.50    4.70
 -10   0   4    5.00    5.30
 -10   0   4    6.60    5.50
   9   9  14   10.00    2.30
   9   9  14    4.50    4.00
   9   9  14    6.50    2.00
  -7  -8 -13   -1.20    3.20
   7   8  13    2.30    3.70
  -5  -7 -12  145.19   14.50
   5   7  12  158.08   14.50
  -3  -6 -11  218.88   20.40
   3   6  11  234.68   20.30
  -1  -5 -10  153.58   13.80
  -1  -5 -10  147.79   12.60
   1   5  10  140.49   13.60
   1  -4  -9  247.88   22.50
   1  -4  -9  255.37   21.80
  -1   4   9  267.37   22.50
  -1   4   9  249.97   21.80
   3  -3  -8  157.78   15.00
  -3   3   8  159.08   14.30
  -3   3   8  167.58   15.00
   5  -2  -7    2.20    3.20
   5  -2  -7   -3.20    2.70
  -5   2   7    4.00    2.80
  -5   2   7    7.00    3.90
   7  -1  -6   31.10    6.10
  -7   1   6   42.40    6.30
  -7   1   6   34.30    6.50
   9   0  -5   -2.90    4.10
  -9   0   5    5.40    4.80
  -9   0   5    2.70    5.20
  11   1  -4    8.00    5.30
 -11  -1   4    3.40    5.70
  10   9  15    7.50    4.90
  10   9  15    5.60    5.70
  10   9  15   11.60    3.40
  -8  -8 -14   -1.90    3.30
   8   8  14    0.00    3.40
  -6  -7 -13    2.00    3.40
   6   7  13    2.60    3.40
  -4  -6 -12    9.80    3.70
   4   6  12   14.30    3.70
   2   5  11   19.80    3.60
   0  -4 -10   16.10    3.90
   0  -4 -10   20.50    2.70
   0   4  10   12.00    3.90
   2  -3  -9    4.50    3.20
   2  -3  -9    8.90    2.50
  -2   3   9    8.40    3.50
  -2   3   9    9.40    2.40
   4  -2  -8   52.19    7.10
   4  -2  -8   57.99    6.60
  -4   2   8   58.39    7.30
  -4   2   8   47.40    6.30
   6  -1  -7   31.90    5.40
   6  -1  -7   25.10    5.40
  -6   1   7   33.50    6.30
  -6   1   7   26.10    5.20
   8   0  -6   75.39    9.80
  -8   0   6   81.99   10.30
  -8   0   6   72.99    9.70
  10   1  -5   10.80    5.80
 -10  -1   5   12.40    6.10
   9   8  15    1.10    2.20
   9   8  15    4.50    4.20
   9   8  15    0.70    2.30
  -7  -7 -14   25.10    5.10
  -5  -6 -13   63.99    7.90
   5   6  13   76.59    7.90
  -3  -5 -12   36.00    5.70
   3   5  12   45.30    5.80
  -1  -4 -11   50.19    4.90
  -1  -4 -11   54.89    4.90
  -1  -4 -11   58.49    6.90
   1   4  11   51.39    6.40
   1  -3 -10   55.49    6.60
   1  -3 -10   42.20    5.00
  -1   3  10   50.99    6.20
  -1   3  10   53.69    5.80
   3  -2  -9   10.10    3.40
   3  -2  -9   14.20    3.30
  -3   2   9   10.60    4.00
  -3   2   9    9.40    2.80
   5  -1  -8    2.30    3.20
   5  -1  -8   10.20    3.80
  -5   1   8   11.20    4.60
  -5   1   8   10.60    3.30
   7   0  -7   13.60    4.60
  -7   0   7    1.70    4.00
  -7   0   7    2.50    5.10
   9   1  -6   30.90    6.60
  -9  -1   6   35.10    6.80
  -9  -1   6   37.60    8.10
  11   2  -5   -3.70    5.60
 -11  -2   5    9.40    6.40
 -11  -2   5   -2.60    5.30
  10   8  16   18.40    5.20
  10   8  16   14.40    5.10
  -8  -7 -15   28.10    5.40
   8   7  15   42.60    6.10
   8   7  15   34.60    3.70
  -6  -6 -14   60.29    7.50
   6   6  14   69.09    7.60
  -4  -5 -13   69.69    7.70
   4   5  13   69.79    7.60
  -2  -4 -12   96.49   10.00
   2   4  12  105.49   10.00
   0  -3 -11   40.50    4.20
   0  -3 -11   50.69    5.60
   0  -3 -11   33.90    4.10
   0   3  11   34.70    5.50
   2  -2 -10    1.70    2.30
   2  -2 -10    1.20    2.90
  -2   2  10    2.10    2.20
  -2   2  10   -1.90    3.10
   4  -1  -9   32.60    4.90
   4  -1  -9   26.20    5.20
  -4   1   9   42.00    6.00
  -4   1   9   34.80    4.90
   6   0  -8   27.70    5.00
   6   0  -8   20.70    5.10
  -6   0   8   20.50    6.20
  -6   0   8   21.80    4.70
   8   1  -7    3.80    4.60
  -8  -1   7   10.50    4.90
  -8  -1   7   17.40    6.10
  10   2  -6    7.60    5.70
 -10  -2   6   10.80    6.20
 -10  -2   6    5.20    5.10
   9   7  16    4.80    4.20
   9   7  16    6.50    2.80
  -7  -6 -15   14.30    4.00
   7   6  15   20.80    2.60
   7   6  15   14.20    4.70
  -5  -5 -14   54.09    6.90
   5   5  14   55.79    6.90
  -3  -4 -13    7.60    3.30
   3   4  13   10.10    3.50
  -1  -3 -12   38.70    4.10
  -1  -3 -12   41.60    4.10
  -1  -3 -12   35.20    5.70
   1   3  12   50.69    6.10
   1  -2 -11   94.49    9.10
   1  -2 -11  106.29    9.10
   1  -2 -11   92.59    9.90
  -1   2  11  100.19    9.90
   3  -1 -10   73.59    8.10
   3  -1 -10   77.09    7.40
  -3   1  10   69.39    8.30
  -3   1  10   70.59    7.30
   5   0  -9   45.60    6.30
   5   0  -9   37.70    6.50
  -5   0   9   50.99    6.20
  -5   0   9   47.50    7.20
   7   1  -8   15.90    4.60
   7   1  -8    6.50    4.70
  -7  -1   8   19.50    4.80
  -7  -1   8   16.60    6.00
  -9  -2   7   26.80    5.80
  -9  -2   7   17.50    6.90
  11   3  -6    1.40    6.20
 -11  -3   6    5.10    6.30
 -11  -3   6    7.00    6.80
 -10  -7 -17   51.09    6.20
  10   7  17   58.19    6.60
  -8  -6 -16   56.69    5.60
  -8  -6 -16   41.90    6.70
   8   6  16   59.69    5.80
   8   6  16   63.39    7.30
  -6  -5 -15   37.60    5.90
   6   5  15   33.80    3.90
   6   5  15   45.40    6.20
  -4  -4 -14  151.48   15.00
  -4  -4 -14  172.68   13.90
   4   4  14  153.18   15.00
  -2  -3 -13   36.10    3.80
  -2  -3 -13   35.30    3.80
  -2  -3 -13   39.40    5.60
   2   3  13   43.80    5.80
   0  -2 -12   46.80    5.10
   0  -2 -12   50.09    5.20
   0  -2 -12   54.79    6.40
   0   2  12   55.79    6.80
   2  -1 -11   11.30    3.10
   2  -1 -11    8.80    2.70
   2  -1 -11    3.20    3.20
  -2   1  11   10.00    3.90
   4   0 -10    7.90    4.00
   4   0 -10   11.60    3.20
  -4   0  10   17.80    3.70
  -4   0  10    8.50    4.30
   6   1  -9   12.40    4.40
   6   1  -9   23.70    5.30
  -6  -1   9   26.90    6.00
   8   2  -8   -4.00    4.90
  -8  -2   8    5.40    6.10
  -8  -2   8   -3.70    4.20
  10   3  -7    1.30    5.50
 -10  -3   7   12.10    6.60
   9   6  17   10.60    4.40
   9   6  17    8.30    3.10
  -7  -5 -16   -4.90    3.90
  -7  -5 -16    3.80    2.20
   7   5  16    0.80    2.20
   7   5  16   -3.40    3.70
  -5  -4 -15   11.40    2.40
  -5  -4 -15   11.50    3.80
   5   4  15   10.80    2.40
   5   4  15    8.20    4.00
  -3  -3 -14   67.79    8.20
  -3  -3 -14   77.99    6.90
   3   3  14   75.39    8.10
  -1  -2 -13  132.59   10.90
  -1  -2 -13  104.49   11.70
  -1  -2 -13  124.39   10.80
   1   2  13  121.49   11.90
   1  -1 -12  216.68   19.00
   1  -1 -12  202.58   19.70
   1  -1 -12  240.98   19.10
  -1   1  12  206.38   19.70
   3   0 -11  241.78   21.70
   3   0 -11  260.57   21.90
   3   0 -11  256.87   22.50
  -3   0  11  234.88   22.40
   5   1 -10   67.89    8.50
   5   1 -10   68.89    7.70
  -5  -1  10   80.39    9.10
   7   2  -9   59.09    8.90
   7   2  -9   80.99    9.30
  -7  -2   9   66.29    8.60
  -7  -2   9   73.19   10.50
   9   3  -8   -6.00    4.70
  -9  -3   8    4.40    5.30
  -9  -3   8    7.70    6.40
 -11  -4   7   20.70    9.20
 -11  -4   7   11.90    7.30
 -10  -6 -18    7.40    3.40
  -8  -5 -17    9.00    3.70
  -8  -5 -17    8.90    3.50
   8   5  17   10.90    3.10
   8   5  17    3.50    3.80
  -6  -4 -16   11.50    2.90
  -6  -4 -16   12.30    5.40
   6   4  16   15.30    4.40
   6   4  16   17.00    3.20
  -4  -3 -15    3.80    3.20
  -4  -3 -15   -2.40    2.10
   4   3  15    5.50    4.10
   4   3  15    0.70    2.00
  -2  -2 -14    1.00    3.10
  -2  -2 -14    0.70    2.00
   2   2  14    0.40    3.70
   0  -1 -13   97.89    8.50
   0  -1 -13   92.69    8.50
   0  -1 -13   73.99    9.30
   0   1  13   90.79    9.70
   2   0 -12   21.80    5.10
   2   0 -12   24.90    4.40
   2   0 -12   39.90    4.80
  -2   0  12   34.20    6.00
   4   1 -11    5.10    3.80
   4   1 -11    5.20    3.00
   4   1 -11    5.10    4.20
  -4  -1  11    4.70    5.00
   6   2 -10   -2.10    3.20
   6   2 -10    7.90    4.60
   6   2 -10    1.50    4.60
   8   3  -9   51.59    8.50
  -8  -3   9   54.89    8.00
  -8  -3   9   56.59    9.50
  10   4  -8   16.20    7.40
 -10  -4   8   19.20    6.90
 -10  -4   8    7.10    7.40
  -9  -5 -18    4.60    3.20
  -7  -4 -17    3.50    2.90
  -7  -4 -17    0.00    3.00
   7   4  17    4.30    2.90
   7   4  17    2.70    3.80
  -5  -3 -16   -4.10    3.50
  -5  -3 -16    1.50    3.30
   5   3  16    5.80    2.70
   5   3  16    3.30    4.10
  -3  -2 -15   82.29    8.90
  -3  -2 -15  101.49    9.00
   3   2  15   87.79    9.20
   3   2  15   68.49    7.70
  -1  -1 -14  169.08   14.70
  -1  -1 -14  176.08   14.80
  -1  -1 -14  153.38   15.60
   1   1  14  169.18   15.90
   1   0 -13   29.30    5.70
   1   0 -13   37.20    4.70
   1   0 -13   33.30    4.70
  -1   0  13   26.90    5.90
   3   1 -12    7.60    4.00
   3   1 -12   17.00    4.10
   3   1 -12   15.90    3.80
  -3  -1  12   14.90    5.20
   5   2 -11   19.20    5.40
   5   2 -11   14.60    4.20
   5   2 -11   23.00    5.70
   7   3 -10   -2.90    4.60
   7   3 -10   -5.10    3.70
   7   3 -10    1.80    5.10
  -7  -3  10    4.90    6.00
   9   4  -9   12.30    7.30
  -9  -4   9   -0.10    7.00
 -11  -5   8    6.70    9.30
  -8  -4 -18   15.00    3.80
  -8  -4 -18    9.50    3.30
   8   4  18   12.10    4.20
  -6  -3 -17   19.70    3.90
  -6  -3 -17   10.00    4.70
   6   3  17   26.70    5.10
   6   3  17   25.20    4.20
  -4  -2 -16   90.69    8.50
  -4  -2 -16   73.19    9.20
   4   2  16   91.69    8.50
   4   2  16   92.39    9.70
  -2  -1 -15   56.79    6.50
  -2  -1 -15   63.59    8.00
   2   1  15   72.09    8.70
   2   1  15   71.39    6.80
   0   0 -14   99.39    8.80
   0   0 -14   65.09    9.20
   0   0 -14   87.79    8.20
   0   0  14   80.09   10.40
   2   1 -13  140.49   14.10
   2   1 -13  151.08   13.40
   2   1 -13  141.69   13.30
  -2  -1  13  141.09   14.40
   4   2 -12    3.60    3.70
   4   2 -12    8.20    3.50
   4   2 -12   -0.20    4.60
  -4  -2  12    0.70    5.70
   6   3 -11   -3.20    5.10
   6   3 -11    4.90    4.80
   6   3 -11    9.40    4.40
  -6  -3  11   -5.20    5.80
   8   4 -10   -4.10    5.60
   8   4 -10   -1.50    5.50
  -8  -4  10    0.20    6.10
  10   5  -9   11.80    7.80
 -10  -5   9   11.70    8.40
  -9  -4 -19    4.50    3.80
   9   4  19   -1.70    4.20
  -7  -3 -18    5.20    3.60
  -7  -3 -18    8.30    3.80
   7   3  18   13.20    4.40
   7   3  18   10.80    3.90
  -5  -2 -17   36.30    4.90
  -5  -2 -17   16.10    5.00
   5   2  17   37.20    5.00
   5   2  17   29.20    5.80
  -3  -1 -16    8.80    3.90
  -3  -1 -16    4.60    3.00
   3   1  16    9.20    3.30
   3   1  16    9.00    4.50
  -1   0 -15    3.90    3.90
  -1   0 -15    4.10    3.00
   1   0  15    8.10    4.60
   1   0  15    1.60    3.00
   1   1 -14   49.00    5.60
   1   1 -14   50.39    5.70
   1   1 -14   34.40    6.50
  -1  -1  14   42.80    7.30
   3   2 -13   56.79    8.90
   3   2 -13   61.89    7.70
   3   2 -13   78.09    7.80
  -3  -2  13   80.09   10.20
   5   3 -12   14.40    6.00
   5   3 -12   17.10    5.30
   5   3 -12   11.50    5.50
  -5  -3  12   14.00    6.40
   7   4 -11   80.19   11.60
   7   4 -11  100.59   11.20
  -7  -4  11   86.79   12.30
  -9  -5  10   14.70    8.00
  -8  -3 -19   18.60    3.90
  -8  -3 -19   43.30    5.70
  -6  -2 -18   19.70    5.00
  -6  -2 -18   32.50    5.20
   6   2  18   32.40    5.80
   6   2  18   38.70    5.50
  -4  -1 -17   34.10    5.00
  -4  -1 -17   33.20    5.90
   4   1  17   28.20    6.10
   4   1  17   33.60    5.20
  -2   0 -16  122.79   13.20
  -2   0 -16  125.79   12.30
   2   0  16  144.89   12.60
   2   0  16  145.39   13.70
   0   1 -15   16.00    3.80
   0   1 -15    3.00    4.50
   0  -1  15    5.60    5.00
   2   2 -14   35.00    6.80
   2   2 -14   34.50    5.50
   2   2 -14   37.00    5.50
  -2  -2  14   37.20    7.40
   4   3 -13    7.80    5.80
   4   3 -13   15.70    4.60
  -4  -3  13   16.80    6.90
   6   4 -12   14.10    5.80
   6   4 -12   14.30    6.20
  -6  -4  12   17.20    6.90
   8   5 -11    8.30    6.10
  -8  -5  11    8.20    7.30
  10   6 -10    2.10    7.50
  -7  -2 -19    6.50    4.60
  -7  -2 -19   17.70    4.40
   7   2  19   10.30    4.50
   7   2  19   19.00    4.70
  -5  -1 -18   13.90    4.10
  -5  -1 -18   11.40    4.80
   5   1  18   16.90    4.40
   5   1  18   11.00    5.00
  -3   0 -17   -5.60    4.00
  -3   0 -17    4.70    3.30
   3   0  17    6.00    3.60
   3   0  17   -0.10    5.10
  -1   1 -16   60.69    6.70
  -1   1 -16   54.39    8.20
   1  -1  16   59.49    7.40
   1  -1  16   58.59    8.70
   1   2 -15   11.70    4.90
   1   2 -15   10.70    3.90
   1   2 -15    6.90    3.90
  -1  -2  15   10.60    5.90
   3   3 -14   74.79    9.00
   3   3 -14   80.19   12.30
   3   3 -14   67.29    8.70
  -3  -3  14   83.49   11.30
   5   4 -13   85.19   10.50
   5   4 -13  115.89   11.40
  -5  -4  13  102.49   12.40
   7   5 -12    4.50    5.80
  -7  -5  12   12.30    7.80
   9   6 -11   26.20    8.60
  -9  -6  11   37.40   10.60
  -8  -2 -20    1.50    4.30
  -6  -1 -19   -2.90    3.90
  -6  -1 -19   -0.40    3.80
   6   1  19    3.60    4.00
   6   1  19    8.50    4.70
  -4   0 -18    1.50    3.40
  -4   0 -18    0.70    3.90
   4   0  18    2.00    3.70
   4   0  18    4.10    4.60
  -2   1 -17   32.40    5.60
  -2   1 -17   31.50    6.20
   2  -1  17   38.10    5.90
   2  -1  17   37.10    7.20
   0   2 -16    0.10    3.60
   0   2 -16    1.20    4.40
   0  -2  16    0.80    3.80
   0  -2  16    2.90    6.40
   2   3 -15    3.50    3.80
   2   3 -15    2.50    3.60
  -2  -3  15   -0.80    5.80
   4   4 -14   38.70    6.70
   4   4 -14   39.20    6.40
  -4  -4  14   31.80    8.00
   6   5 -13    3.00    5.20
  -6  -5  13   13.00    7.60
  -8  -6  12    8.90    7.90
  -7  -1 -20   12.60    5.10
   7   1  20   12.80    5.10
   7   1  20    6.80    5.70
  -5   0 -19   24.70    6.00
  -5   0 -19   39.60    6.00
   5   0  19   27.40    6.50
   5   0  19   34.30    6.20
  -3   1 -18   -4.90    3.60
  -3   1 -18   -3.50    4.10
   3  -1  18   -0.30    5.00
   3  -1  18    4.30    4.10
  -1   2 -17    2.50    3.80
  -1   2 -17    2.60    4.40
   1  -2  17    4.70    3.90
   1   3 -16   23.00    8.00
   1   3 -16   36.10    5.80
  -1  -3  16   34.80    7.70
   3   4 -15   19.70    4.80
   3   4 -15    2.00    5.10
   3   4 -15   17.20    4.80
  -3  -4  15   22.60    7.00
   5   5 -14    9.50    4.90
  -5  -5  14   -0.10    6.20
   7   6 -13    7.90    6.00
  -7  -6  13    2.20    6.90
  -9  -7  12   10.10    9.10
  -6   0 -20   15.80    6.10
  -6   0 -20    4.80    4.70
   6   0  20    8.00    5.30
   6   0  20    0.50    4.90
  -4   1 -19   74.39    8.10
  -4   1 -19   46.40    8.20
   4  -1  19   71.69    9.20
   4  -1  19   62.49    9.40
  -2   2 -18   57.99    8.90
  -2   2 -18   72.19    8.40
   2  -2  18   70.39    9.10
   0   3 -17  113.19   13.70
   0   3 -17   87.29   12.00
   0  -3  17   92.69   10.50
   0  -3  17   94.89   12.40
   2   4 -16   37.20    8.60
   2   4 -16   85.49    8.90
   2   4 -16   73.69    8.70
  -2  -4  16   57.29   10.20
   4   5 -15   32.10    6.30
  -4  -5  15   21.40    7.90
   6   6 -14   12.30    5.90
  -6  -6  14   12.00    7.80
   8   7 -13    8.70    7.10
  -8  -7  13   14.20    9.20
  -7   0 -21    6.50    5.10
  -7   0 -21    2.00    4.60
   7   0  21    6.10    5.30
   7   0  21    1.70    5.90
  -5   1 -20   -6.70    3.80
  -5   1 -20    0.60    4.60
   5  -1  20    6.40    5.50
  -3   2 -19    2.00    4.80
  -3   2 -19   -1.10    4.40
   3  -2  19    2.90    4.70
  -1   3 -18    1.80    4.00
  -1   3 -18    1.90    5.00
   1  -3  18    6.90    5.90
   1  -3  18    0.10    4.50
   1   4 -17   -1.50    4.90
   1   4 -17   -3.10    4.10
  -1  -4  17   -5.40    6.00
  -1  -4  17    6.40    5.20
   3   5 -16    6.90    4.80
  -3  -5  16   -2.50    6.30
   5   6 -15    2.10    5.30
  -5  -6  15    4.00    7.40
   7   7 -14   17.40    6.90
  -7  -7  14   15.10    9.00
  -6   1 -21    9.10    4.70
  -6   1 -21    6.80    5.10
   6  -1  21   11.90    6.20
   6  -1  21   13.70    6.30
  -4   2 -20   10.60    5.70
  -4   2 -20   22.10    5.20
   4  -2  20   22.00    6.40
  -2   3 -19   28.50    5.80
  -2   3 -19   19.80    6.00
   2  -3  19   36.80    8.50
   2  -3  19   22.90    6.40
   0   4 -18   47.80    6.80
   0  -4  18   27.90    7.10
   0  -4  18   43.80    9.30
   2   5 -17   50.19    7.50
  -2  -5  17   51.39   10.40
   4   6 -16    2.00    4.90
  -4  -6  16   -4.90    6.80
  -6  -7  15    7.10    8.40
  -5   2 -21   20.00    5.50
  -5   2 -21    5.90    5.40
  -3   3 -20   16.30    5.20
  -3   3 -20    4.70    5.60
   3  -3  20   18.60    6.30
   3  -3  20   15.90    6.90
  -1   4 -19   -6.60    4.40
   1  -4  19   -2.10    6.10
   1  -4  19    0.30    5.30
   1   5 -18    2.30    4.60
  -1  -5  18   14.30    7.50
   3   6 -17   12.10    5.70
  -3  -6  17   37.30    9.40
  -5  -7  16   36.90   10.20
  -4   3 -21   11.00    6.30
  -4   3 -21   10.80    5.40
   4  -3  21   16.50    7.70
  -2   4 -20    0.10    4.70
   2  -4  20   13.80    6.80
   0   5 -19    5.30    5.10
   0  -5  19    0.00    6.70
   2   6 -18   16.10    5.90
  -2  -6  18   16.90    8.70
  -4  -7  17   12.20    8.50
   6   8 -16    2.50    6.50
  -3   4 -21   17.30    6.00
   3  -4  21   19.30    7.90
  -1   5 -20    6.30    5.10
   1  -5  20    0.50    6.70
   1   6 -19   -2.50    4.90
  -1  -6  19   -4.90    7.10
  -3  -7  18   13.80    8.80
   5   8 -17   12.40    6.60
  -2   5 -21   21.50    6.20
   2  -5  21   12.40    7.90
   0   6 -20   38.10    7.70
   0  -6  20   38.90   10.50
   2   7 -19   23.50    6.90
  -2  -7  19   12.60    9.00
   4   8 -18   27.50    7.50
  -1   6 -21    1.10    5.10
   1   7 -20   -9.80    5.10
  -1  -7  20    0.90    8.60
   2  16   1    9.70    6.80
   2  16   1    3.40    4.00
   0  15   0    0.80    4.10
   3  16   2   56.89    8.50
   3  16   2   57.59   11.90
   1  15   1   49.40   10.30
   1  15   1   52.89    8.10
  -1  14   0   35.20    7.10
  -1  14   0   42.10    9.90
  -5  12  -2    8.20    5.60
  -5  12  -2    2.60    6.20
  -4 -16  -3    3.10    6.10
   4  16   3    0.00    3.80
   4  16   3   -4.20    5.50
   2  15   2    4.40    4.10
   0  14   1    3.60    3.90
   0  14   1    5.30    6.20
  -2  13   0   38.60    7.10
  -2  13   0   23.70    8.10
  -4  12  -1   24.10    8.20
  -6  11  -2    7.90    6.00
  -5 -16  -4   16.40    5.90
   5  16   4   18.20    4.90
   5  16   4   18.60    8.20
  -3 -15  -3   19.70    5.60
   3  15   3   14.70    4.60
  -1 -14  -2    8.20    4.60
   1  14   2    3.00    3.40
  -1  13   1    5.70    5.60
  -1  13   1    6.40    4.10
  -3  12   0    2.20    4.30
  -3  12   0    0.40    5.00
  -5  11  -1    5.00    5.10
   6  16   5   15.60    4.50
   6  16   5   17.10    7.40
   6  16   5   10.60    4.30
  -4 -15  -4   37.30    7.00
  -2 -14  -3    4.90    4.30
   2  14   3    6.80    3.50
   0 -13  -2    5.70    4.10
   0  13   2    3.30    3.20
   0  13   2    0.90    4.60
  -2  12   1    1.80    4.00
  -2  12   1   12.10    5.60
   4 -11   0    8.40    5.90
  -4  11   0   21.30    6.40
  -4  11   0    4.30    4.60
   6 -10   1    8.60    7.00
  -6  10  -1   12.70    5.80
  -6  10  -1   21.60    5.90
   7  16   6   -2.30    3.90
   7  16   6    8.40    6.10
  -5 -15  -5    8.90    4.60
   5  15   5    7.80    3.30
  -3 -14  -4   11.00    5.10
   3  14   4   19.50    6.60
   3  14   4   21.70    4.60
  -1 -13  -3    2.00    3.50
   1  13   3    5.10    4.80
   1 -12  -2   75.09    9.90
   1 -12  -2   69.29   12.00
  -1  12   2   87.19   10.60
  -1  12   2   80.29    9.10
   3 -11  -1   21.50    7.30
  -3  11   1   32.40    6.20
  -3  11   1   41.60    7.90
   5 -10   0    7.70    6.10
  -5  10   0    2.50    4.60
  -5  10   0   11.20    5.20
   7  -9   1   11.30    8.10
  -7   9  -1    8.30    6.00
  -7   9  -1    3.40    5.20
   6  15   6   26.30    4.60
   6  15   6   18.50    4.50
  -4 -14  -5   18.20    5.00
   4  14   5   12.90    3.40
   4  14   5   19.90    6.30
  -2 -13  -4   19.90    4.70
   2  13   4   28.20    7.00
   2  13   4   21.30    4.30
   0 -12  -3    4.90    3.50
   0 -12  -3    1.80    4.80
   0  12   3    7.00    4.60
   0  12   3    0.30    3.10
   2 -11  -2    8.90    4.70
   2 -11  -2    1.10    5.20
  -2  11   2   -0.20    3.20
  -2  11   2    1.60    4.60
   4 -10  -1    2.10    5.40
  -4  10   1    4.70    4.50
  -4  10   1    5.70    4.30
  -6   9   0    2.40    4.90
  -6   9   0    5.80    5.30
   8  -8   1    7.50    7.30
  -8   8  -1    1.60    5.10
   7  15   7    6.00    3.70
   5  14   6   41.00    5.50
   5  14   6   43.80    8.40
  -3 -13  -5   62.79    7.60
   3  13   5   63.99    7.10
   3  13   5   79.09   11.10
  -1 -12  -4   78.29    8.50
   1  12   4   98.09   10.50
   1  12   4   73.89    8.30
   1 -11  -3  113.39   11.80
   1 -11  -3  142.09   14.10
  -1  11   3  138.89   13.80
  -1  11   3  109.29   11.90
   3 -10  -2   62.69    8.50
  -3  10   2   71.89   10.30
  -3  10   2   72.89    8.90
   5  -9  -1   19.20    6.60
  -5   9   1   17.30    5.70
  -5   9   1   25.20    5.80
  -7   8   0   21.90    6.60
   9  -7   1   19.10    8.20
  -9   7  -1   12.70    5.50
   8  15   8    6.80    2.90
   8  15   8    2.00    3.70
   6  14   7    7.60    2.90
   6  14   7   11.00    5.80
   6  14   7    7.60    3.10
  -4 -13  -6    1.00    3.40
   4  13   6    2.70    5.00
   4  13   6    2.50    2.60
  -2 -12  -5   76.29    8.40
   2  12   5   94.79    8.30
   2  12   5   64.99   10.20
   0 -11  -4   13.50    4.00
   0 -11  -4   14.00    5.70
   0  11   4   25.00    5.80
   0  11   4   21.20    4.20
   2 -10  -3    7.50    5.60
   2 -10  -3   12.00    3.80
  -2  10   3   11.90    3.90
  -2  10   3   12.70    4.80
   4  -9  -2    0.50    4.50
   4  -9  -2    3.00    3.50
  -4   9   2    2.20    3.70
   6  -8  -1   23.30    6.40
  -6   8   1   17.40    5.80
  -6   8   1   20.50    5.90
  -8   7   0   24.60    7.20
  -8   7   0   20.20    5.70
   7  14   8    9.80    2.90
   7  14   8   11.70    5.60
   5  13   7    7.30    2.60
   5  13   7   10.50    5.40
  -3 -12  -6   60.79    7.20
  -3 -12  -6   58.19    9.20
   3  12   6   47.90    5.90
   3  12   6   56.49    9.10
  -1 -11  -5   21.40    4.20
  -1 -11  -5   20.30    6.40
   1  11   5   15.80    4.80
   1  11   5   23.90    4.00
   1 -10  -4   19.40    4.10
   1 -10  -4    9.80    5.30
  -1  10   4   21.00    4.10
  -1  10   4   28.50    5.90
   3  -9  -3   41.80    7.80
   3  -9  -3   29.40    5.40
  -3   9   3   34.40    5.80
  -3   9   3   29.10    6.60
   5  -8  -2    0.90    3.50
   5  -8  -2    6.40    5.00
  -5   8   2   12.50    4.70
  -5   8   2    8.60    4.30
   7  -7  -1    4.70    5.40
  -7   7   1    4.80    4.50
  -7   7   1    8.50    4.70
  -9   6   0    8.00    5.30
  -9   6   0   -4.00    4.80
   8  14   9   16.40    3.20
   8  14   9    7.80    6.30
   8  14   9    7.30    3.50
   6  13   8   10.30    5.50
   6  13   8   22.10    3.90
   6  13   8   27.80    3.70
  -4 -12  -7  151.48   13.40
  -4 -12  -7  142.19   15.70
   4  12   7  148.59   15.40
   4  12   7  144.99   13.20
  -2 -11  -6   86.29    9.10
   2  11   6   96.19    8.80
   2  11   6   88.59   10.50
   0 -10  -5  110.29   12.50
   0 -10  -5  108.19   10.80
   0  10   5  121.69   10.80
   2  -9  -4   47.60    7.60
   2  -9  -4   39.00    5.80
  -2   9   4   42.50    6.00
  -2   9   4   39.70    6.90
   4  -8  -3   10.50    3.70
   4  -8  -3    6.00    4.90
  -4   8   3    6.00    4.30
   6  -7  -2   28.10    6.10
  -6   7   2   15.40    5.10
  -6   7   2   23.40    5.60
   8  -6  -1   -0.30    5.10
  -8   6   1   -0.20    4.50
  -8   6   1   -1.60    4.70
 -10   5   0   -3.20    5.00
   9  14  10    7.10    5.40
   9  14  10    4.50    3.00
   7  13   9    5.90    2.80
   7  13   9    5.80    2.40
   7  13   9    2.30    4.30
  -5 -12  -8   42.50    7.90
   5  12   8   40.80    7.40
   5  12   8   36.10    4.60
  -3 -11  -7    8.40    3.00
   3  11   7    7.30    2.30
   3  11   7    7.50    4.40
  -1 -10  -6    9.50    2.90
  -1 -10  -6   10.00    4.20
   1  10   6   12.40    2.70
   1  10   6    4.50    4.40
   1  -9  -5  180.28   17.20
   1  -9  -5  157.08   15.50
  -1   9   5  175.28   15.60
  -1   9   5  191.08   16.90
   3  -8  -4   63.59    7.80
   3  -8  -4   85.19   10.30
  -3   8   4   53.39    7.10
  -3   8   4   80.09    9.20
   5  -7  -3   33.20    6.60
  -5   7   3   34.40    6.10
  -5   7   3   26.00    5.90
   7  -6  -2   79.89    9.90
  -7   6   2   79.79    9.50
  -7   6   2   79.09    9.80
   9  -5  -1   18.40    6.90
  -9   5   1   25.60    7.50
  -9   5   1    2.80    5.40
   8  13  10   81.19   10.90
   8  13  10   72.59    7.50
  -6 -12  -9   29.30    6.80
   6  12   9   39.20    4.10
   6  12   9   41.20    7.40
   6  12   9   37.40    4.60
  -4 -11  -8   14.90    5.80
   4  11   8    7.10    4.40
   4  11   8    7.70    2.00
  -2 -10  -7   68.99    7.20
  -2 -10  -7   80.19   10.20
   2  10   7   78.89    7.30
   2  10   7   76.89    9.70
   0  -9  -6   28.60    6.00
   0  -9  -6   31.60    4.40
   0   9   6   17.30    5.20
   0   9   6   30.80    4.10
   2  -8  -5    3.50    4.20
   2  -8  -5    7.10    3.00
  -2   8   5    7.10    2.90
  -2   8   5    5.60    3.70
   4  -7  -4   23.20    6.00
   4  -7  -4   26.40    4.70
  -4   7   4   21.60    4.80
  -4   7   4   20.70    5.10
   6  -6  -3    6.50    4.50
   6  -6  -3    0.20    3.20
  -6   6   3    4.20    3.80
  -6   6   3    2.00    4.20
   8  -5  -2    3.40    5.00
  -8   5   2    7.30    5.40
  -8   5   2    2.90    4.60
  10  -4  -1    6.90    6.80
 -10   4   1    3.60    5.10
 -10   4   1    3.70    5.70
   9  13  11   15.80    3.20
   9  13  11   11.80    6.00
  -7 -12 -10    2.20    4.30
   7  12  10    2.00    1.70
   7  12  10    1.20    1.70
   7  12  10    1.70    4.00
  -5 -11  -9   14.10    5.40
   5  11   9    9.90    2.30
   5  11   9   10.40    4.70
   5  11   9   13.80    2.20
  -3 -10  -8   59.29    8.30
  -3 -10  -8   44.70    5.40
   3  10   8   54.79    5.30
   3  10   8   65.79    8.30
  -1  -9  -7   58.19    5.40
  -1  -9  -7   47.40    7.10
   1   9   7   33.80    4.50
   1   9   7   46.60    6.90
   1  -8  -6   41.40    7.20
  -1   8   6   44.60    6.90
  -1   8   6   46.30    5.50
   3  -7  -5  106.69   11.20
   3  -7  -5  125.69   12.40
  -3   7   5  130.29   11.40
  -3   7   5  115.99   12.10
   5  -6  -4   57.49    7.80
   5  -6  -4   74.79    9.30
  -5   6   4   87.59    9.50
  -5   6   4   85.99   10.80
   7  -5  -3   14.90    5.40
  -7   5   3   40.20    6.70
  -7   5   3   20.10    5.70
   9  -4  -2   19.50    5.90
  -9   4   2   23.80    6.80
  -9   4   2   20.10    6.00
  -8 -12 -11    6.30    4.80
   8  12  11    2.90    1.60
   8  12  11    5.30    4.20
   8  12  11    4.70    1.80
  -6 -11 -10   -0.60    3.90
   6  11  10    6.60    4.10
  -4 -10  -9  119.29   13.30
   4  10   9  130.69   13.20
   4  10   9  133.49   11.00
   4  10   9  122.79   11.00
  -2  -9  -8    5.40    3.50
  -2  -9  -8    2.50    1.90
   2   9   8    4.30    1.70
   2   9   8    4.00    3.30
   0  -8  -7   25.00    3.50
   0  -8  -7   19.50    4.80
   0   8   7   18.50    3.10
   0   8   7   22.30    4.50
   2  -7  -6  120.59   11.20
   2  -7  -6  103.69    9.80
  -2   7   6   94.89    9.80
  -2   7   6  103.39   10.60
   4  -6  -5   76.09    8.70
   4  -6  -5   99.09    9.90
   6  -5  -4    3.70    4.00
  -6   5   4    0.70    4.00
  -6   5   4    0.90    3.50
   8  -4  -3    4.40    4.50
  -8   4   3    4.90    5.20
  -8   4   3    7.10    4.80
  10  -3  -2    6.60    5.90
 -10   3   2   15.10    5.50
 -10   3   2    9.60    6.60
   9  12  12    2.30    5.60
   9  12  12    9.80    2.20
   9  12  12   10.60    2.00
  -7 -11 -11   70.49   10.00
   7  11  11   66.49    9.40
  -5 -10 -10   51.19    8.20
   5  10  10   58.59    8.60
  -3  -9  -9   48.80    7.00
   3   9   9   36.00    3.70
   3   9   9   59.39    7.50
  -1  -8  -8   38.20    6.50
  -1  -8  -8   36.10    4.20
   1   8   8   41.60    4.10
   1   8   8   46.00    6.40
   1  -7  -7    8.70    2.40
   1  -7  -7   10.00    3.50
  -1   7   7    9.30    3.40
  -1   7   7    9.80    2.30
   3  -6  -6    6.70    3.70
   3  -6  -6    9.00    3.10
  -3   6   6    7.00    3.50
  -3   6   6    8.80    2.80
   5  -5  -5    7.80    4.30
   5  -5  -5    5.20    3.50
  -5   5   5   10.30    4.30
  -5   5   5   14.60    4.10
   7  -4  -4   10.00    4.10
   7  -4  -4   11.60    4.90
  -7   4   4   20.80    5.30
  -7   4   4    5.40    4.80
   9  -3  -3    3.40    4.60
  -9   3   3   -0.20    4.60
  -9   3   3    0.90    4.50
  11  -2  -2    5.10    6.40
 -11   2   2    6.20    5.10
  10  12  13   16.00    7.30
  -8 -11 -12   11.30    4.90
   8  11  12    8.70    4.70
  -6 -10 -11   93.19   11.30
   6  10  11   79.89   10.80
  -4  -9 -10  238.58   23.20
   4   9  10  268.67   23.30
  -2  -8  -9  229.08   18.10
  -2  -8  -9  196.38   19.60
   2   8   9  210.98   19.40
   2   8   9  206.18   18.00
   0  -7  -8   74.19    8.20
   0  -7  -8   72.69    6.90
   0   7   8   69.79    8.00
   0   7   8   74.59    6.80
   2  -6  -7   50.39    5.80
   2  -6  -7   59.99    7.30
  -2   6   7   55.39    6.60
  -2   6   7   49.70    5.50
   4  -5  -6   68.09    7.50
   4  -5  -6   73.79    8.50
  -4   5   6   73.89    8.20
  -4   5   6   74.69    7.70
   6  -4  -5    5.90    3.90
   6  -4  -5   -3.50    3.00
  -6   4   5    2.40    3.90
  -6   4   5    1.40    3.70
   8  -3  -4    0.90    4.10
  -8   3   4   -0.80    4.60
  -8   3   4    7.20    4.70
  10  -2  -3    9.20    5.90
 -10   2   3    1.50    5.10
 -10   2   3   12.10    6.70
   9  11  13   26.40    6.20
  -7 -10 -12    2.80    4.00
   7  10  12   11.00    4.20
  -5  -9 -11   15.30    4.30
   5   9  11   18.60    4.40
  -3  -8 -10    6.80    3.50
   3   8  10    0.50    3.00
  -1  -7  -9    2.20    3.30
  -1  -7  -9    0.40    1.60
   1   7   9    4.00    2.90
   1   7   9    1.50    1.40
   1  -6  -8   78.69    7.30
   1  -6  -8   80.19    8.40
  -1   6   8   67.79    7.20
  -1   6   8   87.99    8.40
   3  -5  -7  109.19   11.00
   3  -5  -7  108.59   10.20
  -3   5   7  112.69   10.20
  -3   5   7  102.09   10.90
   5  -4  -6  167.08   16.20
   5  -4  -6  161.98   15.60
  -5   4   6  174.78   15.80
  -5   4   6  178.28   16.20
   7  -3  -5    8.20    4.30
   7  -3  -5    7.60    4.10
  -7   3   5    1.50    4.80
  -7   3   5    7.80    4.70
   9  -2  -4   53.29    8.70
  -9   2   4   62.99    9.30
  -9   2   4   81.49   10.50
  11  -1  -3   19.10    7.10
 -11   1   3   28.60    6.70
 -11   1   3   20.90    7.40
  10  11  14    6.40    6.10
  -8 -10 -13    1.10    4.00
   8  10  13    7.30    4.00
  -6  -9 -12   44.40    7.30
   6   9  12   49.60    7.20
  -4  -8 -11  153.18   15.20
   4   8  11  162.78   15.00
  -2  -7 -10   69.29    8.20
   2   7  10   71.99    7.90
   0  -6  -9   45.20    4.50
   0  -6  -9   54.09    6.60
   0   6   9   52.79    6.50
   0   6   9   36.00    4.30
   2  -5  -8   37.10    5.80
   2  -5  -8   41.30    4.80
  -2   5   8   33.90    4.50
  -2   5   8   36.70    5.50
   4  -4  -7    4.10    3.40
   4  -4  -7    4.50    2.90
  -4   4   7    9.40    3.10
  -4   4   7    7.80    3.80
   6  -3  -6   47.20    6.80
   6  -3  -6   61.79    7.40
  -6   3   6   49.99    7.60
  -6   3   6   40.20    7.40
   8  -2  -5    3.30    4.10
  -8   2   5    3.70    4.90
  -8   2   5    6.40    4.90
  10  -1  -4    5.10    5.00
 -10   1   4    9.20    5.90
  -9 -10 -14   19.60    5.70
   9  10  14   38.60    7.10
  -7  -9 -13    2.20    3.80
   7   9  13    3.00    3.80
  -5  -8 -12  125.59   12.50
   5   8  12  118.79   12.40
  -3  -7 -11  141.49   14.30
   3   7  11  155.28   14.10
  -1  -6 -10   52.99    4.90
  -1  -6 -10   62.59    7.40
   1   6  10   50.99    4.90
   1   6  10   63.59    7.50
   1  -5  -9    7.10    3.20
   1  -5  -9    7.20    2.20
  -1   5   9    6.00    3.10
   3  -4  -8   49.30    5.70
   3  -4  -8   51.69    6.50
  -3   4   8   47.80    5.60
  -3   4   8   58.59    7.00
   5  -3  -7  105.79   11.50
   5  -3  -7  112.79   12.00
  -5   3   7  116.09   12.00
  -5   3   7  147.79   11.80
   7  -2  -6   55.99    7.90
   7  -2  -6   40.30    7.30
  -7   2   6   60.69    8.40
  -7   2   6   51.89    7.70
   9  -1  -5    3.50    4.80
  -9   1   5    9.20    5.80
  -9   1   5    5.70    5.20
  11   0  -4    9.10    5.80
 -11   0   4    0.40    5.80
  10  10  15   -1.90    4.70
  10  10  15    9.10    5.50
  -8  -9 -14    3.50    3.90
   8   9  14   13.10    4.40
  -6  -8 -13    3.20    3.50
   6   8  13    6.10    4.10
  -4  -7 -12    7.40    3.80
   4   7  12   13.00    4.40
  -2  -6 -11    0.90    2.90
   2   6  11    3.00    3.20
   0  -5 -10   26.80    4.90
   0  -5 -10   31.00    3.40
   0   5  10   40.40    5.30
   0   5  10   28.90    3.40
   2  -4  -9  169.08   15.10
   2  -4  -9  169.48   15.80
  -2   4   9  170.18   15.00
  -2   4   9  177.08   15.80
   4  -3  -8   15.70    4.40
   4  -3  -8    9.60    3.30
  -4   3   8   15.10    4.20
  -4   3   8   12.40    3.30
   6  -2  -7   58.69    8.20
   6  -2  -7   65.09    8.10
  -6   2   7   59.99    8.20
  -6   2   7   77.09    9.00
   8  -1  -6   32.60    6.50
  -8   1   6   54.29    7.30
  -8   1   6   47.30    7.70
  10   0  -5    1.70    4.90
 -10   0   5    4.70    7.00
  -9  -9 -15   56.29    8.10
  -7  -8 -14   35.10    6.40
   7   8  14   44.60    6.50
  -5  -7 -13    1.30    3.40
   5   7  13    9.50    3.80
  -3  -6 -12  186.68   16.70
   3   6  12  172.18   16.50
  -1  -5 -11   25.00    3.50
  -1  -5 -11   38.70    5.60
  -1  -5 -11   39.80    3.50
   1   5  11   42.60    5.70
   1  -4 -10   26.90    3.80
   1  -4 -10   29.70    4.90
  -1   4  10   32.40    5.20
   3  -3  -9   19.80    3.60
   3  -3  -9   17.70    4.30
  -3   3   9   20.30    3.50
  -3   3   9   21.00    4.60
   5  -2  -8    1.10    3.40
   5  -2  -8   -5.50    3.10
  -5   2   8   -3.10    4.10
  -5   2   8    4.10    3.10
   7  -1  -7    5.20    4.30
   7  -1  -7   -1.30    3.70
  -7   1   7    4.90    4.70
  -7   1   7    0.90    4.00
   9   0  -6   -1.70    4.70
  -9   0   6   -3.60    4.40
  11   1  -5    4.00    6.10
 -11  -1   5    8.30    6.50
 -11  -1   5   13.40    6.10
  10   9  16   -3.80    5.20
  -8  -8 -15    3.80    3.40
   8   8  15    1.40    3.90
  -6  -7 -14   13.60    4.20
   6   7  14   14.10    4.30
  -4  -6 -13   73.29    8.30
   4   6  13   73.39    8.20
  -2  -5 -12  105.59   11.30
   2   5  12  125.69   11.40
   0  -4 -11  194.08   17.80
   0  -4 -11  206.18   18.80
   0  -4 -11  225.68   17.80
   0   4  11  200.58   18.70
   2  -3 -10  343.57   27.50
   2  -3 -10  324.27   28.20
  -2   3  10  317.67   28.10
  -2   3  10  297.37   27.40
   4  -2  -9   78.29    8.60
   4  -2  -9   75.89    8.00
  -4   2   9   77.19    7.90
  -4   2   9   78.89    8.80
   6  -1  -8   64.99    8.20
   6  -1  -8   64.19    8.40
  -6   1   8   66.29    8.80
  -6   1   8   60.49    7.40
   8   0  -7    9.80    5.00
  -8   0   7   16.80    5.20
  -8   0   7   18.20    6.60
  10   1  -6    0.90    5.20
 -10  -1   6    6.10    6.10
  -9  -8 -16    6.40    4.00
   9   8  16    8.10    5.40
  -7  -7 -15   23.00    5.10
   7   7  15   32.60    5.50
  -5  -6 -14    6.50    3.80
   5   6  14    2.10    3.60
  -3  -5 -13    3.20    3.00
   3   5  13    5.20    3.60
  -1  -4 -12   14.20    2.30
  -1  -4 -12   19.90    4.10
  -1  -4 -12   17.40    2.40
   1   4  12   16.30    4.00
   1  -3 -11    5.40    2.30
   1  -3 -11    6.70    3.30
  -1   3  11    6.60    3.80
   3  -2 -10    1.40    3.00
   3  -2 -10    0.90    2.50
  -3   2  10    5.20    2.70
  -3   2  10    6.40    3.70
   5  -1  -9   38.30    5.80
   5  -1  -9   43.30    6.40
  -5   1   9   42.40    7.00
  -5   1   9   37.50    5.60
   7   0  -8   26.20    5.80
   7   0  -8   20.90    5.30
  -7   0   8   30.80    6.90
  -7   0   8   32.10    5.80
  -9  -1   7   22.10    7.00
  -9  -1   7   37.70    6.80
  11   2  -6   14.40    7.30
 -11  -2   6   17.00    7.10
 -11  -2   6   27.50    8.20
  10   8  17   14.00    5.00
  -8  -7 -16   -0.20    3.30
   8   7  16    1.10    4.20
  -6  -6 -15   16.60    4.40
   6   6  15   25.60    5.20
  -4  -5 -14   72.59    8.10
   4   5  14   69.79    8.30
  -2  -4 -13   29.50    2.90
  -2  -4 -13   23.70    2.90
  -2  -4 -13   22.40    4.70
   2   4  13   36.90    5.60
   0  -3 -12  115.39   12.50
   0  -3 -12  140.19   11.60
   0  -3 -12  135.49   11.50
   0   3  12  122.39   12.50
   2  -2 -11   22.30    3.70
   2  -2 -11   15.30    4.10
  -2   2  11   20.10    4.70
   4  -1 -10   17.90    4.00
   4  -1 -10   16.80    4.40
  -4   1  10   18.20    5.20
  -4   1  10   24.90    4.20
   6   0  -9    1.10    4.10
   6   0  -9    5.90    3.70
  -6   0   9    0.60    5.00
   8   1  -8    3.80    5.60
  -8  -1   8   12.50    6.10
  -8  -1   8    5.00    4.70
  10   2  -7   -0.90    5.40
 -10  -2   7    5.30    5.90
   9   7  17   38.30    4.40
   9   7  17   25.00    5.60
  -7  -6 -16   22.20    4.70
   7   6  16   22.00    5.10
  -5  -5 -15   46.30    6.90
   5   5  15   62.79    7.60
  -3  -4 -14  156.28   15.20
   3   4  14  169.08   15.30
  -1  -3 -13  142.49   12.40
  -1  -3 -13  141.19   13.60
  -1  -3 -13  140.79   12.40
   1   3  13  146.79   13.70
   1  -2 -12   33.70    5.80
   1  -2 -12   42.10    4.60
   1  -2 -12   42.60    4.80
  -1   2  12   36.90    6.00
   3  -1 -11    6.70    3.80
   3  -1 -11    8.30    3.00
  -3   1  11   11.90    4.50
   5   0 -10   31.20    5.20
   5   0 -10   21.10    5.50
  -5   0  10   29.10    5.00
  -5   0  10   22.50    6.20
   7   1  -9   19.50    5.70
   7   1  -9   29.80    5.60
  -7  -1   9   23.80    7.50
  -7  -1   9   26.90    5.50
   9   2  -8    9.80    5.70
  -9  -2   8   13.10    5.60
  -9  -2   8   13.70    6.60
 -11  -3   7    5.50    6.60
  -8  -6 -17    2.00    4.50
   8   6  17    2.30    2.40
   8   6  17    0.20    4.10
  -6  -5 -16   -0.60    3.60
   6   5  16   -0.10    3.70
  -4  -4 -15    7.10    3.90
  -4  -4 -15   15.00    2.20
   4   4  15    9.50    4.50
  -2  -3 -14   15.80    2.50
   2   3  14   21.40    4.30
   0  -2 -13    0.50    3.10
   0  -2 -13    1.20    2.10
   0  -2 -13    1.70    2.40
   0   2  13    3.60    3.70
   2  -1 -12   78.69    8.00
   2  -1 -12   82.79    8.80
   2  -1 -12   82.89    7.90
  -2   1  12   73.19    8.90
   4   0 -11   42.30    6.60
   4   0 -11   37.70    5.60
  -4   0  11   37.90    6.70
   6   1 -10   14.20    5.50
   6   1 -10   16.80    4.90
  -6  -1  10   16.70    4.70
   8   2  -9   11.90    5.80
  -8  -2   9   38.90    8.00
  -8  -2   9   31.50    6.50
 -10  -3   8    9.70    7.30
 -10  -3   8   -4.10    4.60
  -9  -6 -18    4.40    3.30
   9   6  18    6.00    4.00
  -7  -5 -17   67.19    6.10
  -7  -5 -17   42.90    7.20
   7   5  17   70.49    8.20
   7   5  17   62.89    6.20
  -5  -4 -16   70.99    9.10
  -5  -4 -16   87.29    7.80
   5   4  16   86.39    7.80
   5   4  16   89.79    9.40
  -3  -3 -15   58.69    7.70
  -3  -3 -15   64.99    6.30
   3   3  15   68.79    7.90
  -1  -2 -14   65.39    6.40
  -1  -2 -14   61.89    7.70
   1   2  14   71.59    8.00
   1  -1 -13   13.10    3.10
   1  -1 -13   14.00    3.30
   1  -1 -13   16.40    4.50
  -1   1  13   19.20    5.20
   3   0 -12   11.70    3.20
   3   0 -12    8.60    4.30
   3   0 -12    5.20    3.60
  -3   0  12    8.60    4.60
   5   1 -11    1.00    3.30
   5   1 -11    4.80    4.20
   5   1 -11    2.50    4.20
  -5  -1  11   -0.90    7.10
   7   2 -10    6.10    4.10
   7   2 -10   12.90    5.30
  -7  -2  10    7.80    6.40
  -7  -2  10    5.60    4.60
  -9  -3   9   11.40    6.90
  -9  -3   9   11.80    6.10
 -11  -4   8    7.20    7.20
  -8  -5 -18    0.00    3.30
   8   5  18    2.40    2.90
   8   5  18    6.20    4.10
  -6  -4 -17    3.60    3.60
  -6  -4 -17    8.10    2.80
   6   4  17   11.40    2.80
   6   4  17    4.40    4.30
  -4  -3 -16    3.00    2.50
  -4  -3 -16    5.10    3.80
   4   3  16   -0.70    4.10
   4   3  16    6.00    2.40
  -2  -2 -15   81.09    7.60
  -2  -2 -15   81.49    8.90
   2   2  15   74.89    9.10
   0  -1 -14  266.97   21.20
   0  -1 -14  262.37   21.10
   0  -1 -14  204.18   21.80
   0   1  14  229.58   22.10
   2   0 -13   72.79    7.60
   2   0 -13   66.59    8.60
   2   0 -13   72.59    7.60
  -2   0  13   78.69    9.80
   4   1 -12   91.99   10.30
   4   1 -12  116.79   10.80
   4   1 -12  103.59   11.30
  -4  -1  12  112.69   12.10
   6   2 -11  127.49   13.70
   6   2 -11  134.19   14.60
   6   2 -11  176.78   15.20
  -6  -2  11  143.49   15.00
   8   3 -10    0.60    6.30
   8   3 -10   -2.60    5.10
  -8  -3  10    6.10    6.30
  10   4  -9    8.10    7.40
 -10  -4   9    9.20    7.30
  -9  -5 -19    3.60    3.20
  -7  -4 -18    6.90    3.20
  -7  -4 -18    4.70    4.30
   7   4  18    5.10    4.30
   7   4  18    9.00    3.20
  -5  -3 -17    4.60    4.20
   5   3  17   12.00    4.80
   5   3  17    6.00    2.90
  -3  -2 -16   -3.40    2.70
  -3  -2 -16    0.50    3.70
   3   2  16    0.60    2.50
   3   2  16   -2.30    4.10
  -1  -1 -15    4.20    2.50
  -1  -1 -15    1.40    3.50
  -1  -1 -15    4.00    2.60
   1   1  15   -4.70    3.90
   1   0 -14   47.40    5.80
   1   0 -14   43.90    7.30
   1   0 -14   55.79    6.20
  -1   0  14   49.30    7.90
   3   1 -13   22.40    4.30
   3   1 -13   23.00    4.60
   3   1 -13   10.40    4.70
  -3  -1  13   22.60    6.10
   5   2 -12   -2.70    3.40
   5   2 -12    2.70    4.70
  -5  -2  12   -0.30    5.70
   7   3 -11   -2.50    5.00
   7   3 -11    8.40    6.20
  -7  -3  11    2.00    6.20
   9   4 -10   27.90    8.40
  -9  -4  10   27.70    8.90
  -8  -4 -19    8.70    3.60
  -8  -4 -19   20.10    4.00
   8   4  19   15.90    4.60
  -6  -3 -18    5.60    3.30
  -6  -3 -18   -3.40    3.80
   6   3  18    6.20    4.40
   6   3  18    1.90    3.10
  -4  -2 -17   -4.90    2.90
  -4  -2 -17  -12.70    3.80
   4   2  17   -7.20    4.30
   4   2  17    3.10    2.90
  -2  -1 -16   27.40    4.10
  -2  -1 -16   20.80    5.50
   2   1  16   28.30    6.00
   2   1  16   24.80    4.40
   0   0 -15   99.19    9.80
   0   0 -15  102.59    9.90
   0   0 -15  103.59   11.00
   0   0  15  108.39   11.30
   2   1 -14   52.39    6.10
   2   1 -14   46.80    6.30
   2   1 -14   44.70    7.60
  -2  -1  14   61.79    8.50
   4   2 -13   14.20    4.80
   4   2 -13   13.20    4.30
  -4  -2  13    9.00    6.20
   6   3 -12    8.50    5.40
   6   3 -12   -1.70    3.90
   6   3 -12    8.90    5.20
  -6  -3  12   18.80    7.30
   8   4 -11    7.30    6.40
  -8  -4  11    2.50    6.30
  10   5 -10   -6.10    7.20
 -10  -5  10    2.60    7.20
  -9  -4 -20    5.70    4.00
  -7  -3 -19   25.60    4.90
  -7  -3 -19   21.20    5.70
   7   3  19   33.10    5.70
   7   3  19   33.00    5.30
  -5  -2 -18    8.50    3.50
  -5  -2 -18    9.00    4.60
   5   2  18    8.10    4.90
  -3  -1 -17   80.89    9.40
  -3  -1 -17   87.29    8.40
   3   1  17   83.59   10.00
  -1   0 -16   89.39   10.80
  -1   0 -16  104.99    9.70
   1   0  16  108.49   11.40
   1   1 -15   29.20    6.70
   1   1 -15   53.19    6.10
   1   1 -15   50.79    6.10
  -1  -1  15   34.70    7.60
   3   2 -14   66.59    8.10
   3   2 -14   76.19    8.40
  -3  -2  14   81.39   10.70
   5   3 -13   35.40    6.00
   5   3 -13   21.50    7.00
   5   3 -13   37.30    6.60
  -5  -3  13   41.50    8.40
   7   4 -12   15.60    6.80
  -7  -4  12   10.40    7.20
   9   5 -11    6.00    6.60
  -9  -5  11   14.40    8.30
  -8  -3 -20   11.10    4.40
  -8  -3 -20    7.40    3.40
   8   3  20   14.10    4.50
   8   3  20   12.10    5.10
  -6  -2 -19   12.20    4.40
  -6  -2 -19   11.00    4.80
   6   2  19   20.60    4.70
   6   2  19   14.50    5.30
  -4  -1 -18   -1.20    3.30
  -4  -1 -18   -1.50    4.20
   4   1  18    1.10    3.40
   4   1  18   -1.00    4.60
  -2   0 -17   21.90    4.30
  -2   0 -17   15.00    5.20
   2   0  17    9.90    5.70
   2   0  17   20.60    4.30
   0   1 -16   24.90    5.60
   0   1 -16   24.20    4.60
   0   1 -16   20.20    4.60
   0  -1  16   25.80    6.40
   2   2 -15   12.70    4.20
   2   2 -15   11.20    4.10
  -2  -2  15    9.80    6.10
   4   3 -14   47.60    7.30
  -4  -3  14   52.69    9.60
   6   4 -13   39.00    7.70
  -6  -4  13   31.60    8.30
   8   5 -12   13.40    7.10
  -8  -5  12   19.90    8.40
  -7  -2 -20    6.10    4.40
  -7  -2 -20   19.10    5.00
   7   2  20   20.00    5.20
   7   2  20   24.10    5.30
  -5  -1 -19   62.29    7.30
  -5  -1 -19   46.20    7.70
   5   1  19   62.59    7.60
   5   1  19   56.99    8.40
  -3   0 -18   52.99    6.90
  -3   0 -18   50.19    7.80
   3   0  18   59.39    7.60
   3   0  18   58.29    8.60
  -1   1 -17   60.29    8.50
  -1   1 -17   57.99    7.40
   1  -1  17   47.80    7.50
   1  -1  17   66.09    9.30
   1   2 -16  123.89   11.60
   1   2 -16  111.19   11.70
  -1  -2  16  119.79   13.40
   3   3 -15    2.50    4.10
   3   3 -15    4.20    5.40
   3   3 -15    3.30    4.10
  -3  -3  15    0.40    5.80
   5   4 -14   -1.20    4.80
  -5  -4  14    0.90    6.30
   7   5 -13    5.60    6.30
  -7  -5  13    2.70    7.10
   9   6 -12   -7.00    6.50
  -9  -6  12   22.10   10.00
  -8  -2 -21   -1.20    2.90
  -8  -2 -21    3.20    4.70
   8   2  21    7.00    4.50
   8   2  21    0.10    5.20
  -6  -1 -20    5.90    4.70
  -6  -1 -20    5.90    4.10
   6   1  20    5.40    4.80
   6   1  20   14.30    5.30
  -4   0 -19   55.09    6.90
  -4   0 -19   45.50    7.50
   4   0  19   53.29    7.30
   4   0  19   39.80    7.80
  -2   1 -18    2.30    3.90
  -2   1 -18    1.90    4.30
   2  -1  18    6.90    4.00
   2  -1  18   -1.60    5.90
   0   2 -17   31.20    5.40
   0  -2  17   29.90    7.50
   2   3 -16    9.80    4.70
   2   3 -16   10.20    5.70
   2   3 -16    6.50    4.20
  -2  -3  16   17.80    6.70
   4   4 -15   17.30    5.00
   4   4 -15   11.50    4.90
  -4  -4  15   10.00    6.50
   6   5 -14   55.19    8.70
  -6  -5  14   40.20   10.20
   8   6 -13   21.00    8.00
  -8  -6  13   23.40   10.50
  -7  -1 -21    0.20    4.10
  -7  -1 -21   -0.80    5.70
   7   1  21    5.40    5.10
   7   1  21   -0.90    4.80
  -5   0 -20    0.60    4.70
  -5   0 -20    3.90    4.20
   5   0  20    9.40    5.20
   5   0  20    7.90    4.90
  -3   1 -19   -3.70    4.10
  -3   1 -19    3.20    3.80
   3  -1  19    4.90    6.50
   3  -1  19    2.40    4.60
  -1   2 -18    1.70    4.10
   1  -2  18   -0.20    5.80
   1  -2  18   -4.20    4.70
   1   3 -17   -0.30    4.00
   1   3 -17    3.10    5.10
   1   3 -17    1.90    4.20
  -1  -3  17   -6.20    5.50
   3   4 -16   11.90    4.90
   3   4 -16    5.30    4.50
  -3  -4  16   -1.20    6.20
   5   5 -15   11.80    5.80
  -5  -5  15   -1.20    6.90
  -6   0 -21    9.80    5.40
  -6   0 -21   16.50    5.20
   6   0  21   24.40    6.40
  -4   1 -20    8.20    6.60
  -4   1 -20    5.00    4.90
   4  -1  20   12.40    7.50
   4  -1  20    9.40    5.40
  -2   2 -19   12.60    6.70
   2  -2  19   15.60    5.60
   2  -2  19   21.20    6.40
   0   3 -18   -6.30    3.70
   0   3 -18    2.20    5.00
   0  -3  18    4.00    5.60
   2   4 -17   15.50    5.10
   2   4 -17   11.70    5.10
  -2  -4  17   12.40    6.40
   4   5 -16   31.00    6.80
  -4  -5  16   61.49   11.60
   6   6 -15   -1.80    5.80
  -8  -7  14   10.20    9.00
  -5   1 -21    9.70    4.70
  -5   1 -21    0.00    5.10
   5  -1  21   22.70    7.30
   5  -1  21   25.80    7.00
  -3   2 -20    5.90    5.50
  -3   2 -20   19.40    5.00
   3  -2  20   14.30    6.80
  -1   3 -19   50.09    7.40
   1  -3  19   54.99    9.70
   1  -3  19   46.10    8.10
   1   4 -18   72.09    8.40
  -1  -4  18   63.19   11.30
   3   5 -17   93.49   10.10
  -3  -5  17   67.69   13.00
   5   6 -16   11.10    5.70
   7   7 -15    5.20    6.80
  -7  -7  15   12.90    9.40
  -6   1 -22    0.40    5.30
  -4   2 -21    1.70    4.60
  -4   2 -21   -0.90    5.10
   4  -2  21   -0.80    5.80
   4  -2  21    8.40    6.20
  -2   3 -20   -1.60    5.10
  -2   3 -20    4.00    4.50
   2  -3  20   -3.80    5.50
   2  -3  20    7.40    6.80
   0   4 -19   -0.20    4.50
   0  -4  19    2.80    6.60
   0  -4  19   -5.90    5.30
   2   5 -18   -2.30    4.70
  -2  -5  18    4.90    7.10
   4   6 -17    0.30    4.90
   6   7 -16   11.10    6.60
  -6  -7  16    1.50    8.90
  -5   2 -22   22.40    5.80
   5  -2  22   16.30    7.50
  -3   3 -21    5.20    4.90
   3  -3  21   27.70    8.00
  -1   4 -20   87.09   10.30
   1  -4  20   72.79   12.30
   1   5 -19   30.30    6.70
  -1  -5  19   32.10    8.80
   3   6 -18   20.70    6.30
   5   7 -17    7.70    6.40
  -5  -7  17    9.30    8.30
  -4   3 -22    4.90    5.10
   4  -3  22   -3.50    7.00
  -2   4 -21   20.00    5.80
   2  -4  21   10.10    7.70
   0   5 -20   22.10    6.00
   0  -5  20   18.00    8.70
   2   6 -19   -6.10    4.90
   4   7 -18   -1.40    5.30
  -4  -7  18    3.50    8.50
  -3   4 -22   -2.10    5.50
   3  -4  22    3.10    7.20
  -1   5 -21    2.00    5.30
   1  -5  21    5.80    7.50
   1   6 -20    2.60    7.90
  -1  -6  20   -5.60    7.40
   3   7 -19   -1.40    6.10
  -3  -7  19    7.40    8.00
   0   6 -21    9.50    6.10
   0  -6  21   10.70    8.50
   2   7 -20   -3.70    5.80
  -2  -7  20   -1.10    8.20
   1  16   1   10.30    4.90
  -1  15   0    8.70    6.20
   2  16   2   24.90    5.50
   0  15   1    4.40    5.70
   0  15   1   16.70    5.60
  -4  13  -1   31.80    7.60
  -4  13  -1   18.60    8.80
   3  16   3   -1.10    5.80
   3  16   3    9.10    4.40
   1  15   2    5.00    4.10
   1  15   2   12.90    6.40
  -1  14   1   10.20    7.50
  -1  14   1   15.30    5.50
  -3  13   0   -1.10    5.30
  -3  13   0    9.40    5.30
  -5  12  -1   -3.10    4.80
  -5  12  -1    2.10    5.10
  -4 -16  -4   22.40    6.90
   4  16   4   31.00    8.70
   4  16   4   31.90    6.20
  -2 -15  -3   41.00    7.30
   2  15   3   47.10    7.00
   0  14   2   55.59    8.60
  -2  13   1   35.30    7.40
  -2  13   1   35.30    8.10
  -4  12   0   23.10    8.00
  -6  11  -1    7.20    5.50
  -6  11  -1    8.00    6.20
  -5 -16  -5    5.50    5.70
   5  16   5   -2.70    5.40
   5  16   5    2.60    3.40
  -3 -15  -4    6.20    5.60
   3  15   4    5.90    3.70
  -1 -14  -3    8.20    4.30
   1  14   3    3.20    3.40
   1  14   3    5.00    4.80
  -1  13   2   -1.60    4.60
  -1  13   2    3.30    3.70
  -3  12   1    7.50    4.60
  -3  12   1    4.20    5.60
  -5  11   0   21.50    6.60
   6  16   6   -0.40    3.40
  -4 -15  -5    6.00    4.70
   4  15   5    5.80    3.20
  -2 -14  -4   42.00    6.70
   2  14   4   34.40    8.00
   0  13   3    7.30    5.30
   0  13   3   18.50    4.70
  -2  12   2    2.60    4.80
  -2  12   2    3.30    3.90
   4 -11  -1    3.90    6.60
  -4  11   1    1.90    4.30
  -4  11   1   -0.20    4.60
   6 -10   0    9.80    6.60
  -6  10   0    4.40    4.90
  -6  10   0    4.40    6.10
   7  16   7   23.60    5.40
   5  15   6   28.70    5.00
  -3 -14  -5   38.00    6.40
   3  14   5   51.09    9.10
   3  14   5   36.10    5.60
  -1 -13  -4   35.90    5.80
   1  13   4   29.20    5.30
   1  13   4   30.10    7.60
  -1  12   3   18.00    4.90
  -1  12   3   16.80    5.60
   3 -11  -2    4.60    5.90
  -3  11   2   -0.30    4.60
  -3  11   2   -6.00    3.60
   5 -10  -1   -0.70    5.40
  -5  10   1    4.80    4.60
  -5  10   1    3.00    4.60
   7  -9   0   22.30    8.30
  -7   9   0   26.10    7.30
  -7   9   0   10.20    5.80
   6  15   7    8.60    3.50
   6  15   7   10.40    3.30
  -4 -14  -6   16.80    4.80
   4  14   6   16.40    6.20
   4  14   6    8.80    3.20
  -2 -13  -5   14.10    4.10
   2  13   5   11.60    5.20
   2  13   5    8.70    3.10
   0 -12  -4   36.50    8.20
   0 -12  -4   35.10    5.90
   0  12   4   49.20    6.50
   0  12   4   37.90    7.60
   2 -11  -3   64.79   10.40
  -2  11   3   69.09    9.00
  -2  11   3   71.49   10.20
   4 -10  -2   44.00    9.30
  -4  10   2   53.79    7.60
  -4  10   2   47.40    8.10
   6  -9  -1    3.00    5.60
  -6   9   1    9.20    5.00
  -6   9   1   26.70    6.80
  -8   8   0    5.60    5.40
  -8   8   0   -2.10    4.80
   7  15   8   36.30    5.70
   7  15   8   46.80    5.90
   5  14   7   41.80    5.70
   5  14   7   49.10    9.00
  -3 -13  -6   26.10    5.10
   3  13   6   29.00    7.40
   3  13   6   31.80    4.50
  -1 -12  -5    8.80    3.90
   1  12   5   25.10    4.30
   1  12   5   14.50    5.70
   1 -11  -4    4.30    5.10
   1 -11  -4    5.80    3.30
  -1  11   4    2.90    3.00
  -1  11   4   -1.00    4.30
   3 -10  -3    6.90    4.30
   3 -10  -3   -2.90    4.80
  -3  10   3    7.30    4.40
  -3  10   3    2.30    3.40
   5  -9  -2    0.20    6.10
  -5   9   2    5.20    4.60
  -5   9   2    7.70    4.90
  -7   8   1   -1.70    4.40
  -7   8   1    0.10    4.70
   6  14   8    7.10    2.70
   6  14   8    2.90    4.50
  -4 -13  -7   -2.70    3.90
   4  13   7    1.70    2.50
   4  13   7   -2.10    3.70
  -2 -12  -6   78.89    8.30
   2  12   6   95.59   10.50
   2  12   6   75.39    8.10
   0 -11  -5   89.19   10.20
   0 -11  -5  106.49   12.50
   0  11   5  120.19   12.50
   0  11   5  111.99   10.30
   2 -10  -4   89.89   10.90
  -2  10   4  124.39   12.50
  -2  10   4  127.09   11.30
   4  -9  -3   77.09    9.00
   4  -9  -3   97.29   12.70
  -4   9   3   77.39    9.90
  -4   9   3   85.69   10.20
   6  -8  -2    5.80    5.60
  -6   8   2   14.90    5.40
  -6   8   2   13.80    5.20
   8  -7  -1   20.20    6.50
  -8   7   1   14.60    6.40
   7  14   9   53.69    6.40
   7  14   9   47.90    5.40
   7  14   9   40.70    8.90
   5  13   8    0.80    4.60
   5  13   8    2.20    2.20
   5  13   8    1.10    2.00
  -3 -12  -7   65.69    6.60
  -3 -12  -7   31.40    7.70
   3  12   7   40.20    5.10
   3  12   7   57.59    8.60
  -1 -11  -6   -0.60    2.90
   1  11   6    8.10    4.30
   1  11   6    3.90    2.70
   1 -10  -5   57.59    7.10
  -1  10   5   68.89    9.10
  -1  10   5   53.89    6.60
   3  -9  -4   -0.40    3.00
   3  -9  -4    1.60    4.40
  -3   9   4   -3.90    4.30
  -3   9   4    5.00    3.40
   5  -8  -3   10.70    4.10
   5  -8  -3   12.20    5.60
  -5   8   3   15.40    5.00
   7  -7  -2   22.20    6.40
  -7   7   2   20.80    6.00
  -7   7   2   14.00    6.00
  -9   6   1    3.30    5.50
  -9   6   1    7.50    5.80
   8  14  10    1.50    2.60
   8  14  10    3.00    4.90
   6  13   9   -0.60    2.20
   6  13   9   -1.20    4.30
  -4 -12  -8    4.70    2.90
  -4 -12  -8    1.20    3.90
   4  12   8    9.60    2.30
   4  12   8   10.40    4.50
  -2 -11  -7   67.49    7.30
  -2 -11  -7   72.29    9.10
   2  11   7   78.69    9.30
   2  11   7   74.19    7.40
   0 -10  -6   73.89    7.60
   0 -10  -6   70.29   10.10
   0  10   6   51.39    6.60
   0  10   6   72.49    9.10
   2  -9  -5    3.80    4.60
   2  -9  -5   18.40    3.70
  -2   9   5   13.70    3.50
   4  -8  -4   39.20    7.20
   4  -8  -4   32.30    5.40
  -4   8   4   33.30    6.30
   6  -7  -3    7.90    4.80
  -6   7   3    6.80    4.10
  -6   7   3    2.70    4.20
   8  -6  -2   11.90    5.80
  -8   6   2    9.20    5.50
  -8   6   2   26.20    6.80
 -10   5   1   -2.20    5.20
   9  14  11   24.80    6.70
   9  14  11   25.10    3.90
   7  13  10   61.69    5.90
   7  13  10   57.79    6.20
   7  13  10   77.69   10.30
  -5 -12  -9   33.80    7.40
   5  12   9   44.30    4.50
   5  12   9   59.49    8.60
   5  12   9   38.60    4.40
  -3 -11  -8   96.79    8.80
  -3 -11  -8   95.59   11.50
   3  11   8   86.29   10.80
  -1 -10  -7  218.18   19.80
  -1 -10  -7  229.38   21.60
   1  10   7  235.78   20.00
   1  10   7  231.58   22.10
   1  -9  -6   97.29   10.80
   1  -9  -6  126.99   12.80
  -1   9   6  114.99   10.90
  -1   9   6  139.89   12.40
   3  -8  -5   23.00    5.70
   3  -8  -5   21.80    4.30
  -3   8   5   17.90    4.60
  -3   8   5   21.90    5.30
   5  -7  -4    2.20    4.50
  -5   7   4    0.60    4.10
  -5   7   4   -2.50    3.40
   7  -6  -3   14.20    5.40
  -7   6   3   27.20    5.90
  -7   6   3   20.30    5.30
   9  -5  -2    5.50    5.50
  -9   5   2   -0.30    5.20
  -9   5   2    1.30    5.40
   8  13  11   30.40    6.80
  -6 -12 -10    3.60    4.50
   6  12  10    9.40    1.80
   6  12  10    7.40    4.70
  -4 -11  -9   10.30    6.20
   4  11   9   10.50    4.80
   4  11   9   13.70    2.40
  -2 -10  -8   25.10    3.70
  -2 -10  -8   26.30    5.90
   2  10   8   24.40    4.00
   0  -9  -7   39.20    5.30
   0  -9  -7   55.09    7.70
   0   9   7   42.90    6.80
   0   9   7   40.60    5.20
   2  -8  -6    2.10    4.00
   2  -8  -6   -0.10    2.60
  -2   8   6   -1.40    2.50
  -2   8   6    2.50    3.50
   4  -7  -5  112.19   11.90
   4  -7  -5  134.29   13.40
  -4   7   5  126.69   12.00
  -4   7   5  118.59   12.50
   6  -6  -4   81.99   10.10
   6  -6  -4  100.49   11.40
  -6   6   4   79.09   10.10
  -6   6   4   75.29    9.70
   8  -5  -3    7.40    5.00
  -8   5   3   11.00    5.80
  -8   5   3    2.20    4.90
  10  -4  -2   17.00    7.00
 -10   4   2   21.50    7.20
 -10   4   2   17.90    6.10
   9  13  12    1.10    0.40
  -7 -12 -11   26.90    7.30
   7  12  11   52.69    8.40
   5  11  10  107.29   11.80
  -3 -10  -9   74.39    6.70
  -3 -10  -9   70.39    9.70
   3  10   9   67.29    6.50
  -1  -9  -8   62.89    6.50
  -1  -9  -8   69.79    8.40
   1   9   8   70.69    8.00
   1  -8  -7    3.40    3.80
  -1   8   7   -0.30    2.10
  -1   8   7    1.40    3.20
   3  -7  -6   12.40    4.80
   3  -7  -6    6.70    3.50
  -3   7   6    9.20    4.20
  -3   7   6   12.30    3.40
   5  -6  -5   -0.30    4.00
   5  -6  -5    5.30    3.50
  -5   6   5   -0.80    4.00
   7  -5  -4    5.00    4.50
  -7   5   4    1.20    4.50
  -7   5   4    7.50    5.00
   9  -4  -3    2.00    5.50
  -9   4   3   -3.00    4.70
  -9   4   3    1.40    5.40
  -8 -12 -12    8.60    5.10
   8  12  12   15.50    6.10
   6  11  11   49.50    8.20
  -4 -10 -10    6.80    4.00
   4  10  10   -0.60    5.30
  -2  -9  -9    2.70    1.80
  -2  -9  -9    1.70    3.40
   2   9   9    2.80    3.50
   2   9   9    4.80    1.70
   0  -8  -8   53.09    5.10
   0  -8  -8   42.30    6.90
   0   8   8   38.20    6.30
   0   8   8   34.30    4.30
   2  -7  -7   32.10    6.30
   2  -7  -7   30.50    4.80
  -2   7   7   39.00    6.20
  -2   7   7   35.80    4.70
   4  -6  -6  110.99   12.10
   4  -6  -6  100.09   11.10
  -4   6   6  115.19   11.20
  -4   6   6  133.49   11.80
   6  -5  -5   52.49    8.30
   6  -5  -5   71.59    9.20
  -6   5   5   65.39    8.60
  -6   5   5   73.39    8.70
   8  -4  -4   37.10    7.00
  -8   4   4   39.80    7.00
  -8   4   4   30.20    7.10
  10  -3  -3    4.80    5.70
 -10   3   3   12.20    6.00
 -10   3   3   13.70    6.80
   9  12  13   -7.00    4.40
   7  11  12    5.70    4.60
  -5 -10 -11    3.30    4.00
   5  10  11    0.10    4.60
  -3  -9 -10   10.50    4.50
   3   9  10   15.60    4.30
  -1  -8  -9   52.59    6.90
  -1  -8  -9   32.40    3.70
   1   8   9   29.20    3.50
   1   8   9   32.60    5.70
   1  -7  -8   15.10    3.10
   1  -7  -8   15.00    4.40
  -1   7   8   15.90    2.80
  -1   7   8   12.40    4.30
   3  -6  -7   67.59    7.40
   3  -6  -7   44.70    6.50
  -3   6   7   49.80    6.00
  -3   6   7   63.59    7.10
   5  -5  -6   91.29   10.00
   5  -5  -6  116.39   11.10
  -5   5   6   96.09   10.30
  -5   5   6   96.79   10.70
   7  -4  -5    2.20    4.30
   7  -4  -5    1.00    3.20
  -7   4   5    8.20    5.10
  -7   4   5    4.20    4.20
   9  -3  -4    3.10    4.60
  -9   3   4    0.00    4.70
  -9   3   4   -2.90    5.50
  10  12  14   18.90    7.40
   8  11  13   48.60    8.60
  -6 -10 -12   69.09    9.90
   6  10  12   82.69   10.90
  -4  -9 -11   41.10    6.90
   4   9  11   43.60    6.80
  -2  -8 -10    5.10    3.70
   2   8  10    3.10    3.50
   0  -7  -9   23.00    3.40
   0  -7  -9   28.40    5.20
   0   7   9   21.20    4.80
   0   7   9   30.10    3.50
   2  -6  -8   20.40    4.30
  -2   6   8   19.30    4.30
  -2   6   8   18.80    3.40
   4  -5  -7    6.60    3.00
   4  -5  -7    4.20    3.70
  -4   5   7    2.00    3.70
  -4   5   7    6.90    3.20
   6  -4  -6    9.60    4.00
   6  -4  -6    9.90    4.30
  -6   4   6    3.20    3.60
  -6   4   6    8.80    4.60
   8  -3  -5    4.20    4.40
  -8   3   5    0.60    5.00
  -8   3   5    6.10    5.10
  10  -2  -4    8.60    5.90
 -10   2   4   20.90    6.40
 -10   2   4   23.70    7.50
  -7 -10 -13   33.40    6.80
   7  10  13   49.10    7.50
  -5  -9 -12   45.80    7.40
   5   9  12   45.10    6.90
  -3  -8 -11  129.69   12.90
   3   8  11  128.19   12.70
  -1  -7 -10  221.68   20.30
  -1  -7 -10  221.48   18.80
   1   7  10  217.88   20.20
   1   7  10  221.58   18.80
   1  -6  -9  151.78   13.50
   1  -6  -9  147.09   14.50
  -1   6   9  161.18   13.50
  -1   6   9  149.39   14.40
   3  -5  -8  128.69   13.00
   3  -5  -8  127.49   12.10
  -3   5   8  134.19   12.10
  -3   5   8  137.19   13.00
   5  -4  -7   53.29    6.90
   5  -4  -7   48.70    7.30
  -5   4   7   43.90    6.60
  -5   4   7   49.99    7.40
   7  -3  -6   13.30    4.60
   7  -3  -6    2.50    4.40
  -7   3   6   16.20    5.30
  -7   3   6   20.90    5.40
   9  -2  -5    0.60    4.40
  -9   2   5    4.80    4.90
  -9   2   5    1.00    5.50
 -11   1   4    8.70    6.20
  10  11  15    5.00    5.40
  -8 -10 -14   23.30    6.00
   8  10  14   20.70    6.10
  -6  -9 -13   49.99    7.80
   6   9  13   54.39    7.60
  -4  -8 -12   57.79    8.30
   4   8  12   67.39    8.10
  -2  -7 -11   45.20    7.00
   2   7  11   52.99    7.60
   0  -6 -10   51.49    5.30
   0  -6 -10   62.89    7.50
   0   6  10   52.19    6.60
   0   6  10   53.89    5.20
   2  -5  -9  116.39   11.10
   2  -5  -9  126.39   12.20
  -2   5   9  129.19   12.00
  -2   5   9  117.79   11.00
   4  -4  -8   56.79    7.20
   4  -4  -8   67.09    8.00
  -4   4   8   72.09    7.20
  -4   4   8   72.19    8.20
   6  -3  -7  100.49   10.50
   6  -3  -7   83.09   10.00
  -6   3   7  105.39   10.80
   8  -2  -6   25.90    6.20
  -8   2   6   34.10    6.60
  -8   2   6   36.00    7.10
  10  -1  -5   18.10    7.60
 -10   1   5   23.90    7.00
 -10   1   5   17.50    6.90
  -9 -10 -15   -1.40    4.00
   9  10  15   -1.90    4.20
  -7  -9 -14    4.80    4.20
   7   9  14    5.00    4.30
  -5  -8 -13   29.10    5.80
   5   8  13   37.70    6.50
  -3  -7 -12   24.40    5.20
   3   7  12   24.10    5.10
  -1  -6 -11  168.68   15.90
  -1  -6 -11  168.28   14.50
   1   6  11  172.38   15.80
   1  -5 -10   34.50    5.70
   1  -5 -10   45.80    4.70
  -1   5  10   43.00    4.50
  -1   5  10   43.20    6.10
   3  -4  -9   11.50    4.10
   3  -4  -9    9.40    3.30
  -3   4   9   16.10    3.10
  -3   4   9   20.20    4.80
   5  -3  -8   20.00    4.50
   5  -3  -8   17.80    5.00
  -5   3   8   19.90    4.40
  -5   3   8   23.90    5.80
   7  -2  -7   15.40    5.40
   7  -2  -7   23.40    5.10
  -7   2   7   30.80    6.80
  -7   2   7   14.00    4.90
   9  -1  -6    3.10    4.90
  -9   1   6    3.70    6.10
  -9   1   6   -4.20    4.30
  11   0  -5    2.10    6.50
 -11   0   5    6.80    6.30
  10  10  16    4.90    6.00
  -8  -9 -15   34.20    7.10
   8   9  15   55.39    8.30
  -6  -8 -14   18.10    4.90
   6   8  14   23.20    5.20
  -4  -7 -13   22.10    5.20
   4   7  13   39.10    5.70
  -2  -6 -12  163.68   15.40
   2   6  12  161.78   15.20
   0  -5 -11   16.50    4.20
   0  -5 -11   13.00    2.60
   0   5  11   18.20    4.50
   0   5  11   22.70    2.80
   2  -4 -10   78.89    7.20
   2  -4 -10   67.59    8.00
  -2   4  10   70.19    8.20
  -2   4  10   70.39    7.10
   4  -3  -9   34.80    5.10
   4  -3  -9   38.30    6.10
  -4   3   9   26.20    5.70
  -4   3   9   26.90    4.70
   6  -2  -8   18.20    5.00
   6  -2  -8   19.50    5.50
  -6   2   8   32.70    6.40
   8  -1  -7   54.89    8.60
  -8   1   7   60.29    8.80
  10   0  -6   11.80    6.20
 -10   0   6   14.80    6.50
 -10   0   6   16.50    6.90
  -9  -9 -16    3.80    4.10
   9   9  16   11.30    5.30
  -7  -8 -15   10.80    4.10
   7   8  15    5.90    4.20
  -5  -7 -14    3.00    3.80
   5   7  14    1.00    3.80
  -3  -6 -13   18.90    4.80
   3   6  13   32.00    5.30
  -1  -5 -12    0.10    3.20
  -1  -5 -12   -0.70    1.40
   1   5  12    7.60    3.70
   1  -4 -11   38.60    4.60
   1  -4 -11   37.60    6.00
  -1   4  11   43.60    6.30
  -1   4  11   42.90    4.50
   3  -3 -10   34.20    4.80
   3  -3 -10   20.20    5.00
  -3   3  10   34.50    4.40
  -3   3  10   24.20    5.40
   5  -2  -9   48.80    6.50
   5  -2  -9   32.00    6.40
  -5   2   9   44.20    6.10
  -5   2   9   43.10    7.10
   7  -1  -8    9.20    5.00
   7  -1  -8    7.30    4.00
  -7   1   8   10.80    4.50
  -7   1   8    6.20    5.70
   9   0  -7    7.00    5.60
  -9   0   7   13.10    6.30
  -9   0   7   12.60    5.60
  11   1  -6   -4.90    5.50
 -11  -1   6    2.20    6.00
  -8  -8 -16   53.99    7.90
   8   8  16   56.89    8.20
  -6  -7 -15   91.09   10.10
   6   7  15   96.59   10.10
  -4  -6 -14   31.90    5.50
   4   6  14   21.30    5.20
  -2  -5 -13  103.09   10.80
   2   5  13  110.89   11.00
   0  -4 -12  175.58   14.80
   0  -4 -12  168.58   15.90
   0  -4 -12  158.38   14.90
   0   4  12  181.98   16.00
   2  -3 -11    9.10    2.80
   2  -3 -11    8.00    3.80
  -2   3  11    7.00    2.80
  -2   3  11   13.00    4.30
   4  -2 -10   21.50    5.20
   4  -2 -10   21.60    4.50
  -4   2  10   26.10    4.50
  -4   2  10   34.30    5.90
   6  -1  -9    4.30    4.20
   6  -1  -9   -0.60    3.60
  -6   1   9    6.80    5.10
  -6   1   9   12.30    4.70
  -8   0   8   -8.30    4.10
  -8   0   8   -4.50    5.40
  10   1  -7   -2.40    5.50
 -10  -1   7   -0.60    5.40
 -10  -1   7   -5.90    6.00
  -9  -8 -17   -2.50    3.50
   9   8  17   -0.80    5.30
  -7  -7 -16    4.20    3.90
   7   7  16   -0.70    4.00
  -5  -6 -15   22.90    5.20
   5   6  15   28.30    5.50
  -3  -5 -14    0.20    3.20
   3   5  14   -2.60    3.60
  -1  -4 -13  153.28   16.20
  -1  -4 -13  182.88   15.10
  -1  -4 -13  180.18   15.10
   1   4  13  176.48   16.40
   1  -3 -12  181.98   16.30
   1  -3 -12  207.28   16.30
   1  -3 -12  170.28   17.10
  -1   3  12  176.98   17.10
   3  -2 -11   40.60    6.80
  -3   2  11   51.29    5.40
  -3   2  11   43.40    6.90
   5  -1 -10  167.78   16.40
   5  -1 -10  165.88   15.80
  -5   1  10  173.38   16.80
  -5   1  10  178.78   15.80
   7   0  -9   38.00    6.40
   7   0  -9   21.40    6.10
  -7   0   9   41.60    6.80
  -7   0   9   40.80    8.00
   9   1  -8   -0.70    5.10
  -9  -1   8    4.20    5.00
  -9  -1   8    8.40    6.70
 -11  -2   7   18.20    7.50
  -8  -7 -17    4.00    3.70
   8   7  17    0.50    4.60
  -6  -6 -16   18.40    4.90
   6   6  16   24.80    5.60
  -4  -5 -15   17.00    4.60
   4   5  15   16.40    5.00
  -2  -4 -14    5.60    1.80
  -2  -4 -14   10.50    2.00
  -2  -4 -14    0.80    3.30
   2   4  14   12.20    4.30
   0  -3 -13    0.10    3.30
   0  -3 -13   -2.30    1.90
   0  -3 -13    2.60    2.40
   0   3  13   -0.90    3.90
   2  -2 -12   -3.50    2.40
   2  -2 -12   -3.50    3.00
   2  -2 -12   -2.90    2.50
  -2   2  12    1.60    3.70
   4  -1 -11    1.80    3.60
   4  -1 -11    0.70    3.20
  -4   1  11   -2.40    3.10
  -4   1  11    3.20    4.70
   6   0 -10   16.50    4.90
   6   0 -10    5.30    4.00
  -6   0  10   19.30    4.50
  -6   0  10    3.90    6.50
   8   1  -9   -2.20    4.80
  -8  -1   9   11.30    5.20
  -8  -1   9    6.70    6.10
 -10  -2   8   15.90    6.50
 -10  -2   8   25.80    7.70
  -9  -7 -18    2.30    3.50
   9   7  18   11.40    5.30
  -7  -6 -17   -1.10    3.40
   7   6  17   -2.30    4.60
  -5  -5 -16   17.90    4.70
   5   5  16    9.50    4.70
  -3  -4 -15   48.90    5.20
  -3  -4 -15   64.09    5.40
  -3  -4 -15   61.69    7.70
   3   4  15   64.19    8.10
  -1  -3 -14   56.19    7.70
  -1  -3 -14   57.09    5.60
  -1  -3 -14   56.49    5.60
   1   3  14   59.79    7.80
   1  -2 -13   33.80    4.30
   1  -2 -13   22.40    5.20
   1  -2 -13   30.90    4.40
  -1   2  13   26.10    5.70
   3  -1 -12   18.70    4.70
   3  -1 -12   19.80    3.90
   3  -1 -12   18.40    4.30
  -3   1  12   21.30    5.80
   5   0 -11   21.10    5.60
   5   0 -11   22.30    4.90
  -5   0  11   24.20    5.00
   7   1 -10   14.20    5.50
   7   1 -10    4.40    3.80
  -7  -1  10   26.80    7.20
  -7  -1  10   25.20    5.60
  -9  -2   9    3.20    5.60
  -9  -2   9    2.80    6.90
 -11  -3   8   10.10    7.70
  -8  -6 -18   16.60    4.80
   8   6  18   33.80    3.70
   8   6  18   29.70    6.00
  -6  -5 -17   67.79    8.70
   6   5  17   81.49    8.90
  -4  -4 -16   39.50    4.20
  -4  -4 -16   38.20    6.40
   4   4  16   42.20    6.60
  -2  -3 -15   48.70    7.10
  -2  -3 -15   44.50    5.10
  -2  -3 -15   57.89    5.20
   2   3  15   52.79    7.50
   0  -2 -14  105.19   11.50
   0  -2 -14  123.89   10.40
   0  -2 -14  109.99   10.40
   0   2  14  110.59   11.90
   2  -1 -13   67.69    6.70
   2  -1 -13   50.69    7.70
   2  -1 -13   52.59    6.40
  -2   1  13   68.09    8.10
   4   0 -12    1.70    3.30
   4   0 -12   -4.50    3.60
   4   0 -12    0.50    4.40
  -4   0  12    0.60    6.20
   6   1 -11    7.50    4.10
   6   1 -11   -3.00    4.60
  -6  -1  11    0.50    5.70
   8   2 -10   -2.20    5.20
  -8  -2  10   10.90    6.90
  -8  -2  10    6.80    5.20
 -10  -3   9    0.50    5.70
 -10  -3   9    5.60    7.00
  -9  -6 -19    2.40    2.60
  -9  -6 -19    2.00    3.30
   9   6  19    2.90    3.90
  -7  -5 -18   22.30    5.30
  -7  -5 -18   36.60    4.00
   7   5  18   37.60    6.40
   7   5  18   37.00    4.40
  -5  -4 -17    7.10    2.40
  -5  -4 -17    6.70    4.00
   5   4  17   11.50    4.60
  -3  -3 -16   24.90    5.20
  -3  -3 -16   25.00    3.30
  -3  -3 -16   16.10    3.40
   3   3  16   20.40    5.40
  -1  -2 -15   17.80    4.80
  -1  -2 -15   25.00    3.70
  -1  -2 -15   28.60    3.70
   1   2  15   26.30    5.50
   1  -1 -14   18.90    5.60
   1  -1 -14   34.60    4.80
   1  -1 -14   40.20    4.90
  -1   1  14   34.30    6.70
   3   0 -13   -4.30    3.30
   3   0 -13   -1.70    2.80
   3   0 -13    3.50    4.10
  -3   0  13   -0.20    4.80
   5   1 -12   77.79    9.00
  -5  -1  12   91.09   10.50
   7   2 -11   29.90    7.40
   7   2 -11   17.90    6.00
  -7  -2  11   26.60    7.40
   9   3 -10   -1.50    7.00
  -9  -3  10    2.70    6.60
  -8  -5 -19    6.60    4.30
   8   5  19   10.60    3.50
   8   5  19   15.10    4.50
  -6  -4 -18   44.30    5.00
  -6  -4 -18   27.60    6.10
   6   4  18   40.50    6.90
   6   4  18   42.50    5.00
  -4  -3 -17  115.29   11.40
  -4  -3 -17  110.59   12.60
   4   3  17  140.89   11.50
   4   3  17  136.09   12.90
  -2  -2 -16  139.59   11.40
  -2  -2 -16  117.79   11.30
  -2  -2 -16  105.29   12.50
   2   2  16  137.69   13.10
   0  -1 -15   11.10    3.20
   0  -1 -15   10.20    4.30
   0   1  15   15.60    5.20
   2   0 -14   15.60    3.90
   2   0 -14   16.90    5.20
   2   0 -14   13.70    3.90
  -2   0  14   22.20    6.10
   4   1 -13   12.60    4.00
   4   1 -13   19.70    5.00
  -4  -1  13   20.20    6.10
   6   2 -12    0.10    4.70
   6   2 -12    4.60    5.20
   6   2 -12    1.40    3.60
  -6  -2  12    2.50    5.90
   8   3 -11   18.20    7.20
  -8  -3  11   20.50    7.80
  10   4 -10    7.10    8.20
 -10  -4  10    9.30    8.10
  -9  -5 -20    0.60    2.90
  -9  -5 -20    1.90    3.20
  -7  -4 -19    8.30    4.10
  -7  -4 -19   10.60    3.70
   7   4  19   11.60    4.70
   7   4  19    9.80    3.60
  -5  -3 -18    2.70    4.20
  -5  -3 -18   11.10    3.60
   5   3  18    9.10    3.30
   5   3  18   10.00    5.30
  -3  -2 -17    0.30    4.20
  -3  -2 -17    2.80    3.10
   3   2  17   -7.30    4.70
  -1  -1 -16    2.80    4.40
  -1  -1 -16   12.00    3.10
   1   1  16   -4.80    4.80
   1   0 -15  110.99   13.00
   1   0 -15  149.19   12.30
   1   0 -15  132.89   12.20
  -1   0  15  114.79   13.40
   3   1 -14  170.28   16.40
   3   1 -14  207.88   16.70
   3   1 -14  153.28   18.40
  -3  -1  14  174.18   17.70
   5   2 -13   88.89   10.80
   5   2 -13   94.29   10.30
   5   2 -13   75.09   11.00
  -5  -2  13   92.99   12.20
   7   3 -12   35.80    8.30
  -7  -3  12   39.30    8.90
   9   4 -11   29.30    9.00
  -9  -4  11   39.90    9.70
  -8  -4 -20    2.90    3.30
   8   4  20   10.00    4.60
  -6  -3 -19    6.10    4.40
  -6  -3 -19   12.60    3.80
   6   3  19    9.70    3.80
   6   3  19    7.20    4.60
  -4  -2 -18   41.30    5.40
  -4  -2 -18   20.50    6.00
   4   2  18   46.80    5.60
   4   2  18   35.60    6.80
  -2  -1 -17   -8.60    3.90
  -2  -1 -17   -1.60    3.20
   2   1  17    0.00    5.20
   0   0 -16    6.10    3.30
   0   0 -16   -2.20    3.30
   0   0 -16    1.40    4.30
   0   0  16   -6.60    4.90
   2   1 -15    2.60    4.60
   2   1 -15   -2.90    3.40
   2   1 -15   -6.50    3.40
  -2  -1  15   -5.70    5.00
   4   2 -14   60.09    8.60
   4   2 -14   53.19    7.50
  -4  -2  14   58.99    9.70
   6   3 -13   -3.30    4.90
  -6  -3  13    2.20    6.40
   8   4 -12   12.10    7.10
  -8  -4  12    3.50    6.80
 -10  -5  11   11.00    8.10
  -7  -3 -20    2.40    4.10
  -7  -3 -20   13.50    4.20
   7   3  20   16.50    4.60
   7   3  20    9.80    5.00
  -5  -2 -19   11.00    5.30
  -5  -2 -19   19.60    4.30
   5   2  19   21.30    5.90
   5   2  19   34.70    5.20
  -3  -1 -18  -11.40    4.10
  -3  -1 -18  -10.40    3.00
   3   1  18    2.30    3.50
   3   1  18  -10.10    4.90
  -1   0 -17    4.90    4.90
  -1   0 -17    9.90    3.30
   1   0  17   16.60    5.70
   1   1 -16   75.29    7.90
   1   1 -16   70.19   10.60
   1   1 -16   58.29    7.80
  -1  -1  16   90.89   10.80
   3   2 -15   16.30    5.40
   3   2 -15   42.20    6.10
   3   2 -15   26.60    5.70
  -3  -2  15   39.50    7.90
   5   3 -14   12.90    4.90
   5   3 -14   23.30    6.00
  -5  -3  14   22.80    8.10
   7   4 -13    9.10    5.90
  -7  -4  13    0.60    7.20
   9   5 -12   13.30    8.20
  -8  -3 -21    4.20    4.90
  -8  -3 -21    4.20    4.10
   8   3  21    4.30    4.50
  -6  -2 -20   18.30    4.50
  -6  -2 -20    8.60    4.90
   6   2  20   10.20    5.20
   6   2  20    9.40    4.70
  -4  -1 -19   32.30    5.20
  -4  -1 -19   30.20    6.30
   4   1  19   35.40    6.70
   4   1  19   27.30    5.60
  -2   0 -18   29.00    6.60
  -2   0 -18   42.70    5.80
   2   0  18   48.20    6.30
   2   0  18   45.40    8.20
   0   1 -17   95.29    9.70
   0   1 -17  107.09   10.10
   0   1 -17   94.19   12.90
   0  -1  17   88.69   11.40
   2   2 -16   51.79    7.10
   2   2 -16   37.40    7.90
   2   2 -16   50.69    7.10
  -2  -2  16   60.89    9.40
   4   3 -15   30.30    6.30
   4   3 -15   27.40    5.80
  -4  -3  15   20.70    7.60
   6   4 -14   27.00    7.30
  -6  -4  14   32.90    8.40
   8   5 -13    5.40    6.80
  -7  -2 -21    5.50    4.60
  -7  -2 -21   15.90    5.00
   7   2  21    9.20    4.90
   7   2  21    8.10    5.30
  -5  -1 -20   11.80    4.30
  -5  -1 -20   11.40    5.10
   5   1  20    9.00    4.50
   5   1  20   12.90    5.50
  -3   0 -19    0.00    4.10
  -3   0 -19    6.40    3.90
   3   0  19    5.90    5.70
   3   0  19    5.20    4.20
  -1   1 -18   26.30    4.90
   1  -1  18   18.60    5.00
   1  -1  18   10.30    6.50
   1   2 -17   -3.80    4.40
   1   2 -17    7.50    4.30
   1   2 -17    2.60    3.90
  -1  -2  17    6.00    6.90
   3   3 -16    3.40    4.20
   3   3 -16   12.50    4.90
  -3  -3  16    6.50    6.70
   5   4 -15    4.20    4.90
  -5  -4  15    9.20    6.80
   7   5 -14   24.10    7.90
  -7  -5  14   25.40    9.20
  -9  -6  13    2.00    9.20
  -6  -1 -21    4.80    4.90
  -6  -1 -21   14.00    4.70
   6   1  21   15.00    5.40
   6   1  21   11.80    5.50
  -4   0 -20   44.90    6.30
  -4   0 -20   18.10    6.00
   4   0  20   46.30    8.70
   4   0  20   37.40    6.40
  -2   1 -19   42.80    6.40
   2  -1  19   42.40    7.00
   2  -1  19   39.60    8.40
   0   2 -18   54.49    9.00
   0   2 -18   55.19    7.70
   0   2 -18   74.89    8.50
   0  -2  18   61.69   10.00
   2   3 -17   54.39    7.80
   2   3 -17   55.19    7.80
  -2  -3  17   53.99    9.90
   4   4 -16   16.60    5.40
  -4  -4  16   11.10    6.80
   6   5 -15    2.70    5.50
  -6  -5  15   -2.30    7.10
   8   6 -14   -0.50    6.60
  -8  -6  14    4.10    8.00
  -5   0 -21   -0.70    4.90
  -5   0 -21    2.20    4.50
   5   0  21    1.40    4.90
   5   0  21   -2.40    5.40
  -3   1 -20   11.70    4.70
   3  -1  20   14.00    5.80
   3  -1  20   17.40    6.40
  -1   2 -19   10.80    7.00
  -1   2 -19    8.20    5.30
   1  -2  19    5.80    5.00
   1  -2  19   11.50    6.20
   1   3 -18    9.00    4.50
   1   3 -18    6.20    4.60
  -1  -3  18    5.40    6.40
   3   4 -17   21.70    5.90
  -3  -4  17   25.00    8.00
   5   5 -16   10.80    5.60
  -5  -5  16   14.20    8.20
   7   6 -15   -2.90    5.80
  -7  -6  15   10.00    8.40
  -6   0 -22   -1.60    5.40
  -6   0 -22    6.00    4.80
   6   0  22    6.20    6.00
  -4   1 -21    3.40    4.40
   4  -1  21    5.70    6.20
  -2   2 -20    1.40    4.30
  -2   2 -20    3.30    5.00
   2  -2  20   10.70    6.40
   0   3 -19   -3.90    4.40
   0  -3  19    5.90    6.10
   2   4 -18   11.80    5.20
  -2  -4  18    6.00    6.40
   4   5 -17   -2.50    4.80
  -4  -5  17   -3.40    6.50
   6   6 -16    2.10    5.70
  -6  -6  16   10.10    7.90
  -5   1 -22   13.80    5.40
   5  -1  22   15.10    7.20
   5  -1  22   13.50    6.70
  -3   2 -21   -2.60    4.80
  -3   2 -21    5.30    4.60
   3  -2  21    4.40    5.50
   3  -2  21    1.70    6.10
  -1   3 -20   22.60    5.70
   1  -3  20   19.10    7.40
   1  -3  20   17.70    6.40
   1   4 -19    5.80    4.60
  -1  -4  19   -4.30    6.60
   3   5 -18   16.90    6.10
  -3  -5  18   13.40    7.70
  -5  -6  17   11.60    8.50
  -4   2 -22    8.60    5.20
  -4   2 -22   -3.90    4.70
   4  -2  22    7.40    6.70
  -2   3 -21    5.10    5.00
   2  -3  21   16.10    7.90
   0   4 -20   30.10    6.50
   0  -4  20   27.90    9.30
   2   5 -19   28.30    6.30
  -2  -5  19   10.10    8.40
  -4  -6  18   39.60   10.50
   6   7 -17    1.60    6.50
  -3   3 -22    9.00    5.50
   3  -3  22   13.90    7.60
  -1   4 -21    2.10    4.80
   1  -4  21   14.10    7.90
   1   5 -20    2.80    5.50
  -1  -5  20    5.40    7.70
  -3  -6  19   -1.60    7.90
   5   7 -18    5.20    6.50
  -2   4 -22    4.40    5.30
   2  -4  22    9.20    7.70
   0   5 -21   24.60    6.50
   2   6 -20   34.10    8.50
  -2  -6  20   29.00   10.00
   4   7 -19   -1.80    6.30
   1   6 -21   19.80    6.90
  -1  -6  21   12.50    8.80
   1  16   2   13.70    5.00
   2  16   3   15.20    5.10
   2  16   3   10.20    7.30
   0  15   2   11.50    5.20
  -2  14   1   20.20    6.50
  -4  13   0    6.70    5.40
  -4  13   0   10.10    7.20
  -3 -16  -4    3.50    4.90
   3  16   4    9.40    7.60
   1  15   3   24.50    8.20
   1  15   3   22.90    5.40
  -1  14   2   27.90    6.30
  -3  13   1   22.60    8.50
  -3  13   1   32.60    6.80
  -5  12   0    5.00    5.50
  -5  12   0   10.10    6.50
   4  16   5   10.60    4.20
   4  16   5    4.80    6.30
  -2 -15  -4   11.10    4.90
   2  15   4    6.10    3.70
   2  15   4    4.10    6.60
   0  14   3   10.50    4.90
  -2  13   2    6.70    4.50
  -2  13   2   11.00    5.70
  -4  12   1   -1.00    4.90
  -4  12   1    1.80    4.50
  -6  11   0   -2.50    5.20
  -6  11   0   -2.70    5.30
  -3 -15  -5   36.10    6.80
   1  14   4   81.79   11.70
   1  14   4   75.79    8.90
  -1  13   3   64.29    9.20
  -1  13   3   77.59   12.10
  -3  12   2   37.80    7.70
  -3  12   2   59.59    9.90
  -5  11   1   16.10    6.30
   6  16   7   -4.80    3.30
   6  16   7    3.40    6.10
   6  16   7    0.40    3.00
  -4 -15  -6    0.10    4.50
   4  15   6    2.10    3.10
  -2 -14  -5   11.80    4.60
   2  14   5   14.60    4.10
   2  14   5   10.70    5.90
   0 -13  -4    0.80    3.80
   0  13   4    5.00    3.40
   0  13   4    2.80    5.30
   2 -12  -3    6.30    3.80
  -2  12   3    3.30    5.20
  -2  12   3    5.70    3.70
  -4  11   2    2.50    5.00
  -4  11   2    3.30    4.40
   6 -10  -1    7.80    7.60
  -6  10   1   16.00    5.80
   5  15   7    1.30    2.90
  -3 -14  -6   18.10    4.80
   3  14   6   18.70    4.00
  -1 -13  -5   64.79    7.90
   1  13   5   55.59    9.60
   1  13   5   58.39    7.90
   1 -12  -4   32.50    6.20
  -1  12   4   38.80    8.40
  -1  12   4   59.19    7.20
   3 -11  -3    1.60    3.50
   3 -11  -3    4.90    6.20
  -3  11   3    4.30    3.90
  -3  11   3    6.90    4.90
   5 -10  -2    2.90    5.70
  -5  10   2   -2.10    4.40
  -5  10   2   -1.80    4.40
   7  -9  -1    2.00    7.30
  -7   9   1   12.00    5.70
  -7   9   1    4.00    5.20
   6  15   8   37.10    5.50
   6  15   8   39.20    5.40
  -4 -14  -7   41.40    6.30
   4  14   7   31.30    4.90
   4  14   7   38.40    8.20
  -2 -13  -6   69.29    8.00
   2  13   6   75.59    7.90
   2  13   6   76.39   10.70
   0 -12  -5   28.20    5.50
   0  12   5   38.30    7.60
   0  12   5   30.80    5.30
   2 -11  -4   10.90    3.90
   2 -11  -4    6.30    5.30
  -2  11   4    6.80    5.20
  -2  11   4    2.00    3.30
   4 -10  -3    2.70    5.30
  -4  10   3   -2.00    4.10
  -4  10   3    0.20    3.60
   6  -9  -2    8.50    6.20
  -6   9   2    3.40    4.50
  -6   9   2    7.70    5.30
  -8   8   1    1.60    5.20
  -8   8   1    4.00    5.20
   7  15   9   12.90    3.00
   7  15   9    7.70    4.00
   5  14   8    3.80    2.60
   5  14   8    2.90    4.70
  -3 -13  -7   14.30    3.90
   3  13   7    8.90    3.10
   3  13   7   16.10    5.60
  -1 -12  -6   50.79    6.70
   1  12   6   50.29    8.90
   1  12   6   50.69    6.50
   1 -11  -5    4.70    4.70
   1 -11  -5   10.30    3.90
  -1  11   5   12.90    3.90
  -1  11   5    7.90    5.20
   3 -10  -4   77.49   11.60
  -3  10   4   83.29   10.00
  -3  10   4   83.29   10.90
   5  -9  -3   12.50    6.30
  -5   9   3   13.90    5.40
  -5   9   3   19.20    5.70
   7  -8  -2   18.80    7.70
  -7   8   2   27.50    6.70
  -7   8   2   13.50    5.90
   8  15  10   23.90    7.80
   6  14   9   83.69    8.40
   6  14   9   84.49   12.80
   6  14   9   87.69    8.20
  -4 -13  -8   19.10    4.30
   4  13   8   17.10    6.30
   4  13   8   16.20    3.20
  -2 -12  -7   40.30    5.60
   2  12   7   40.40    5.40
   2  12   7   36.50    7.50
   0 -11  -6   39.20    8.20
   0 -11  -6   52.69    6.60
   0  11   6   47.30    8.20
   0  11   6   57.19    6.90
   2 -10  -5    3.30    5.00
   2 -10  -5    2.00    3.30
  -2  10   5   -0.40    4.00
  -2  10   5    0.10    2.90
   4  -9  -4    5.50    4.00
   4  -9  -4    3.50    5.20
  -4   9   4    1.10    4.30
  -4   9   4    5.00    4.20
   6  -8  -3    7.10    6.60
  -6   8   3    4.00    4.60
  -6   8   3    2.70    4.20
  -8   7   2   11.20    5.70
  -8   7   2   -0.60    4.90
   7  14  10    4.20    5.60
   7  14  10    6.70    2.60
   5  13   9    7.30    2.50
   5  13   9    5.80    4.40
  -3 -12  -8   14.40    3.40
   3  12   8   16.90    3.10
   3  12   8   11.00    4.90
  -1 -11  -7   53.59    6.30
   1  11   7   56.89    8.60
   1  11   7   46.70    5.80
   1 -10  -6   72.39    8.80
   1 -10  -6   94.79   11.30
  -1  10   6   97.59   10.60
  -1  10   6   92.29    8.90
   3  -9  -5   62.79    8.30
  -3   9   5   83.39    8.70
  -3   9   5  104.59   11.20
   5  -8  -4   60.59    8.50
   5  -8  -4   66.99   11.70
  -5   8   4   79.39    9.50
  -5   8   4   79.19    9.70
   7  -7  -3   15.60    7.40
  -7   7   3   31.80    6.60
  -7   7   3   25.50    6.10
  -9   6   2    0.30    5.50
  -9   6   2    6.30    6.30
   8  14  11   -0.10    4.90
   6  13  10    2.90    2.10
   6  13  10    7.10    1.90
   6  13  10    5.90    5.10
   4  12   9   20.60    6.00
   4  12   9   26.10    3.50
  -2 -11  -8    9.50    4.80
  -2 -11  -8    9.80    3.10
   2  11   8   14.50    5.00
   2  11   8   13.20    3.00
   0 -10  -7   44.20    6.20
   0  10   7   49.99    8.30
   0  10   7   61.59    6.00
   2  -9  -6    6.50    4.50
   2  -9  -6    3.30    3.10
  -2   9   6    3.60    4.10
  -2   9   6    2.40    2.90
   4  -8  -5    8.80    3.60
   4  -8  -5    4.80    4.70
  -4   8   5    5.30    4.90
  -4   8   5    9.50    4.80
   6  -7  -4    8.70    5.10
  -6   7   4    1.80    4.80
  -6   7   4    3.30    3.90
   8  -6  -3   17.20    7.00
  -8   6   3   19.50    6.50
  -8   6   3   19.60    6.10
   7  13  11   24.50    6.50
  -5 -12 -10    1.40    4.40
   5  12  10    1.70    4.50
   5  12  10    2.00    1.40
  -3 -11  -9   25.80    6.60
  -3 -11  -9   30.40    4.30
   3  11   9   31.20    3.80
   3  11   9   24.50    6.20
  -1 -10  -8   28.80    4.00
  -1 -10  -8    9.40    5.60
   1  10   8   24.90    6.10
   1  10   8   22.20    3.60
   1  -9  -7   56.89    6.70
   1  -9  -7   51.49    8.50
  -1   9   7   60.19    6.90
   3  -8  -6  101.09   10.70
   3  -8  -6   66.89    8.60
  -3   8   6   88.09    9.10
  -3   8   6  119.09   13.90
   5  -7  -5   18.20    5.60
  -5   7   5   16.40    4.30
   7  -6  -4    2.90    4.90
  -7   6   4    3.10    4.60
   9  -5  -3    6.40    5.90
  -9   5   3    1.50    5.50
  -9   5   3   -6.10    5.60
   8  13  12    3.10    6.00
   6  12  11   86.09   11.50
  -4 -11 -10   85.09   10.90
   4  11  10   97.49    8.20
   4  11  10   84.49   10.80
  -2 -10  -9  182.48   15.90
  -2 -10  -9  177.98   18.00
   2  10   9  185.08   16.00
   2  10   9  186.68   17.90
   0  -9  -8   53.89    6.60
   0  -9  -8   70.99    8.30
   0   9   8   72.69    6.70
   2  -8  -7  122.99   12.50
   2  -8  -7  103.99   10.80
  -2   8   7  121.49   11.10
  -2   8   7  114.89   12.20
   4  -7  -6  159.98   15.10
   4  -7  -6  131.79   13.70
  -4   7   6  145.79   14.50
  -4   7   6  151.38   13.80
   6  -6  -5    6.40    4.90
   6  -6  -5    5.30    4.00
  -6   6   5   10.10    4.70
  -6   6   5    6.80    5.20
   8  -5  -4    5.30    5.40
  -8   5   4    9.70    5.60
  10  -4  -3    1.60    6.80
 -10   4   3    1.70    6.30
   9  13  13    8.60    5.90
   7  12  12   26.70    6.60
  -5 -11 -11   28.60    6.40
   5  11  11   26.20    6.30
  -3 -10 -10    0.30    3.80
   3  10  10    3.90    4.10
   3  10  10    4.70    1.50
  -1  -9  -9    1.50    2.20
  -1  -9  -9    4.40    3.60
   1   9   9   -0.80    3.40
   1   9   9    4.30    2.00
   1  -8  -8   17.90    5.30
   1  -8  -8   20.40    4.50
  -1   8   8   22.40    5.20
  -1   8   8   24.30    3.70
   3  -7  -7   30.90    5.10
   3  -7  -7   22.30    5.80
  -3   7   7   30.80    6.00
  -3   7   7   32.30    4.80
   5  -6  -6   32.50    6.20
   5  -6  -6   43.40    7.50
  -5   6   6   38.10    7.70
  -5   6   6   48.40    7.20
   7  -5  -5   61.49    9.10
  -7   5   5   61.79    9.20
  -7   5   5   62.89    9.70
   9  -4  -4   20.70    6.60
  -9   4   4   13.00    6.60
   8  12  13   29.60    6.90
  -6 -11 -12   70.29   10.20
   6  11  12   81.29   10.30
  -4 -10 -11  120.49   12.90
   4  10  11  119.69   12.90
  -2  -9 -10  152.58   16.00
  -2  -9 -10  176.68   14.00
   2   9  10  158.68   14.00
   2   9  10  149.59   15.80
   0  -8  -9   45.60    5.00
   0  -8  -9   41.10    6.80
   0   8   9   32.00    4.10
   0   8   9   44.50    6.70
   2  -7  -8   65.89    8.10
   2  -7  -8   59.19    6.50
  -2   7   8   58.69    6.40
  -2   7   8   63.19    7.80
   4  -6  -7   78.19    9.20
   4  -6  -7   55.49    7.00
  -4   6   7   67.99    8.60
  -4   6   7   54.59    7.70
   6  -5  -6   10.70    3.90
   6  -5  -6   11.30    5.00
  -6   5   6    6.00    4.80
  -6   5   6    8.40    4.50
   8  -4  -5   -1.80    4.70
  -8   4   5    3.90    4.90
 -10   3   4    0.90    6.50
 -10   3   4   -0.40    5.70
  -9 -12 -14   -0.90    4.40
   9  12  14   11.10    6.60
  -7 -11 -13    5.20    4.50
   7  11  13    6.00    4.50
  -5 -10 -12   30.30    6.30
   5  10  12   29.90    6.30
  -3  -9 -11   15.60    4.90
   3   9  11   11.20    4.30
  -1  -8 -10   22.60    5.30
  -1  -8 -10   27.90    3.40
   1   8  10   22.80    3.10
   1   8  10   22.70    4.90
   1  -7  -9   20.20    5.10
   1  -7  -9   29.40    4.10
  -1   7   9   27.30    3.70
  -1   7   9   21.20    5.30
   3  -6  -8   66.49    8.70
   3  -6  -8   55.69    6.70
  -3   6   8   63.79    7.00
  -3   6   8   63.59    7.70
   5  -5  -7   76.19    9.10
   5  -5  -7   68.29    8.60
  -5   5   7   70.49    8.20
  -5   5   7   73.59    9.00
   7  -4  -6   58.19    9.20
  -7   4   6   76.89   10.10
  -7   4   6   71.49    9.60
   9  -3  -5   21.00    6.30
  -9   3   5   11.60    6.80
  -9   3   5   11.20    5.60
  -8 -11 -14    2.00    4.50
   8  11  14   12.20    6.10
  -6 -10 -13    2.70    4.30
   6  10  13   13.80    4.70
  -4  -9 -12    2.40    3.70
   4   9  12    6.60    4.00
  -2  -8 -11    6.40    3.90
   2   8  11    9.00    4.20
   0  -7 -10   21.70    4.90
   0  -7 -10   29.40    3.60
   0   7  10   22.50    5.20
   0   7  10   28.00    3.50
   2  -6  -9   30.00    5.70
  -2   6   9   34.80    5.90
  -2   6   9   29.40    4.30
   4  -5  -8   10.80    3.60
   4  -5  -8   13.50    4.20
  -4   5   8   12.40    3.20
  -4   5   8    5.00    4.00
   6  -4  -7   37.80    6.80
  -6   4   7   50.09    7.40
  -6   4   7   38.40    7.10
   8  -3  -6    7.10    4.90
  -8   3   6    8.00    5.70
  -8   3   6   12.10    7.30
  10  -2  -5    1.60    5.90
 -10   2   5   12.90    6.30
 -10   2   5   -1.50    5.00
  -9 -11 -15    0.80    4.70
   9  11  15    7.20    5.50
  -7 -10 -14   54.49    9.30
   7  10  14   85.59   11.00
  -5  -9 -13   35.00    6.50
   5   9  13   37.90    7.00
  -3  -8 -12    5.10    3.90
   3   8  12    8.40    4.10
  -1  -7 -11   77.59    7.20
  -1  -7 -11   67.79    8.80
   1   7  11   88.69    7.20
   1   7  11   79.79    9.10
   1  -6 -10   42.10    4.90
   1  -6 -10   39.20    6.20
  -1   6  10   39.90    6.10
  -1   6  10   38.10    4.70
   3  -5  -9   80.89    9.10
   3  -5  -9   75.09    7.90
  -3   5   9   87.39    8.00
  -3   5   9   70.09    8.90
   5  -4  -8   21.90    4.60
   5  -4  -8   16.40    5.00
  -5   4   8   16.60    5.50
  -5   4   8   26.20    5.20
   7  -3  -7   -0.10    4.30
   7  -3  -7    5.60    3.80
  -7   3   7    0.30    4.10
  -9   2   6   -2.20    4.80
  -9   2   6    4.40    5.90
  -8 -10 -15    3.10    4.10
   8  10  15    2.00    5.30
  -6  -9 -14   55.29    8.60
   6   9  14   69.59    9.30
  -4  -8 -13  248.88   22.90
   4   8  13  249.88   23.00
  -2  -7 -12   70.49    8.50
   2   7  12   76.09    8.60
   0  -6 -11  290.67   27.00
   0  -6 -11  304.57   25.90
   0   6  11  323.87   25.90
   0   6  11  290.57   26.90
   2  -5 -10  261.07   23.20
   2  -5 -10  256.27   24.10
  -2   5  10  262.17   24.00
  -2   5  10  286.17   23.20
   4  -4  -9   65.29    7.20
   4  -4  -9   42.10    7.20
  -4   4   9   53.29    6.40
  -4   4   9   64.79    8.30
   6  -3  -8   51.49    7.70
   6  -3  -8   54.29    7.90
  -6   3   8   50.29    7.00
  -6   3   8   59.59    8.40
   8  -2  -7   10.00    5.70
  -8   2   7   13.90    5.50
  -8   2   7   16.90    5.90
  10  -1  -6   -2.20    5.20
 -10   1   6    6.60    6.20
 -10   1   6   -0.60    5.70
  -9 -10 -16   16.50    5.40
  -7  -9 -15    5.70    4.40
   7   9  15   12.60    4.70
  -5  -8 -14   50.39    7.70
   5   8  14   55.99    7.90
  -3  -7 -13   89.09   10.70
   3   7  13  110.19   10.50
  -1  -6 -12    7.50    1.90
  -1  -6 -12    5.90    3.60
  -1  -6 -12    2.50    1.90
   1   6  12    6.50    3.80
   1  -5 -11   30.80    5.70
   1  -5 -11   41.30    4.80
  -1   5  11   34.40    5.90
  -1   5  11   40.00    4.60
   3  -4 -10   44.10    5.90
   3  -4 -10   44.10    6.70
  -3   4  10   51.39    5.80
  -3   4  10   42.50    6.90
   5  -3  -9   15.30    4.40
   5  -3  -9   25.70    5.30
  -5   3   9   32.90    5.80
  -5   3   9   27.60    4.80
   7  -2  -8   65.49    9.40
   7  -2  -8   59.29    8.90
  -7   2   8   75.79    8.70
  -7   2   8   79.49   11.00
   9  -1  -7   28.10    7.00
  -9   1   7   36.10    7.30
  -9   1   7   33.00    7.70
  11   0  -6    2.60    6.40
 -11   0   6   18.20    7.40
  -8  -9 -16    5.10    4.00
   8   9  16   -1.30    4.30
  -6  -8 -15   46.20    7.30
   6   8  15   54.19    7.50
  -4  -7 -14   20.20    5.00
   4   7  14   18.80    5.00
  -2  -6 -13   59.69    8.20
   2   6  13   63.69    8.40
   0  -5 -12   38.60    4.60
   0  -5 -12   50.49    6.80
   0   5  12   47.10    6.90
   2  -4 -11   81.89    8.50
   2  -4 -11   80.59    9.40
  -2   4  11  107.69    9.90
  -2   4  11   84.59    8.30
   4  -3 -10    0.90    3.40
   4  -3 -10   -5.80    2.90
  -4   3  10    4.30    4.30
  -4   3  10    3.20    3.00
   6  -2  -9    3.40    3.80
   6  -2  -9    2.70    4.20
  -6   2   9    5.60    4.10
   8  -1  -8    1.80    4.70
  -8   1   8    9.60    6.20
  -8   1   8    6.90    5.20
  10   0  -7    2.70    5.60
 -10   0   7   15.40    6.50
 -10   0   7    6.80    5.80
  -9  -9 -17    5.00    4.30
  -7  -8 -16   39.60    7.30
   7   8  16   55.99    7.70
  -5  -7 -15   32.00    6.20
   5   7  15   40.10    6.60
  -3  -6 -14   65.89    8.00
   3   6  14   64.89    8.10
  -1  -5 -13  130.09   10.90
  -1  -5 -13  120.09   12.40
  -1  -5 -13  122.49   10.80
   1   5  13  121.59   12.40
   1  -4 -12   57.59    5.80
   1  -4 -12   52.49    7.50
  -1   4  12   55.89    7.60
   3  -3 -11   37.40    6.60
   3  -3 -11   43.30    5.80
  -3   3  11   37.40    6.90
  -3   3  11   46.80    5.50
   5  -2 -10   55.79    7.00
   5  -2 -10   41.90    7.40
  -5   2  10   57.59    8.60
  -5   2  10   45.90    6.80
   7  -1  -9    1.30    3.90
  -7   1   9    4.50    4.40
  -7   1   9   -3.50    5.00
   9   0  -8   17.00    6.50
  -9   0   8   27.80    6.80
  -9   0   8   25.50    7.40
 -11  -1   7   15.00    7.10
  -8  -8 -17    3.30    4.10
   8   8  17    6.30    4.60
  -6  -7 -16    3.20    3.80
   6   7  16    5.00    4.30
  -4  -6 -15   24.20    5.20
   4   6  15   28.60    5.80
  -2  -5 -14    0.50    3.50
   2   5  14   -3.80    3.70
   0  -4 -13   69.79    8.80
   0  -4 -13   85.29    7.50
   0  -4 -13   77.39    7.50
   0   4  13   76.89    8.90
   2  -3 -12    1.70    3.60
  -2   3  12    8.60    2.90
  -2   3  12   10.70    4.40
   4  -2 -11   21.60    5.40
   4  -2 -11   13.70    4.40
  -4   2  11   18.00    5.80
  -4   2  11   20.60    4.00
   6  -1 -10   49.40    8.00
  -6   1  10   57.39    7.10
  -6   1  10   54.79    8.80
   8   0  -9    4.70    5.00
  -8   0   9   -3.10    4.50
  -8   0   9    6.20    6.10
 -10  -1   8   13.80    7.50
 -10  -1   8    5.60    6.10
  -9  -8 -18   15.60    5.10
   9   8  18   36.50    7.30
  -7  -7 -17   40.20    7.00
   7   7  17   61.99    8.10
  -5  -6 -16  133.09   14.10
   5   6  16  150.88   14.10
  -3  -5 -15  131.29   14.10
   3   5  15  159.78   14.30
  -1  -4 -14   46.80    5.00
  -1  -4 -14   48.40    6.70
  -1  -4 -14   49.00    4.90
   1   4  14   57.09    7.60
   1  -3 -13   65.79    6.30
   1  -3 -13   52.69    6.10
   1  -3 -13   63.09    7.40
  -1   3  13   48.10    7.50
   3  -2 -12   24.60    4.20
   3  -2 -12   12.30    4.70
  -3   2  12   12.70    5.10
  -3   2  12   19.10    4.00
   5  -1 -11    0.80    4.20
   5  -1 -11   -0.90    3.50
  -5   1  11    1.10    5.30
  -5   1  11    1.60    3.90
   7   0 -10    0.70    4.70
  -7   0  10    8.60    4.60
  -7   0  10    1.80    5.70
  -9  -1   9    9.60    6.80
  -9  -1   9   -1.00    5.30
  -8  -7 -18    3.60    4.00
   8   7  18    0.30    4.60
  -6  -6 -17    4.10    4.30
   6   6  17    2.80    4.60
  -4  -5 -16   14.20    4.60
   4   5  16   11.60    4.90
  -2  -4 -15   -1.20    3.30
  -2  -4 -15    5.30    1.90
  -2  -4 -15    6.00    1.90
   2   4  15    3.30    4.50
   0  -3 -14  119.99   13.00
   0  -3 -14  142.79   11.90
   0  -3 -14  138.49   11.90
   0   3  14  117.49   13.00
   2  -2 -13  119.49   11.00
   2  -2 -13  120.59   11.10
   2  -2 -13  112.89   11.90
  -2   2  13  106.99   12.10
   4  -1 -12   59.49    8.50
   4  -1 -12   64.29    7.40
   6   0 -11   72.69    9.70
   6   0 -11   75.49    9.10
  -6   0  11   85.89   11.40
  -6   0  11   92.69    9.80
   8   1 -10   27.90    6.90
  -8  -1  10   28.30    6.70
  -8  -1  10   42.20    8.40
 -10  -2   9   12.20    6.80
 -10  -2   9   -4.40    5.80
  -9  -7 -19   19.80    5.10
   9   7  19   33.80    6.50
  -7  -6 -18    3.10    4.00
   7   6  18    6.70    4.60
  -5  -5 -17    3.70    4.20
   5   5  17    2.90    4.30
  -3  -4 -16   74.29    6.50
  -3  -4 -16   67.89    9.00
  -3  -4 -16   67.69    6.60
   3   4  16   69.59    8.70
  -1  -3 -15   -0.50    2.20
  -1  -3 -15    0.70    2.40
  -1  -3 -15    2.40    3.90
   1   3  15    0.80    4.30
   1  -2 -14   64.49    6.30
   1  -2 -14   45.50    7.60
   1  -2 -14   51.59    7.20
  -1   2  14   62.49    8.30
   3  -1 -13    1.10    2.70
   3  -1 -13   -0.50    3.90
   3  -1 -13    4.90    3.60
   5   0 -12    5.60    4.00
   5   0 -12   -1.10    5.10
  -5   0  12   -0.90    5.60
   7   1 -11    9.20    5.30
  -7  -1  11    8.10    5.30
  -7  -1  11   16.70    6.90
  -9  -2  10   34.70    8.90
  -8  -6 -19   22.10    5.10
   8   6  19   30.50    6.50
  -6  -5 -18   40.20    7.00
   6   5  18   60.29    8.00
  -4  -4 -17   35.80    4.00
  -4  -4 -17   28.70    3.60
  -4  -4 -17   32.50    6.20
   4   4  17   34.40    6.50
  -2  -3 -16   42.50    4.70
  -2  -3 -16   31.80    6.40
  -2  -3 -16   38.90    4.70
   2   3  16   35.80    6.90
   0  -2 -15   11.20    3.10
   0  -2 -15    7.00    3.00
   0  -2 -15    5.90    3.90
   0   2  15    7.80    5.20
   2  -1 -14  108.29   10.30
   2  -1 -14  109.29   10.40
   2  -1 -14   98.39   11.20
  -2   1  14  109.49   12.30
   4   0 -13   58.89    7.80
   4   0 -13   58.39    7.20
  -4   0  13   43.50    8.50
   6   1 -12    7.00    5.30
   6   1 -12    8.30    5.60
   6   1 -12    6.00    4.50
  -6  -1  12   10.10    6.40
   8   2 -11   11.30    6.70
  -8  -2  11    5.20    7.30
  10   3 -10    8.40    8.40
 -10  -3  10   10.70    7.30
   9   6  20   16.90    4.90
  -7  -5 -19    1.00    3.70
   7   5  19    1.20    4.80
   7   5  19   -2.40    2.50
  -5  -4 -18   46.40    7.50
  -5  -4 -18   55.69    5.40
   5   4  18   46.10    7.80
  -3  -3 -17  127.99   10.90
  -3  -3 -17  110.49   12.40
  -3  -3 -17  116.29   11.00
   3   3  17  127.59   12.80
  -1  -2 -16   52.99    7.80
  -1  -2 -16   53.79    5.90
  -1  -2 -16   53.69    5.80
   1   2  16   56.59    8.40
   1  -1 -15   49.50    5.90
   1  -1 -15   39.50    7.20
   1  -1 -15   45.40    6.10
  -1   1  15   48.70    8.40
   3   0 -14   65.89    8.10
   3   0 -14   87.59    8.70
  -3   0  14   78.99   10.90
   5   1 -13    5.30    5.40
   5   1 -13   10.90    5.20
  -5  -1  13    5.10    6.10
   7   2 -12   23.00    6.70
  -7  -2  12    4.70    6.80
   9   3 -11   10.50    7.80
  -9  -3  11    9.20    7.30
  -8  -5 -20    7.00    3.00
  -8  -5 -20   -1.90    3.40
   8   5  20   -0.70    3.20
   8   5  20    6.70    4.80
  -6  -4 -19   -6.20    2.40
  -6  -4 -19   -1.30    4.20
   6   4  19    1.10    2.80
   6   4  19   -2.60    4.60
  -4  -3 -18   25.10    6.00
   4   3  18   44.80    7.30
  -2  -2 -17   50.39    6.10
  -2  -2 -17   52.09    6.00
  -2  -2 -17   51.89    7.80
   2   2  17   77.29    9.20
   0  -1 -16   15.30    3.70
   0  -1 -16    7.10    4.80
   0  -1 -16   14.70    3.80
   0   1  16   10.10    6.20
   2   0 -15   31.60    5.10
   2   0 -15   25.20    7.40
   2   0 -15   25.90    5.10
  -2   0  15   39.60    7.90
   4   1 -14    1.80    3.60
  -4  -1  14   -6.60    5.50
   6   2 -13   10.30    5.60
  -6  -2  13   10.70    6.50
   8   3 -12   49.10    9.20
  -8  -3  12   27.20    8.40
  -7  -4 -20    5.90    4.40
   7   4  20   10.90    3.80
   7   4  20   14.20    5.30
  -5  -3 -19   22.00    6.40
  -5  -3 -19   44.80    5.30
   5   3  19   40.60    5.30
   5   3  19   34.90    7.40
  -3  -2 -18   74.19    9.70
  -3  -2 -18   68.79    7.60
   3   2  18   85.39   10.50
  -1  -1 -17   61.39    6.50
  -1  -1 -17   51.49    6.10
  -1  -1 -17   44.40    7.90
   1   1  17   43.70    9.20
   1   0 -16  115.39   14.00
   1   0 -16  145.49   12.80
   1   0 -16  127.39   12.70
  -1   0  16  149.59   14.60
   3   1 -15   42.60    6.40
   3   1 -15   41.90    6.50
  -3  -1  15   48.70    8.40
   5   2 -14   11.10    4.70
   5   2 -14   10.00    5.20
  -5  -2  14   12.10    6.90
   7   3 -13    9.00    6.50
  -7  -3  13   -4.60    6.70
   9   4 -12   -4.30    6.40
  -9  -4  12    9.10    9.90
  -8  -4 -21   -2.30    3.40
  -8  -4 -21    3.50    3.50
  -8  -4 -21    3.80    3.50
   8   4  21    7.20    4.80
  -6  -3 -20   10.10    4.10
  -6  -3 -20   11.30    5.10
   6   3  20   18.10    5.60
  -4  -2 -19    5.00    3.30
  -4  -2 -19    2.60    4.70
   4   2  19   10.00    5.20
  -2  -1 -18   34.20    5.40
  -2  -1 -18   31.00    6.60
   2   1  18   52.49    9.80
   0   0 -17   25.30    4.90
   0   0 -17   34.70    5.10
   0   0 -17   23.40    7.50
   0   0  17   25.20    7.50
   2   1 -16   20.10    4.80
   2   1 -16   24.50    5.00
   2   1 -16   19.00    6.20
  -2  -1  16   12.00    6.90
   4   2 -15   96.79   10.30
   4   2 -15  101.79   10.70
  -4  -2  15   83.99   12.70
   6   3 -14   77.49    9.90
  -6  -3  14   55.99   11.10
  -8  -4  13   19.00    7.60
  -7  -3 -21    0.40    4.20
  -7  -3 -21    3.10    3.80
   7   3  21    1.90    5.00
   7   3  21   -1.60    4.60
  -5  -2 -20    0.30    4.90
  -5  -2 -20    8.10    3.80
   5   2  20    3.40    5.00
   5   2  20   10.10    4.30
  -3  -1 -19   10.70    3.80
  -3  -1 -19    4.30    4.60
   3   1  19   -5.50    6.40
   3   1  19    7.90    4.10
  -1   0 -18   -2.90    3.70
  -1   0 -18    6.20    3.90
  -1   0 -18   -5.10    6.30
   1   0  18   -0.60    5.50
   1   1 -17   -1.00    3.60
   1   1 -17    1.10    5.20
   1   1 -17    1.90    3.70
  -1  -1  17   -1.20    5.70
   3   2 -16    4.30    5.50
   3   2 -16   -5.20    3.80
  -3  -2  16    2.90    6.30
   5   3 -15    4.60    5.00
  -5  -3  15    7.60    6.90
   7   4 -14   11.60    6.70
  -7  -4  14    3.80    7.20
  -9  -5  13    6.90    8.50
  -6  -2 -21    6.50    4.40
  -6  -2 -21    4.00    5.20
   6   2  21    9.30    4.50
   6   2  21   10.40    5.60
  -4  -1 -20   12.40    5.80
  -4  -1 -20   17.10    4.60
   4   1  20   25.40    5.40
   4   1  20   21.80    8.20
  -2   0 -19    0.90    3.70
   2   0  19    0.30    5.60
   0   1 -18    1.30    4.00
   0   1 -18    6.40    5.30
   0   1 -18    8.20    4.30
   0  -1  18   14.20    6.30
   2   2 -17   56.89    7.60
   2   2 -17   41.80    6.80
  -2  -2  17   51.09    9.20
   4   3 -16    3.30    4.90
  -4  -3  16   14.60    6.70
   6   4 -15   11.00    6.20
  -6  -4  15   -2.00    6.70
   8   5 -14    3.00    6.60
  -8  -5  14    1.40    7.60
  -7  -2 -22    6.70    4.70
  -7  -2 -22    4.60    4.90
   7   2  22    3.90    5.30
  -5  -1 -21    0.10    5.10
  -5  -1 -21    8.00    4.40
   5   1  21   16.10    5.10
   5   1  21   11.30    6.50
  -3   0 -20   34.10    6.10
   3   0  20   39.40    6.90
   3   0  20   44.00    8.30
  -1   1 -19   17.10    6.50
  -1   1 -19   32.80    5.50
   1  -1  19   36.90    8.00
   1   2 -18   50.49    7.80
   1   2 -18   59.29    8.10
  -1  -2  18   65.79   10.50
   3   3 -17   64.89    8.40
   3   3 -17   50.69    7.90
  -3  -3  17   54.29   10.60
   5   4 -16   13.80    5.80
  -5  -4  16   15.70    7.30
   7   5 -15   32.80    8.20
  -7  -5  15   14.10    8.70
  -6  -1 -22    3.10    4.60
  -6  -1 -22    1.30    5.30
   6   1  22   10.10    6.20
  -4   0 -21    2.20    4.40
   4   0  21   11.70    6.40
   4   0  21    9.80    5.20
  -2   1 -20   -2.50    4.80
  -2   1 -20    5.30    4.40
   2  -1  20   13.80    6.40
   2  -1  20   10.00    5.30
   0   2 -19   -8.00    4.80
   0   2 -19   -1.60    3.90
   0  -2  19   -4.10    6.00
   2   3 -18   -7.80    4.10
   2   3 -18   -6.00    4.40
  -2  -3  18   -1.20    6.20
   4   4 -17   14.40    5.70
  -4  -4  17    8.80    6.90
   6   5 -16   -4.60    5.70
  -6  -5  16    3.90    7.60
  -5   0 -22   -2.70    7.20
  -5   0 -22   12.30    5.90
   5   0  22   23.40    7.00
  -3   1 -21   38.40    6.50
  -3   1 -21   27.70    6.90
   3  -1  21   37.20    7.90
   3  -1  21   29.40    7.50
  -1   2 -20   58.49    7.40
   1  -2  20   39.00    8.70
   1   3 -19   51.09    8.10
   1   3 -19   55.09    8.00
  -1  -3  19   50.29   10.00
   3   4 -18   41.50    7.20
  -3  -4  18   25.50    8.10
   5   5 -17   23.30    7.10
  -5  -5  17   15.60    8.90
   7   6 -16    3.50    6.70
  -4   1 -22    5.50    4.80
  -4   1 -22   -5.00    5.10
   4  -1  22    2.40    6.00
   4  -1  22    1.70    6.10
  -2   2 -21    8.70    4.70
   2  -2  21   14.40    6.80
   2  -2  21    7.80    5.70
   0   3 -20   21.00    5.90
   0  -3  20   24.90    8.00
   2   4 -19    7.40    5.50
  -2  -4  19    0.50    6.40
   4   5 -18   37.70    8.10
  -4  -5  18   22.40    9.70
   6   6 -17   -0.30    6.00
  -6  -6  17   15.40    8.90
  -3   2 -22    4.30    4.90
   3  -2  22   -3.50    5.60
   3  -2  22    6.20    6.80
  -1   3 -21   -3.90    4.90
   1  -3  21    2.20    7.20
   1   4 -20    1.80    5.00
  -1  -4  20    3.90    7.50
   3   5 -19    6.30    5.60
  -3  -5  19   -2.80    7.40
   5   6 -18   -1.10    5.90
  -5  -6  18    8.90    8.30
  -2   3 -22    8.20    5.20
   2  -3  22    8.50    7.80
   0   4 -21    2.00    5.00
   0  -4  21    5.40    7.70
   2   5 -20   11.00    5.70
  -2  -5  20    3.70    8.10
   4   6 -19    0.30    5.90
  -4  -6  19   12.30    9.10
  -1   4 -22   13.20    6.20
   1  -4  22    7.30    8.30
   1   5 -21   25.00    7.20
  -1  -5  21   13.80    8.70
   3   6 -20   12.00    7.00
  -3  -6  20   24.70   10.80
  -1  15   2    8.00    5.00
  -1  15   2    4.20    6.60
   2  16   4   10.50    4.80
   0  15   3   24.10    6.00
   0  15   3   26.20    8.30
  -2  14   2    8.20    6.30
  -2  14   2   10.60    5.50
  -3 -16  -5   36.70    7.40
   3  16   5   34.60    6.50
   1  15   4   22.90    5.60
  -1  14   3    0.10    3.80
  -3  13   2    7.60    4.90
  -3  13   2    2.80    6.20
  -5  12   1    6.90    6.10
  -5  12   1   17.40    7.10
  -4 -16  -6    8.50    5.40
   4  16   6    9.30    6.00
   2  15   5    6.80    3.60
   2  15   5   -0.10    5.20
   0 -14  -4   29.90    6.10
   0  14   4   44.10    7.00
  -2  13   3   23.50    7.30
  -2  13   3   16.90    5.30
  -4  12   2   17.60    5.80
  -4  12   2   13.30    6.60
  -6  11   1   11.70    6.70
  -6  11   1   21.00    7.30
   5  16   7   36.20    9.90
   5  16   7   50.59    6.80
  -3 -15  -6   40.70    6.70
   3  15   6   48.10    6.70
   3  15   6   26.70    7.50
  -1 -14  -5    4.80    4.30
   1  14   5    7.10    3.90
   1  14   5    3.10    5.10
   1 -13  -4    5.80    4.30
  -1  13   4    6.60    3.80
  -1  13   4    6.40    5.40
  -3  12   3   16.30    5.10
  -3  12   3    7.90    5.80
  -5  11   2    3.40    5.80
   6  16   8    7.90    5.70
   6  16   8    2.30    3.40
  -4 -15  -7   13.10    4.90
   4  15   7    9.50    5.90
   4  15   7    9.30    3.20
  -2 -14  -6   29.00    5.60
   2  14   6   29.50    5.40
   2  14   6   31.30    7.70
   0 -13  -5   40.20    6.90
   0  13   5   56.59    7.60
   0  13   5   51.09    8.80
   2 -12  -4   93.49   11.00
  -2  12   4   86.79   10.90
  -2  12   4   98.39   13.40
  -4  11   3   27.50    6.80
  -4  11   3   35.10    6.50
  -6  10   2   29.10    7.30
   5  15   8    3.20    6.50
   5  15   8    4.00    2.90
  -3 -14  -7   -3.60    3.40
   3  14   7    2.30    2.90
   3  14   7    6.30    4.90
  -1 -13  -6    6.50    3.80
   1  13   6   12.00    5.70
   1  13   6    4.70    3.20
   1 -12  -5    2.10    3.60
  -1  12   5   10.10    5.60
   3 -11  -4    3.80    3.50
  -3  11   4    0.90    3.80
  -3  11   4   -3.10    4.20
  -5  10   3    2.90    5.00
  -5  10   3    2.70    4.70
  -7   9   2   -0.90    5.40
  -7   9   2    3.40    5.50
   6  15   9    4.80    5.60
   6  15   9    7.80    3.50
   6  15   9    2.50    2.80
  -4 -14  -8   43.20    6.30
   4  14   8   36.40    5.10
   4  14   8   25.50    7.40
  -2 -13  -7   28.70    4.90
   2  13   7   24.40    4.40
   2  13   7   23.50    6.60
   0 -12  -6   14.70    4.10
   0  12   6   15.00    3.90
   0  12   6    9.20    5.60
   2 -11  -5   43.80    6.50
   2 -11  -5   50.19    9.80
  -2  11   5   34.50    6.40
  -2  11   5   40.60    8.10
   4 -10  -4   10.80    6.20
  -4  10   4   28.70    6.00
  -4  10   4   22.40    6.40
   6  -9  -3    5.60    5.90
  -6   9   3    2.50    4.70
  -6   9   3   -2.90    4.10
  -8   8   2   -1.30    4.90
  -8   8   2    1.70    5.40
   7  15  10   37.40    8.10
   7  15  10   29.20    4.60
   5  14   9   32.90    7.80
   5  14   9   40.50    4.60
   5  14   9   28.00    4.40
   3  13   8   68.39    7.50
   3  13   8   96.29   12.00
  -1 -12  -7  131.49   13.60
   1  12   7  151.58   13.70
   1  12   7  171.68   16.10
   1 -11  -6   61.49    7.20
   1 -11  -6   54.19    9.80
  -1  11   6   67.99    9.70
  -1  11   6   64.69    7.20
   3 -10  -5   19.60    6.30
  -3  10   5   14.20    5.30
  -3  10   5    6.90    4.10
   5  -9  -4   -0.20    5.40
  -5   9   4    0.10    4.30
  -5   9   4   -1.10    4.50
   7  -8  -3    4.60    6.20
  -7   8   3   18.50    6.10
  -7   8   3    8.70    5.40
   6  14  10    7.70    2.70
   6  14  10    4.80    6.00
   6  14  10   10.00    2.60
   4  13   9   -1.90    4.00
   4  13   9    3.80    2.30
  -2 -12  -8    2.80    4.90
   2  12   8    7.00    4.80
   2  12   8    3.00    2.50
   0 -11  -7   25.60    4.70
   0  11   7   35.80    5.10
   0  11   7   34.80    7.10
   2 -10  -6   65.09   10.10
   2 -10  -6   55.09    7.80
  -2  10   6   70.99    8.30
  -2  10   6   68.99    9.50
   4  -9  -5   14.90    4.30
   4  -9  -5   16.40    5.90
  -4   9   5   12.50    4.70
  -4   9   5   16.40    5.40
   6  -8  -4   37.80    7.90
  -6   8   4   27.80    7.20
  -6   8   4   39.40    7.60
   8  -7  -3    9.70    7.50
  -8   7   3   16.50    6.60
  -8   7   3   -2.90    5.40
   7  14  11   20.60    7.10
   5  13  10   46.70    8.50
   5  13  10   42.40    4.70
   5  13  10   47.30    4.70
  -3 -12  -9  114.29   11.60
   3  12   9  126.59   14.10
   3  12   9  140.59   11.80
   1  11   8   43.10    5.40
   1  11   8   65.89    9.30
   1 -10  -7   34.00    7.00
   1 -10  -7   28.80    4.90
  -1  10   7   36.10    6.70
  -1  10   7   32.10    5.10
   3  -9  -6   35.60    5.50
   3  -9  -6   27.80    6.80
  -3   9   6   31.30    5.60
  -3   9   6   30.50    6.90
   5  -8  -5   13.60    5.60
   5  -8  -5   10.30    4.00
  -5   8   5    6.70    4.90
  -5   8   5   16.60    4.80
   7  -7  -4   11.50    5.70
  -7   7   4    1.50    4.70
  -7   7   4   -0.80    4.20
  -9   6   3    3.40    6.10
  -9   6   3    1.10    6.30
   8  14  12   43.40    9.20
   6  13  11   27.20    6.80
   4  12  10   14.40    5.40
   4  12  10    7.90    1.90
  -2 -11  -9   19.90    5.40
  -2 -11  -9   17.10    3.30
   2  11   9   21.40    5.90
   2  11   9   18.40    3.00
   0 -10  -8    3.90    2.80
   0  10   8    7.90    2.90
   0  10   8    2.80    4.00
   2  -9  -7  106.89   12.90
   2  -9  -7  163.88   16.90
  -2   9   7  157.48   14.60
  -2   9   7  145.29   13.00
   4  -8  -6   65.19    8.80
  -4   8   6   75.29    9.70
  -4   8   6   74.59    9.60
   6  -7  -5   35.80    9.00
  -6   7   5   31.30    7.00
  -6   7   5   32.60    6.60
   8  -6  -4   55.39    9.60
  -8   6   4   53.39    9.30
  -8   6   4   87.79   11.90
   7  13  12   20.30    6.80
   5  12  11    8.40    5.10
  -3 -11 -10   -1.80    3.90
  -3 -11 -10    0.80    2.20
   3  11  10   -0.50    1.70
   3  11  10   -3.40    3.90
  -1 -10  -9    4.90    2.60
  -1 -10  -9    3.50    3.60
   1  10   9    4.50    2.30
   1  10   9    4.60    4.10
   1  -9  -8   -1.10    2.70
   1  -9  -8   -1.40    4.70
  -1   9   8   -2.00    2.50
  -1   9   8    5.20    4.00
   3  -8  -7   77.39    8.30
   3  -8  -7   88.99   10.50
  -3   8   7   68.99    8.30
  -3   8   7   84.19    9.50
   5  -7  -6   13.10    6.70
   5  -7  -6    9.00    4.10
  -5   7   6   18.70    5.60
  -5   7   6   14.20    4.70
   7  -6  -5   13.70    7.00
  -7   6   5    6.00    5.20
  -7   6   5   10.10    5.60
   9  -5  -4    3.90    6.40
  -9   5   4    7.60    6.30
  -9   5   4    3.30    5.60
   8  13  13   17.60    7.00
   6  12  12   39.20    7.80
  -4 -11 -11   69.09   10.10
   4  11  11   62.19    9.50
  -2 -10 -10   64.09   10.20
  -2 -10 -10   46.90    5.30
   2  10  10   49.30    5.20
   2  10  10   74.49    9.10
   0  -9  -9   18.20    5.30
   0  -9  -9   19.70    3.80
   0   9   9   22.60    5.70
   0   9   9   22.60    3.70
   2  -8  -8    8.60    4.70
   2  -8  -8   20.90    3.80
  -2   8   8    7.70    5.10
  -2   8   8   20.80    3.70
   4  -7  -7   26.30    5.30
   4  -7  -7   32.90    6.60
  -4   7   7   31.70    6.60
  -4   7   7   29.10    5.50
   6  -6  -6   23.60    6.80
   6  -6  -6   13.00    4.40
  -6   6   6   15.70    5.70
  -6   6   6   28.00    5.80
   8  -5  -5    4.40    5.70
  -8   5   5   -5.70    4.40
  -8   5   5    1.40    5.40
  10  -4  -4   -6.50    6.80
 -10   4   4    1.10    5.50
   7  12  13    1.20    4.60
  -5 -11 -12   47.60    8.40
   5  11  12   54.89    8.40
   3  10  11  172.68   17.10
  -1  -9 -10   46.90    8.20
  -1  -9 -10   66.29    6.00
   1   9  10   61.09    8.70
   1   9  10   47.20    5.40
   1  -8  -9   96.09   11.60
   1  -8  -9  135.89   13.40
  -1   8   9  142.39   11.50
   3  -7  -8   97.99   10.60
   3  -7  -8   84.39    9.10
  -3   7   8   93.69    9.30
   5  -6  -7   39.80    7.00
   5  -6  -7   31.40    5.70
  -5   6   7   47.90    8.00
  -5   6   7   42.70    6.20
  -7   5   6   18.50    5.50
  -7   5   6   12.10    5.70
   9  -4  -5    5.00    5.80
  -9   4   5    7.40    6.30
  -9   4   5   -3.40    5.30
   8  12  14   19.00    6.20
  -6 -11 -13   46.70    8.20
   6  11  13   35.00    7.00
   4  10  12   29.60    6.10
  -2  -9 -11    3.60    4.00
   2   9  11    1.50    4.70
   0  -8 -10    2.60    3.70
   0  -8 -10   11.50    2.60
   0   8  10   11.40    2.50
   0   8  10    4.90    4.50
   2  -7  -9   14.90    4.80
   2  -7  -9   18.90    3.80
  -2   7   9   16.20    4.80
  -2   7   9   20.40    3.60
   4  -6  -8   73.39    9.00
   4  -6  -8   83.69    9.50
  -4   6   8   66.49    8.20
   6  -5  -7   18.60    5.60
   6  -5  -7   16.20    4.70
  -6   5   7   22.20    5.40
  -6   5   7   20.80    6.10
   8  -4  -6    9.40    5.80
  -8   4   6    6.70    5.70
  -8   4   6   12.00    6.00
  10  -3  -5   13.30    8.30
 -10   3   5   17.10    7.00
 -10   3   5   20.20    7.10
  -7 -11 -14    0.90    4.40
   7  11  14    8.90    5.60
   5  10  13  139.99   14.40
  -3  -9 -12  122.99   13.00
  -1  -8 -11  180.78   16.70
  -1  -8 -11  160.98   14.60
   1   8  11  179.08   16.40
   1   8  11  166.98   14.60
   1  -7 -10  164.38   14.80
   1  -7 -10  168.08   16.10
  -1   7  10  171.08   14.70
  -1   7  10  162.58   15.80
   3  -6  -9   44.10    7.50
   3  -6  -9   57.19    6.70
  -3   6   9   51.79    6.40
  -3   6   9   51.49    7.80
   5  -5  -8    4.60    4.40
   5  -5  -8    6.80    3.70
  -5   5   8   14.80    5.20
  -7   4   7    6.00    5.00
  -7   4   7   -3.30    4.90
   9  -3  -6    0.30    5.40
  -9   3   6   -0.90    5.40
  -8 -11 -15    5.50    4.80
   8  11  15   11.20    6.50
   6  10  14   52.09    8.80
  -4  -9 -13   33.60    6.50
  -2  -8 -12   69.19    9.50
   2   8  12   69.19    8.70
   0  -7 -11   14.20    2.80
   0  -7 -11    8.90    3.90
   0   7  11    9.80    2.40
   0   7  11   11.90    4.30
   2  -6 -10   65.69    7.30
   2  -6 -10   70.79    8.50
  -2   6  10   80.59    7.50
  -2   6  10   70.69    8.70
   4  -5  -9   34.00    6.10
   4  -5  -9   38.70    7.00
  -4   5   9   47.60    7.80
  -4   5   9   58.29    6.60
   6  -4  -8   33.70    7.10
   6  -4  -8   57.39    7.40
  -6   4   8   42.60    7.50
  -6   4   8   44.60    7.90
   8  -3  -7   55.09    9.50
  -8   3   7   64.29    9.30
  -8   3   7   75.79   10.00
  10  -2  -6   12.60    7.00
 -10   2   6   10.40    6.80
 -10   2   6   11.40    6.60
  -9 -11 -16    5.00    5.20
   9  11  16    2.20    5.00
   7  10  15   43.50    7.80
  -5  -9 -14    6.30    4.10
  -3  -8 -13   33.10    6.30
   3   8  13   36.10    6.70
  -1  -7 -12   72.89    6.80
  -1  -7 -12   73.89    8.80
   1   7  12   81.89    8.90
   1  -6 -11   48.20    7.10
   1  -6 -11   52.29    5.20
  -1   6  11   50.29    7.20
  -1   6  11   41.50    5.10
   3  -5 -10    6.00    3.30
   3  -5 -10    3.60    3.80
  -3   5  10    9.90    4.50
  -3   5  10    5.10    3.00
   5  -4  -9   33.10    5.70
   5  -4  -9   26.30    6.10
  -5   4   9   43.00    6.00
  -7   3   8   79.89   10.10
  -7   3   8   71.19   10.70
   9  -2  -7    5.40    5.40
  -9   2   7   -2.40    5.20
  -9   2   7    6.40    6.20
  -8 -10 -16    7.00    5.20
   8  10  16   25.00    5.90
  -6  -9 -15   13.80    5.10
  -4  -8 -14  101.69   11.90
   4   8  14  116.29   11.80
  -2  -7 -13   40.10    6.70
   2   7  13   50.29    7.00
   0  -6 -12    7.10    3.70
   0  -6 -12    8.40    2.30
   0   6  12    9.70    4.30
   0   6  12    5.80    2.30
   2  -5 -11   -3.60    3.20
  -2   5  11   14.20    4.40
  -2   5  11   10.90    3.00
   4  -4 -10   55.29    7.10
   4  -4 -10   61.69    8.50
  -4   4  10   66.09    9.20
  -4   4  10   68.89    7.00
   6  -3  -9   18.20    5.30
   6  -3  -9    3.00    4.50
  -6   3   9   10.60    5.70
  -6   3   9    6.40    4.40
   8  -2  -8   -0.60    4.80
  -8   2   8   -6.60    4.90
  -8   2   8    4.10    5.20
  10  -1  -7   14.10    7.60
 -10   1   7    9.10    7.00
 -10   1   7    0.10    5.90
  -9 -10 -17    5.40    4.70
   9  10  17   11.80    5.70
  -7  -9 -16    9.20    4.50
  -5  -8 -15   33.70    6.40
   5   8  15   35.60    6.40
  -3  -7 -14  104.59   11.30
   3   7  14  103.69   11.30
  -1  -6 -13  193.68   16.00
  -1  -6 -13  168.58   17.50
   1   6  13  191.58   17.70
   1  -5 -12  233.18   22.50
   1  -5 -12  244.58   21.50
  -1   5  12  258.57   22.70
  -1   5  12  254.17   21.40
   3  -4 -11  247.48   22.90
   3  -4 -11  231.28   21.90
  -3   4  11  271.77   22.10
  -3   4  11  251.27   23.00
   5  -3 -10  189.48   18.10
   5  -3 -10  174.48   18.70
  -5   3  10  224.08   18.30
  -5   3  10  201.98   19.40
   7  -2  -9   48.60    8.70
  -7   2   9   67.49    8.60
  -7   2   9   79.89   10.40
   9  -1  -8   27.20    7.20
  -9   1   8   33.70    8.10
  -9   1   8   24.10    7.10
  -8  -9 -17   42.50    8.10
   8   9  17   69.69    9.80
  -6  -8 -16   12.50    4.40
   6   8  16   14.50    5.10
  -4  -7 -15   32.30    6.40
   4   7  15   43.00    6.90
  -2  -6 -14  126.99   13.20
   2   6  14  134.59   13.10
   0  -5 -13    2.10    3.50
   0  -5 -13    4.50    2.20
   0  -5 -13    0.80    2.10
   0   5  13    6.40    4.00
   2  -4 -12    3.40    3.80
   2  -4 -12    0.30    3.30
  -2   4  12   -1.70    4.10
  -2   4  12   -2.90    2.50
   4  -3 -11   40.70    7.30
   4  -3 -11   62.19    7.30
  -4   3  11   55.89    6.60
   6  -2 -10   24.60    5.60
   6  -2 -10   23.40    6.90
  -6   2  10    5.80    4.60
  -6   2  10   20.40    6.30
   8  -1  -9    0.70    5.00
  -8   1   9    6.10    6.20
  -8   1   9    6.60    5.10
 -10   0   8   55.39    9.60
 -10   0   8   45.60    9.30
  -9  -9 -18    4.80    4.60
   9   9  18    3.60    6.50
  -7  -8 -17   10.40    4.80
   7   8  17    8.90    4.90
  -5  -7 -16   26.60    6.10
   5   7  16   30.80    6.20
  -3  -6 -15   25.70    5.70
   3   6  15   35.00    6.40
  -1  -5 -14   22.30    5.50
  -1  -5 -14   36.60    3.90
  -1  -5 -14   32.00    3.90
   1   5  14   35.50    6.50
   1  -4 -13   56.89    5.90
   1  -4 -13   41.50    7.30
   1  -4 -13   47.30    5.60
  -1   4  13   57.69    8.00
   3  -3 -12   31.20    6.70
   3  -3 -12   45.00    5.80
  -3   3  12   43.50    8.20
  -3   3  12   40.30    5.70
   5  -2 -11   33.00    5.80
   5  -2 -11   18.10    7.80
  -5   2  11   34.00    7.10
  -5   2  11   34.20    5.60
   7  -1 -10    0.10    4.60
  -7   1  10   -2.70    5.70
  -7   1  10   -1.60    4.70
  -9   0   9    6.00    5.60
  -9   0   9    2.20    6.60
  -8  -8 -18   10.50    4.70
   8   8  18   20.90    7.00
  -6  -7 -17    4.30    4.10
   6   7  17    8.30    4.60
  -4  -6 -16  108.59   12.20
   4   6  16  128.29   12.50
  -2  -5 -15   26.30    5.60
   2   5  15   21.20    5.70
   0  -4 -14   76.59    9.50
   0  -4 -14   93.19    9.90
   0  -4 -14   89.09    8.30
   0   4  14   90.99   10.00
   2  -3 -13   32.30    6.30
   2  -3 -13   40.00    5.50
   2  -3 -13   56.99    6.40
  -2   3  13   46.20    7.50
   4  -2 -12   -4.50    3.90
   4  -2 -12   -1.20    3.30
  -4   2  12   -0.30    4.80
  -4   2  12    3.60    3.40
   6  -1 -11   22.80    6.50
   6  -1 -11   32.70    6.20
  -6   1  11   53.19    6.60
  -6   1  11   36.40    7.50
   8   0 -10    6.10    5.90
  -8   0  10   29.50    7.60
  -8   0  10   20.70    6.10
 -10  -1   9   -3.60    5.90
 -10  -1   9    7.80    7.10
  -9  -8 -19    7.30    4.50
   9   8  19    4.30    5.20
  -7  -7 -18    8.80    4.50
   7   7  18   22.90    5.90
  -5  -6 -17    3.30    4.20
   5   6  17    8.60    4.90
  -3  -5 -16   12.90    4.70
   3   5  16    6.20    5.10
  -1  -4 -15    2.70    2.30
  -1  -4 -15    3.20    2.30
  -1  -4 -15    1.30    3.80
   1   4  15   -2.00    4.60
   1  -3 -14   37.40    5.10
   1  -3 -14   31.00    6.40
   1  -3 -14   41.20    5.30
  -1   3  14   37.80    6.80
   3  -2 -13   14.80    3.90
   3  -2 -13   13.40    4.40
   3  -2 -13   16.00    4.70
  -3   2  13    7.60    5.70
   5  -1 -12    1.60    4.00
   5  -1 -12   -2.50    4.40
  -5   1  12    5.80    5.90
   7   0 -11   12.70    5.80
  -7   0  11   14.60    6.90
  -7   0  11   21.50    5.70
  -9  -1  10    0.60    6.60
  -8  -7 -19   17.40    5.00
   8   7  19   21.70    5.60
  -6  -6 -18    3.40    4.40
   6   6  18   11.10    4.90
  -4  -5 -17  168.38   17.40
   4   5  17  199.08   17.80
  -2  -4 -16  256.37   24.70
  -2  -4 -16  307.57   23.40
  -2  -4 -16  251.37   23.20
   2   4  16  273.17   24.90
   0  -3 -15   21.70    5.40
   0  -3 -15   33.10    4.40
   0  -3 -15   32.20    4.30
   0   3  15   28.20    6.20
   2  -2 -14   15.10    4.90
   2  -2 -14   18.90    4.00
   2  -2 -14   24.40    4.50
   4  -1 -13   43.70    7.10
   4  -1 -13   39.10    7.30
   4  -1 -13   37.30    6.20
  -4   1  13   36.60    7.80
   6   0 -12   -0.60    4.60
   6   0 -12   12.00    4.50
  -6   0  12   -2.80    4.30
  -6   0  12   13.00    6.60
  -8  -1  11   13.40    7.10
  -8  -1  11    5.60    5.50
 -10  -2  10    7.30    7.20
  -7  -6 -19    9.70    4.70
   7   6  19   13.60    5.80
  -5  -5 -18   -4.80    4.00
   5   5  18    5.30    4.60
  -3  -4 -17   45.20    4.50
  -3  -4 -17   41.10    4.30
  -3  -4 -17   37.60    6.60
   3   4  17   31.30    6.60
  -1  -3 -16    5.20    3.10
  -1  -3 -16    3.60    2.50
  -1  -3 -16   -2.50    4.00
   1   3  16    0.40    4.70
   1  -2 -15   22.40    3.90
   1  -2 -15   15.00    5.10
   1  -2 -15   16.00    3.90
   3  -1 -14  130.59   11.70
   3  -1 -14  111.69   11.30
  -3   1  14  103.89   12.80
   5   0 -13   52.59    8.90
   5   0 -13   78.09    9.80
   5   0 -13   65.69   10.40
  -5   0  13   60.69    9.90
   7   1 -12   59.29    9.50
  -7  -1  12   34.00    8.90
   9   2 -11   43.60   10.10
  -9  -2  11   29.60    9.30
  -9  -2  11   39.80    8.50
  -8  -6 -20   -2.00    3.90
   8   6  20   -0.60    5.10
  -6  -5 -19   64.09    9.20
   6   5  19   81.59   10.00
  -4  -4 -18    6.70    2.50
  -4  -4 -18    2.90    4.60
  -4  -4 -18    8.10    2.40
   4   4  18    6.30    5.10
  -2  -3 -17   10.70    2.90
  -2  -3 -17    3.70    4.60
   2   3  17    4.10    5.40
   0  -2 -16   41.70    7.50
   0  -2 -16   54.69    6.10
   2  -1 -15   15.10    4.20
   2  -1 -15   16.10    4.10
  -2   1  15   13.00    6.40
   4   0 -14   37.40    6.30
   4   0 -14   24.50    5.40
  -4   0  14   37.40    8.10
   6   1 -13    8.30    5.50
  -6  -1  13    7.10    6.40
   8   2 -12    5.70    6.70
  -8  -2  12   14.50    8.20
  -7  -5 -20    1.50    4.60
   7   5  20   11.40    5.50
  -5  -4 -19   27.60    6.10
  -5  -4 -19   26.70    4.00
   5   4  19   22.10    6.80
  -3  -3 -18   37.80    4.80
  -3  -3 -18   28.80    6.50
   3   3  18   44.00    8.00
  -1  -2 -17   84.29   10.30
  -1  -2 -17   92.99    8.80
  -1  -2 -17   87.59    8.60
   1  -1 -16   11.40    3.80
   1  -1 -16   10.10    3.70
  -1   1  16    1.70    5.80
   3   0 -15   -1.30    3.60
   3   0 -15   -2.40    3.60
  -3   0  15    7.00    5.80
   5   1 -14  116.59   15.50
   5   1 -14  151.58   14.30
   5   1 -14  128.69   13.50
  -5  -1  14  146.39   15.30
   7   2 -13   11.10    6.60
  -7  -2  13    8.80    7.40
   9   3 -12    4.40    7.30
  -9  -3  12    9.20    7.70
  -8  -5 -21    9.00    4.30
   8   5  21   10.50    5.10
   8   5  21   16.10    4.10
  -6  -4 -20   14.00    5.50
  -6  -4 -20   14.40    3.40
   6   4  20   15.30    6.00
  -4  -3 -19   -2.90    4.40
  -4  -3 -19   11.80    3.70
   4   3  19    8.30    5.50
  -2  -2 -18   47.00    5.90
  -2  -2 -18   39.60    7.40
  -2  -2 -18   49.30    5.60
   0  -1 -17   59.19    7.10
   0  -1 -17   70.59    7.60
   0   1  17   62.49   10.10
   2   0 -16   64.79    9.90
   2   0 -16   87.49    8.60
   2   0 -16   77.39    8.60
  -2   0  16   79.39   11.10
   4   1 -15   19.20    5.40
  -4  -1  15   14.90    7.20
   6   2 -14    7.30    5.70
  -6  -2  14    2.30    7.10
  -8  -3  13    6.40    7.10
  -7  -4 -21    8.90    5.10
   7   4  21   10.70    5.50
   7   4  21   12.30    4.50
  -5  -3 -20    5.20    3.50
  -5  -3 -20    2.70    4.90
   5   3  20    9.10    3.80
   5   3  20   16.40    5.50
  -3  -2 -19    1.70    3.30
  -3  -2 -19   -5.30    4.60
   3   2  19   -7.90    6.90
  -1  -1 -18   30.20    5.00
  -1  -1 -18   34.50    5.20
   1   1  18   34.20    7.30
   1   0 -17   57.09    6.90
   1   0 -17   50.09    8.30
   1   0 -17   48.20    6.90
  -1   0  17   62.79    9.50
   3   1 -16    2.20    4.10
  -3  -1  16    2.70    6.10
   5   2 -15   10.50    5.60
  -5  -2  15    3.30    6.40
   7   3 -14   11.30    6.70
  -7  -3  14    5.50    7.00
   9   4 -13    0.20    7.20
  -9  -4  13   11.80    7.90
  -6  -3 -21    3.80    5.10
  -6  -3 -21    9.60    4.10
   6   3  21    6.20    5.20
  -4  -2 -20   57.59    6.80
  -4  -2 -20   47.20    8.10
  -2  -1 -19   44.10    5.90
  -2  -1 -19   42.90    6.00
   2   1  19   36.00    7.90
   0   0 -18   70.49    7.90
   0   0 -18   59.79    9.80
   0   0 -18   71.49    7.90
   0   0  18   75.79   11.00
   2   1 -17   71.79    8.60
   2   1 -17   77.09    9.20
  -2  -1  17   77.49   11.60
   4   2 -16   22.40    5.60
   4   2 -16   27.30    6.60
  -4  -2  16   32.70    8.00
   6   3 -15   -1.90    5.90
  -6  -3  15   10.60    7.20
   8   4 -14    2.30    6.80
  -8  -4  14   10.10    7.50
  -7  -3 -22    3.80    4.90
  -7  -3 -22    5.50    4.10
   7   3  22    3.30    4.80
   7   3  22    6.10    5.40
  -5  -2 -21   22.90    4.70
  -5  -2 -21   15.90    6.20
   5   2  21   17.60    5.00
  -3  -1 -20    3.00    3.60
   3   1  20    1.70    5.50
  -1   0 -19   11.80    4.20
  -1   0 -19    8.80    5.50
  -1   0 -19   18.90    4.70
   1   0  19   13.00    6.60
   1   1 -18   48.00    7.20
   1   1 -18   54.69    7.40
  -1  -1  18   44.40    9.00
   3   2 -17    7.40    4.70
   3   2 -17   20.90    5.50
  -3  -2  17   21.70    7.50
   5   3 -16   45.00    8.10
  -5  -3  16   44.20    9.80
  -7  -4  15   34.20   11.00
  -6  -2 -22    9.00    4.70
  -6  -2 -22    3.60    5.50
   6   2  22   12.20    7.30
  -4  -1 -21    5.00    4.00
   4   1  21   11.20    6.00
   4   1  21    6.80    4.70
  -2   0 -20   10.40    5.30
  -2   0 -20   12.90    4.60
   2   0  20   11.90    6.50
   0   1 -19    6.00    4.50
   0   1 -19    6.70    4.70
   0  -1  19   20.00    7.10
   2   2 -18    2.20    4.40
   2   2 -18   -0.30    4.40
  -2  -2  18   -2.60    6.50
   4   3 -17    8.30    5.20
  -4  -3  17    2.50    6.80
   6   4 -16   -2.60    5.20
   8   5 -15   -2.10    6.80
  -8  -5  15   12.90    8.70
  -5  -1 -22   13.60    5.00
   5   1  22   18.90    5.80
   5   1  22   18.10    6.70
  -3   0 -21   20.50    6.20
  -3   0 -21   13.80    5.10
   3   0  21   30.00    7.70
   3   0  21   22.00    6.00
  -1   1 -20   19.80    5.30
  -1   1 -20   13.20    5.50
   1  -1  20   14.60    7.30
   1   2 -19    2.50    4.40
   1   2 -19    3.90    4.70
  -1  -2  19   -0.80    6.60
   3   3 -18   39.80    7.00
  -3  -3  18   25.70    8.70
   5   4 -17    8.90    5.70
   7   5 -16    4.10    6.90
  -7  -5  16   15.90    8.50
  -4   0 -22    5.30    5.10
  -4   0 -22    0.70    5.50
   4   0  22   -0.80    4.90
   4   0  22   -3.10    5.70
  -2   1 -21   22.10    5.40
   2  -1  21    5.20    5.50
   2  -1  21    9.40    7.00
   0   2 -20   21.50    5.50
   0   2 -20   21.50    5.90
   0  -2  20   29.90    8.00
   2   3 -19   45.10    7.80
  -2  -3  19   39.00    9.30
   4   4 -18   39.60    8.00
   6   5 -17    6.70    6.70
  -6  -5  17    5.00    8.40
  -5   0 -23    8.20    6.40
  -5   0 -23   15.50    5.60
   5   0  23   22.50    7.40
  -3   1 -22   12.10    5.30
   3  -1  22    8.70    6.40
   3  -1  22    8.40    6.20
  -1   2 -21   10.20    5.00
  -1   2 -21    6.50    5.70
   1  -2  21   23.10    7.90
   1   3 -20    2.20    4.90
  -1  -3  20   -0.70    6.50
   3   4 -19   -4.30    5.10
   5   5 -18   -4.40    6.90
  -5  -5  18    0.50    7.90
  -4   1 -23    8.90    5.40
   4  -1  23    8.20    7.30
   4  -1  23    3.20    6.20
  -2   2 -22   20.00    5.60
   2  -2  22   22.40    7.70
   2  -2  22   16.50    7.00
   0   3 -21   49.50    7.90
   0  -3  21   46.70   10.30
   2   4 -20   35.00    7.40
  -4  -5  19   44.60   11.10
  -3   2 -23    0.70    5.20
   3  -2  23    4.40    7.90
  -1   3 -22    7.30    5.30
   1  -3  22    3.40    7.70
   1   4 -21    2.90    5.70
  -1  -4  21   17.10    9.20
  -3  -5  20   -0.90    8.10
   0   4 -22    5.00    5.60
   0  -4  22    8.30    8.60
  -2  -5  21   11.20    8.90
  -1  15   3   53.79    8.90
   0  15   4    1.10    5.60
   0  15   4   10.90    4.60
  -2  14   3    2.60    4.60
  -2  14   3    0.10    7.00
  -1 -15  -5   40.00    7.70
   1  15   5   59.09    8.50
  -1  14   4    6.70    4.60
  -3  13   3   14.00    5.50
  -5  12   2   12.50    6.60
  -4 -16  -7   35.20    6.80
   4  16   7   26.20    5.30
   4  16   7   43.20   10.40
  -2 -15  -6   38.30    7.00
   2  15   6   45.70    7.20
   2  15   6   45.10    9.70
   0 -14  -5   20.80    5.60
   0  14   5   31.40    6.10
  -2  13   4   -0.10    5.90
  -2  13   4   -4.00    3.50
  -4  12   3    4.00    4.80
  -4  12   3   -0.10    5.00
   5  16   8    1.90    3.00
   5  16   8    3.80    5.50
  -3 -15  -7    2.50    4.10
   3  15   7    4.60    3.70
   3  15   7    7.20    5.50
  -1 -14  -6   -2.30    3.70
   1 -13  -5    6.90    4.10
  -1  13   5    7.90    5.60
  -1  13   5   14.40    4.20
  -3  12   4   12.00    4.80
  -3  12   4    9.90    6.20
  -5  11   3    3.80    5.70
  -5  11   3   15.40    6.50
  -4 -15  -8   70.79    8.80
   4  15   8   67.59    8.20
  -2 -14  -7   63.29    8.20
   2  14   7   54.99   10.30
   2  14   7   65.89    7.70
   0 -13  -6   15.80    4.60
   0  13   6   12.60    6.30
   2 -12  -5    8.40    4.10
  -2  12   5    7.90    4.30
  -2  12   5    5.30    5.00
  -4  11   4    1.50    4.60
  -4  11   4   -2.30    4.80
  -6  10   3    7.70    6.00
   5  15   9    3.20    2.70
  -3 -14  -8    4.80    3.70
   3  14   8    0.50    2.90
   3  14   8    1.70    5.20
  -1 -13  -7   53.09    7.20
   1  13   7   43.30    9.40
   1  13   7   57.19    7.10
   1 -12  -6   49.40    7.30
  -1  12   6   48.80    9.50
   3 -11  -5   73.69   10.30
  -3  11   5   98.99   11.30
  -3  11   5  107.09   13.00
  -5  10   4   45.70    8.30
  -5  10   4   58.49    9.80
  -7   9   3   26.00    7.10
  -7   9   3   12.30    6.50
   6  15  10   33.20    8.20
   6  15  10   29.60    4.40
  -4 -14  -9   15.20    4.00
   4  14   9   18.20    6.60
   4  14   9   14.70    3.50
  -2 -13  -8    5.80    3.40
   2  13   8    4.30    2.90
   2  13   8   -1.50    4.50
   0 -12  -7    6.90    3.70
   0  12   7   10.20    5.70
   0  12   7   22.60    4.30
   2 -11  -6   -1.60    3.40
  -2  11   6   -2.40    4.10
  -2  11   6   -0.50    3.40
  -4  10   5   -2.60    4.80
  -4  10   5    8.90    4.30
  -6   9   4    0.70    5.10
  -6   9   4   -1.50    4.30
  -8   8   3   -0.50    5.40
  -8   8   3    6.20    6.10
   7  15  11    9.10    5.60
   5  14  10    0.50    2.30
  -3 -13  -9    7.50    3.20
   3  13   9    5.60    5.30
   3  13   9    6.10    2.60
  -1 -12  -8   67.49    7.80
   1  12   8   92.49   11.60
   1  12   8   58.99    7.10
   1 -11  -7   17.80    4.30
  -1  11   7   18.00    5.70
  -1  11   7   16.50    4.10
   3 -10  -6   77.29   11.50
   3 -10  -6   68.49   10.80
  -3  10   6   75.39   11.10
  -3  10   6   82.59    9.90
   5  -9  -5   38.90    8.30
  -5   9   5   41.40    7.20
  -5   9   5   38.40    7.50
   7  -8  -4   11.80    7.30
  -7   8   4   -0.60    4.90
   6  14  11    5.80    5.50
   4  13  10   67.79    9.50
   4  13  10   39.70    4.60
  -2 -12  -9  104.99   10.50
   2  12   9  119.69   13.00
   2  12   9  113.19   10.50
   0 -11  -8   61.09    7.80
   0  11   8   86.39    9.90
   0  11   8   79.29    7.80
   2 -10  -7  153.88   15.90
   2 -10  -7  120.19   13.90
  -2  10   7  172.08   16.10
  -2  10   7  166.38   14.50
   4  -9  -6   21.30    7.00
   4  -9  -6   38.40    6.10
  -4   9   6   38.80    6.30
  -4   9   6   34.80    7.20
   6  -8  -5    6.70    5.40
  -6   8   5    9.60    5.50
  -6   8   5    7.10    4.70
   8  -7  -4    0.80    6.00
  -8   7   4   -6.30    5.50
  -8   7   4   -3.80    4.90
   7  14  12    3.80    6.90
   5  13  11   22.30    7.30
  -3 -12 -10   11.00    3.20
   3  12  10    9.90    5.50
   3  12  10   13.20    2.60
  -1 -11  -9    1.90    2.70
   1  11   9    7.70    4.60
   1  11   9    1.20    2.40
   1 -10  -8   11.10    5.00
   1 -10  -8   13.60    3.80
  -1  10   8   13.60    4.60
  -1  10   8   13.70    3.70
   3  -9  -7    9.30    4.10
   3  -9  -7   13.40    5.70
  -3   9   7   23.80    6.40
  -3   9   7   17.40    4.40
   5  -8  -6   25.60    6.70
   5  -8  -6   12.70    4.20
  -5   8   6   12.60    5.50
  -5   8   6   14.30    4.50
   7  -7  -5   18.60    6.70
  -7   7   5   16.50    6.20
  -7   7   5   24.60    6.40
  -9   6   4   33.90    8.50
   6  13  12   55.09   10.10
   4  12  11   72.89   10.70
  -2 -11 -10   67.79    7.00
   2  11  10   83.69    9.80
   0  10   9  117.39   12.40
   0  10   9  105.99   10.40
   2  -9  -8   49.00    8.30
   2  -9  -8   46.90    6.40
  -2   9   8   51.59    8.10
  -2   9   8   43.90    6.40
   4  -8  -7    6.50    5.20
   4  -8  -7    4.80    3.40
  -4   8   7    3.70    4.80
  -4   8   7    3.40    3.40
   6  -7  -6    1.60    4.80
  -6   7   6    0.30    4.90
  -6   7   6   -3.30    4.30
   8  -6  -5   -4.00    5.30
  -8   6   5   -2.80    5.40
   7  13  13    3.60    5.20
   5  12  12   67.49   10.50
  -3 -11 -11    4.00    4.00
   3  11  11    1.90    4.00
  -1 -10 -10   52.39    6.50
   1  10  10   75.59    9.60
   1  10  10   71.99    6.50
   1  -9  -9   16.70    3.40
   1  -9  -9    4.50    4.50
  -1   9   9    7.80    2.90
  -1   9   9   15.50    5.20
   3  -8  -8   10.20    3.70
   3  -8  -8    3.90    5.00
  -3   8   8   16.10    4.10
  -3   8   8    5.90    4.50
   5  -7  -7   88.29   10.60
   5  -7  -7  118.09   12.50
  -5   7   7  103.89   11.90
  -5   7   7  112.69   11.50
   7  -6  -6   44.00    8.90
  -7   6   6   49.80    8.20
  -7   6   6   37.30    7.90
   9  -5  -5   15.80    8.40
  -9   5   5   14.60    7.70
  -9   5   5   17.40    7.00
   8  13  14    6.30    5.30
   6  12  13   24.50    6.70
  -4 -11 -12    7.30    4.60
   4  11  12    1.50    4.30
  -2 -10 -11    5.60    4.10
  -2 -10 -11   13.80    2.30
   2  10  11   13.00    4.70
   2  10  11   10.20    2.10
   0  -9 -10   13.30    3.30
   0   9  10   17.10    5.30
   0   9  10   18.30    3.40
   2  -8  -9   13.80    4.00
  -2   8   9   18.70    4.20
  -2   8   9   18.30    5.30
   4  -7  -8   48.90    6.90
   4  -7  -8   40.40    8.40
  -4   7   8   47.30    7.10
  -4   7   8   53.29    8.00
   6  -6  -7    4.20    4.60
  -6   6   7   -0.70    4.90
  -6   6   7    0.70    3.90
   8  -5  -6    1.90    5.10
  -8   5   6    0.80    5.60
  -8   5   6   -5.30    5.70
   7  12  14   87.39   10.80
  -5 -11 -13   32.20    7.40
   5  11  13   67.29    8.90
  -3 -10 -12   11.70    5.00
   3  10  12   15.50    5.40
  -1  -9 -11   50.09    5.00
   1   9  11   50.49   10.60
   1   9  11   37.60    4.50
   1  -8 -10   44.80    6.50
   1  -8 -10   41.90    9.10
  -1   8  10   59.79    8.30
  -1   8  10   48.60    5.60
   3  -7  -9    9.60    3.60
  -3   7   9   17.70    4.20
  -3   7   9   14.60    5.20
   5  -6  -8    1.40    4.40
   5  -6  -8   -1.30    4.30
  -5   6   8    1.30    4.90
  -5   6   8    2.30    3.70
   7  -5  -7   46.30    8.50
  -7   5   7   62.39    8.90
  -7   5   7   32.60    7.80
   9  -4  -6    2.50    6.40
  -9   4   6    9.30    6.40
  -9   4   6    4.40    6.40
  -6 -11 -14    3.00    4.50
   6  11  14    1.80    4.40
  -4 -10 -13   44.10    7.70
   4  10  13   52.39    8.40
   2   9  12   18.20    5.70
   0  -8 -11  161.58   16.20
   0  -8 -11  153.38   14.50
   0   8  11  166.28   16.20
   0   8  11  176.48   14.70
   2  -7 -10   64.49    7.80
   2  -7 -10   72.29    9.40
  -2   7  10   87.29    9.50
  -2   7  10   86.29    8.00
   4  -6  -9   75.99    8.30
  -4   6   9   79.09    9.60
  -4   6   9   73.49    8.40
   6  -5  -8   23.10    6.40
   6  -5  -8   17.10    5.00
  -6   5   8   14.10    5.80
  -6   5   8   30.70    6.30
   8  -4  -7    8.40    5.30
  -8   4   7   -0.10    6.00
  -8   4   7    0.80    4.70
 -10   3   6    6.60    6.60
   7  11  15   52.39    9.30
  -5 -10 -14   44.30    8.20
   5  10  14   81.39   10.00
   3   9  13    4.00    4.50
  -1  -8 -12    0.90    4.20
  -1  -8 -12    9.70    2.30
   1   8  12    4.70    4.40
   1   8  12   13.10    2.30
   1  -7 -11   16.90    4.80
   1  -7 -11   23.30    3.90
  -1   7  11   27.80    6.20
  -1   7  11   25.40    4.20
   3  -6 -10    2.30    3.90
   3  -6 -10    3.30    3.20
  -3   6  10    7.60    4.60
  -3   6  10    6.30    3.40
   5  -5  -9    3.20    3.60
  -5   5   9    0.20    4.70
   7  -4  -8   16.50    6.00
  -7   4   8   16.80    5.40
  -7   4   8   12.80    6.20
   9  -3  -7    1.40    5.90
  -9   3   7    5.40    5.80
  -9   3   7    9.70    6.00
  -8 -11 -16    2.80    4.50
  -6 -10 -15   10.60    4.60
   6  10  15   16.30    5.70
  -4  -9 -14   -0.80    4.70
   4   9  14   -2.20    4.30
  -2  -8 -13  271.57   27.60
   2   8  13  346.47   28.30
   0  -7 -12  163.88   14.50
   0  -7 -12  165.68   16.20
   0   7  12  166.98   14.60
   2  -6 -11   98.79   11.60
   2  -6 -11   97.89   10.20
  -2   6  11  118.59   10.30
  -2   6  11  128.29   13.30
   4  -5 -10  181.68   17.60
   4  -5 -10  179.78   19.30
  -4   5  10  205.28   17.90
  -4   5  10  204.18   18.70
   6  -4  -9    8.60    4.20
   6  -4  -9    8.30    4.80
  -6   4   9    4.90    4.10
  -6   4   9   14.80    5.70
   8  -3  -8    2.10    5.10
  -8   3   8    7.80    5.40
  -8   3   8    5.00    6.10
 -10   2   7    2.50    6.10
 -10   2   7    6.80    6.50
  -9 -11 -17    9.60    5.80
   9  11  17   15.70    6.10
  -7 -10 -16    4.70    4.80
   7  10  16    8.10    5.00
  -5  -9 -15   12.10    5.80
   5   9  15   17.90    5.30
  -3  -8 -14   44.20    7.90
   3   8  14   67.89    9.60
  -1  -7 -13   21.70    2.90
  -1  -7 -13   20.40    5.20
   1  -6 -12   32.10    4.50
   1  -6 -12   20.30    5.50
  -1   6  12   38.00    4.50
   3  -5 -11   40.20    6.60
   3  -5 -11   38.90    5.60
  -3   5  11   42.90    7.20
  -3   5  11   41.60    5.70
   5  -4 -10   35.80    5.80
   5  -4 -10   27.90    7.60
  -5   4  10   40.90    7.20
   7  -3  -9   -3.90    4.40
  -7   3   9    5.10    4.80
  -7   3   9    2.00    5.70
  -9   2   8   48.50    9.20
  -8 -10 -17    0.50    4.60
   8  10  17    2.50    5.40
  -6  -9 -16   23.00    6.90
   6   9  16   43.10    7.00
  -4  -8 -15    0.10    4.20
   4   8  15    5.90    5.50
  -2  -7 -14   20.40    5.30
   0  -6 -13   52.89    8.10
   0  -6 -13   64.89    6.20
   0   6  13   64.09   10.50
   2  -5 -12   49.10    5.60
   2  -5 -12   24.60    6.00
  -2   5  12   53.19    9.80
  -2   5  12   41.60    5.10
   4  -4 -11   -1.70    4.50
   4  -4 -11    1.70    3.90
  -4   4  11    5.70    3.60
  -4   4  11   -0.40    4.80
   6  -3 -10    3.80    4.80
   6  -3 -10    4.10    4.10
  -6   3  10    4.00    5.50
  -6   3  10    8.40    4.40
   8  -2  -9   12.00    5.90
  -8   2   9   13.40    6.60
  -8   2   9   20.30    6.30
 -10   1   8    1.80    5.60
 -10   1   8   -0.70    6.90
   9  10  18   24.80    7.60
  -7  -9 -17   25.20    6.60
   7   9  17   49.20    7.40
  -5  -8 -16   13.70    4.90
  -3  -7 -15   77.49    9.20
   3   7  15   61.59   10.10
  -1  -6 -14   76.09    6.50
  -1  -6 -14   73.99    8.80
  -1  -6 -14   65.79    6.50
   1   6  14   68.59    9.80
   1  -5 -13   -2.10    3.30
   1  -5 -13    2.90    2.70
   3  -4 -12   -0.50    3.00
   3  -4 -12    5.30    4.40
  -3   4  12    2.70    4.90
  -3   4  12   10.30    3.40
   5  -3 -11    8.60    3.90
   5  -3 -11    4.80    4.50
  -5   3  11    7.00    5.40
   7  -2 -10   24.10    6.70
  -7   2  10   43.00    7.20
  -7   2  10   49.30    8.30
  -9   1   9    6.80    6.80
  -8  -9 -18    7.80    4.90
   8   9  18    0.60    5.80
  -6  -8 -17   45.20    7.50
  -4  -7 -16   18.70    5.20
   4   7  16   22.80    7.00
  -2  -6 -15   68.59    9.00
   2   6  15   85.99   10.50
   0  -5 -14  268.97   21.40
   0  -5 -14  237.08   22.60
   0  -5 -14  231.18   21.60
   2  -4 -13  172.98   15.60
   2  -4 -13  167.98   16.70
  -2   4  13  178.48   15.50
  -2   4  13  167.38   17.20
   4  -3 -12  131.89   14.00
   4  -3 -12  142.49   15.70
  -4   3  12  152.48   15.10
  -4   3  12  159.88   14.10
   6  -2 -11  163.28   15.70
   6  -2 -11  146.29   16.00
  -6   2  11  155.38   16.70
  -6   2  11  179.38   15.70
  -8   1  10   52.59    9.50
  -8   1  10   57.59    8.90
 -10   0   9    2.20    6.90
 -10   0   9   15.20    7.10
  -7  -8 -18   18.50    5.50
  -5  -7 -17   82.69   10.50
   5   7  17  102.39   12.30
  -3  -6 -16    0.20    4.00
   3   6  16   -4.20    4.50
  -1  -5 -15  103.09   11.60
  -1  -5 -15  100.79    9.70
  -1  -5 -15  115.39    9.80
   1   5  15  135.09   13.20
   1  -4 -14    6.00    4.00
   1  -4 -14   17.80    3.40
   1  -4 -14   10.70    3.10
  -1   4  14   37.20    7.90
   3  -3 -13   -2.90    3.10
  -3   3  13    7.60    3.60
  -3   3  13   -0.40    4.80
   5  -2 -12   29.10    6.60
   5  -2 -12   20.30    5.40
  -5   2  12   26.40    6.00
  -5   2  12   40.90    8.00
   7  -1 -11    7.90    5.90
  -7   1  11   15.30    5.60
  -7   1  11    9.80    6.70
  -9   0  10   -8.50    5.40
  -9   0  10    5.80    6.80
  -8  -8 -19    5.30    4.40
   8   8  19    4.30    6.10
  -6  -7 -18   -2.90    3.90
   6   7  18   -2.20    5.20
  -4  -6 -17   48.40    7.40
   4   6  17   42.80    8.00
  -2  -5 -16    5.60    4.20
   2   5  16   12.80    5.80
   0  -4 -15   59.19    6.10
   0  -4 -15   58.39    6.10
   0  -4 -15   55.59    8.40
   2  -3 -14   26.80    4.40
   2  -3 -14   15.70    5.40
   2  -3 -14   24.30    4.80
  -2   3  14   27.20    6.40
   4  -2 -13   40.10    7.30
   4  -2 -13   33.10    6.20
  -4   2  13   49.50    6.30
  -4   2  13   37.20    7.80
   6  -1 -12    8.10    4.60
   6  -1 -12   11.60    5.80
  -6   1  12    9.30    5.30
  -6   1  12   14.50    6.80
  -8   0  11   -0.90    6.60
  -8   0  11   -1.90    5.20
 -10  -1  10    8.60    7.60
  -7  -7 -19   -0.30    4.10
   7   7  19    1.00    5.10
  -5  -6 -18    8.30    4.70
   5   6  18    5.70    5.50
  -3  -5 -17  100.39   11.50
   3   5  17  118.29   14.00
  -1  -4 -16   55.29    5.40
  -1  -4 -16   47.80    5.30
  -1  -4 -16   42.40    7.30
   1  -3 -15    7.60    4.40
   1  -3 -15    2.00    3.80
   1  -3 -15    6.50    3.30
  -1   3  15   14.10    5.40
   3  -2 -14   52.59    7.30
   3  -2 -14   62.79    7.90
  -3   2  14   59.09    9.30
   5  -1 -13   -0.40    4.90
   5  -1 -13    0.70    4.90
  -5   1  13   10.40    4.70
  -5   1  13   -3.50    5.70
  -7   0  12   12.90    6.00
  -7   0  12   14.50    6.90
  -9  -1  11    2.70    7.00
  -9  -1  11   10.10    6.20
  -8  -7 -20   -0.10    4.10
   8   7  20   -1.90    5.60
  -6  -6 -19    5.80    4.80
   6   6  19    5.90    4.80
  -4  -5 -18   22.60    5.70
   4   5  18   35.20    7.10
  -2  -4 -17   45.10    6.90
  -2  -4 -17   34.40    4.10
  -2  -4 -17   30.60    4.00
   0  -3 -16    0.80    3.10
   0  -3 -16    1.50    2.70
   0  -3 -16    4.40    4.50
   0   3  16    4.40    5.40
   2  -2 -15    2.10    4.60
   2  -2 -15    4.40    3.40
   2  -2 -15    4.30    3.50
  -2   2  15    0.30    5.00
   4  -1 -14    6.80    4.90
   4  -1 -14   14.80    4.80
  -4   1  14   14.00    6.30
   6   0 -13    6.30    6.00
  -6   0  13   20.50    7.20
  -8  -1  12    9.80    7.00
  -8  -1  12    1.60    5.80
  -7  -6 -20   28.20    6.20
   7   6  20   33.90    7.40
  -5  -5 -19   59.49    9.10
   5   5  19   78.29   10.40
  -3  -4 -18   79.19    6.90
  -3  -4 -18   70.49    7.00
  -3  -4 -18   57.49    9.20
  -1  -3 -17  146.49   12.30
  -1  -3 -17  124.19   13.70
  -1  -3 -17  126.29   12.20
   1   3  17  139.39   14.60
   1  -2 -16   91.99   12.00
   1  -2 -16  107.29   10.70
   1  -2 -16  115.29   10.80
  -1   2  16  137.99   13.20
   3  -1 -15   11.70    4.80
   3  -1 -15   16.60    4.10
  -3   1  15   17.50    6.50
   5   0 -14    0.70    4.30
   5   0 -14    9.00    5.60
  -5   0  14   -2.80    6.30
   7   1 -13   11.00    6.90
  -7  -1  13   16.70    7.50
   9   2 -12    1.70    7.10
  -9  -2  12    7.60    7.80
  -8  -6 -21    5.20    4.30
   8   6  21    8.00    5.80
  -6  -5 -20   -2.20    4.30
   6   5  20    7.50    5.40
  -4  -4 -19   24.80    3.50
  -4  -4 -19   20.90    6.00
  -4  -4 -19   26.10    3.60
  -2  -3 -18    6.00    2.80
  -2  -3 -18    8.40    3.00
  -2  -3 -18    2.40    5.00
   2   3  18    3.80    5.60
   0  -2 -17   81.89    9.00
   0  -2 -17   91.69    9.00
   0  -2 -17   94.79   11.20
   0   2  17   97.59   11.60
   2  -1 -16   14.70    4.20
   2  -1 -16    3.80    3.80
   2  -1 -16    7.20    5.00
  -2   1  16    8.70    6.30
   4   0 -15   59.59    8.30
   4   0 -15   73.99    9.60
  -4   0  15   63.49   10.20
   6   1 -14  164.28   16.10
  -6  -1  14  136.19   16.30
  -8  -2  13    7.80    8.10
  -7  -5 -21   -2.50    4.70
   7   5  21    8.30    5.90
  -5  -4 -20   19.60    3.60
  -5  -4 -20    8.50    5.50
  -5  -4 -20   19.50    3.30
  -3  -3 -19   67.39    6.80
  -3  -3 -19   59.39    9.30
  -3  -3 -19   62.49    7.40
   3   3  19   76.79   10.40
  -1  -2 -18    0.10    3.30
  -1  -2 -18    6.90    3.30
  -1  -2 -18    0.00    4.80
   1   2  18   -3.80    5.60
   1  -1 -17   11.60    4.00
   1  -1 -17    1.50    4.80
   1  -1 -17    6.20    3.90
  -1   1  17    2.30    6.00
   3   0 -16   -1.60    3.90
   3   0 -16    3.00    3.90
  -3   0  16    9.20    6.00
   5   1 -15   -4.30    3.60
   5   1 -15    2.40    5.20
  -5  -1  15    4.90    7.00
   7   2 -14   -3.60    5.70
  -7  -2  14    3.60    7.00
   9   3 -13   14.50    8.80
  -9  -3  13   20.30    8.10
  -6  -4 -21   12.80    5.80
  -6  -4 -21   10.00    3.40
  -4  -3 -20   -6.70    4.80
  -4  -3 -20    2.70    3.30
  -4  -3 -20    6.50    3.20
   4   3  20   -7.10    5.30
  -2  -2 -19   22.40    6.70
  -2  -2 -19   30.30    4.70
  -2  -2 -19   34.80    5.60
   2   2  19   19.50    7.40
   0  -1 -18   61.79    8.90
   0  -1 -18   41.20    6.40
   0   1  18   56.69    9.20
   2   0 -17   70.79    8.70
   2   0 -17   77.09    8.60
  -2   0  17   85.39   12.10
   4   1 -16   29.40    6.40
   4   1 -16   21.70    5.50
  -4  -1  16   20.60    7.80
   6   2 -15   17.70    7.00
  -6  -2  15   15.80    7.70
   8   3 -14   44.50   10.00
  -8  -3  14   33.10   10.10
  -7  -4 -22    5.90    5.10
   7   4  22    8.20    6.00
  -5  -3 -21   11.80    5.80
  -5  -3 -21   17.70    4.00
   5   3  21   11.30    6.20
  -3  -2 -20    8.70    5.50
  -3  -2 -20   16.70    4.30
  -3  -2 -20    6.40    3.90
   3   2  20    1.50    5.80
  -1  -1 -19   30.60    5.30
  -1  -1 -19   29.40    4.90
  -1  -1 -19   20.00    6.30
   1   1  19   20.00    7.00
   1   0 -18   70.99    8.90
   1   0 -18   78.79    9.20
  -1   0  18   72.89   11.20
   3   1 -17   39.50    6.90
  -3  -1  17   43.60    8.90
   5   2 -16   29.20    6.90
  -5  -2  16   27.10    8.50
   7   3 -15    4.20    6.60
  -6  -3 -22   24.30    5.10
  -6  -3 -22   18.70    6.10
   6   3  22   28.70    7.60
  -4  -2 -21   -3.60    5.30
  -4  -2 -21    3.90    3.80
   4   2  21   -3.00    5.40
  -2  -1 -20   -6.90    3.60
  -2  -1 -20   -3.00    4.90
  -2  -1 -20    1.80    3.70
   2   1  20    2.20    5.90
   0   0 -19   15.00    4.30
   0   0 -19   11.70    4.60
   0   0  19   -0.30    6.00
   2   1 -18   29.90    6.10
   2   1 -18   27.70    6.10
  -2  -1  18   48.10    8.90
   4   2 -17   21.50    6.10
  -4  -2  17   28.00    8.80
   6   3 -16    1.50    5.90
   8   4 -15   -2.70    6.30
  -8  -4  15    8.80    7.90
  -5  -2 -22   16.30    4.50
  -5  -2 -22   13.10    7.00
   5   2  22   16.60    6.60
   5   2  22   21.20    5.50
  -3  -1 -21    8.80    5.80
  -3  -1 -21   13.10    4.60
  -3  -1 -21   14.90    5.00
   3   1  21   22.60    6.90
  -1   0 -20   78.29    9.20
  -1   0 -20   73.49    8.40
   1   0  20   72.89   11.20
   1   1 -19   90.59   10.70
   1   1 -19   79.39    9.50
  -1  -1  19   87.29   12.90
   3   2 -18   26.30    6.00
   3   2 -18    4.70    4.50
  -3  -2  18   21.70    8.60
   5   3 -17   18.60    6.80
  -5  -3  17   19.00    8.70
   7   4 -16   13.40    7.40
  -7  -4  16   27.20    9.20
  -4  -1 -22    8.90    5.80
  -4  -1 -22    7.60    4.50
   4   1  22    3.80    6.20
   4   1  22    4.60    5.00
  -2   0 -21    4.60    4.60
  -2   0 -21    0.50    4.00
   2   0  21   15.00    7.30
   0   1 -20   -2.00    4.00
   0   1 -20    0.60    4.60
   0  -1  20    0.00    6.40
   2   2 -19   11.80    5.30
   2   2 -19   16.70    5.60
  -2  -2  19   12.80    7.80
   4   3 -18   15.90    5.80
  -4  -3  18    5.00    7.40
  -6  -4  17   12.50    8.10
  -5  -1 -23    5.80    4.80
  -5  -1 -23   -2.10    5.90
   5   1  23    7.50    6.20
   5   1  23   12.70    6.80
  -3   0 -22    5.30    4.70
   3   0  22   13.00    7.10
  -1   1 -21    8.00    4.80
   1  -1  21   13.10    7.50
   1   2 -20    0.70    4.50
   1   2 -20    9.50    5.30
  -1  -2  20   11.20    7.50
   3   3 -19   -3.30    4.70
  -3  -3  19    0.80    7.00
   5   4 -18   -1.20    5.70
  -5  -4  18    3.30    7.10
  -4   0 -23   13.90    5.40
   4   0  23    8.20    7.10
  -2   1 -22   17.00    6.20
  -2   1 -22   11.80    5.20
   2  -1  22    9.00    7.30
   0   2 -21   -3.90    5.00
   0   2 -21    1.50    4.90
   0  -2  21   16.70    7.60
   2   3 -20    2.40    5.20
  -2  -3  20    6.10    8.00
   4   4 -19   14.60    6.60
  -4  -4  19    0.90    7.30
   6   5 -18   12.50    7.20
  -3   1 -23   -1.30    4.90
   3  -1  23    8.10    7.20
   3  -1  23    7.80    6.70
  -1   2 -22    6.20    5.20
   1  -2  22    8.40    7.40
   1   3 -21   21.50    6.40
   3   4 -20   18.50    6.60
  -3  -4  20   12.10    7.70
   5   5 -19   37.90    9.30
  -2   2 -23    5.30    5.20
   2  -2  23   -2.10    7.10
   0   3 -22   -0.90    5.20
   2   4 -21    8.00    5.90
  -2  -4  21    8.50    7.90
   4   5 -20    3.40    6.90
   1   4 -22   41.20    8.50
  -1  -4  22   55.79   12.00
  -2 -16  -6   45.40    8.10
   0  15   5   39.20    7.40
  -2  14   4   40.00    7.40
  -3 -16  -7   -1.80    4.80
  -1 -15  -6    7.70    4.90
   1  15   6    3.20    3.90
  -1  14   5    9.10    5.00
  -3  13   4    0.70    4.30
  -4 -16  -8    6.10    5.10
  -2 -15  -7    7.90    4.50
   2  15   7   12.20    4.20
   2  15   7    4.80    5.50
   0 -14  -6   48.60    7.50
   0  14   6   44.40    7.50
  -2  13   5   45.10    8.00
  -2  13   5   52.49   10.50
  -4  12   4    3.80    5.70
  -4  12   4    6.90    5.10
   5  16   9   15.80    4.20
  -3 -15  -8   35.70    6.40
   3  15   8   34.60    5.70
  -1 -14  -7   60.09    8.10
   1  14   7   64.89    8.00
   1 -13  -6    4.20    4.00
  -1  13   6    0.80    5.30
  -1  13   6   10.50    4.10
  -3  12   5    9.70    5.00
  -3  12   5    8.80    6.00
  -5  11   4    3.20    6.00
  -5  11   4    3.20    4.80
  -4 -15  -9    7.80    4.20
   4  15   9    6.80    5.50
   4  15   9    9.10    3.30
  -2 -14  -8   -1.00    3.70
   2  14   8    4.00    2.90
   2  14   8    7.80    5.80
   0 -13  -7    5.10    3.80
   0  13   7    1.30    3.10
   0  13   7    1.30    5.40
   2 -12  -6    3.80    3.90
  -2  12   6    6.40    3.80
  -2  12   6    4.40    4.80
  -4  11   5    1.50    4.60
  -4  11   5    1.00    5.10
  -6  10   4    6.90    6.40
   5  15  10   55.09    6.40
  -3 -14  -9   79.39    8.80
   3  14   9   97.19   13.10
   3  14   9   80.99    8.60
  -1 -13  -8   72.09    8.50
   1  13   8  100.79   12.60
   1  13   8   62.39    7.70
   1 -12  -7   23.50    5.10
  -1  12   7   20.70    4.70
  -1  12   7   23.70    6.50
   3 -11  -6   10.80    4.60
  -3  11   6   21.60    6.60
  -3  11   6   10.60    4.60
  -5  10   5    3.20    5.20
  -5  10   5    8.40    4.80
  -7   9   4   -2.50    4.80
  -7   9   4   -0.40    5.60
   4  14  10    9.10    3.00
  -2 -13  -9   -1.20    3.00
   2  13   9    1.50    5.50
   2  13   9    0.50    2.60
   0 -12  -8   13.40    4.00
   0  12   8   17.40    4.00
   0  12   8   15.40    5.80
   2 -11  -7   32.10    5.90
  -2  11   7   41.50    7.90
  -4  10   6   86.49   11.70
  -4  10   6   91.79   10.30
  -6   9   5   32.30    7.40
  -6   9   5   44.00    8.00
  -3 -13 -10   18.50    4.00
   3  13  10   21.10    3.60
   3  13  10   16.30    6.50
  -1 -12  -9    1.20    3.00
   1  12   9    2.60    4.70
   1  12   9    3.80    2.70
   1 -11  -8   10.20    3.80
  -1  11   8   19.20    5.50
  -1  11   8   11.60    3.60
   3 -10  -7   11.10    4.70
  -3  10   7   11.30    6.20
  -3  10   7    2.20    3.70
  -5   9   6   -2.00    5.00
  -5   9   6    1.00    3.80
  -7   8   5    3.00    5.60
   6  14  12   18.90    7.90
   4  13  11    7.00    1.90
   4  13  11    6.40    6.00
  -2 -12 -10    9.40    3.10
   2  12  10    8.30    2.80
   2  12  10    7.20    5.40
   0 -11  -9   -1.20    3.10
   0  11   9    2.20    4.30
   0  11   9    0.80    2.80
   2 -10  -8   62.49    8.10
   2 -10  -8   63.99   11.70
  -2  10   8   87.49   10.70
  -2  10   8   64.59    8.30
   4  -9  -7   19.70    5.10
   4  -9  -7   26.40    8.30
  -4   9   7   28.60    5.60
  -4   9   7   39.20    7.00
  -6   8   6   18.90    6.20
  -6   8   6   27.40    6.50
  -8   7   5    1.60    5.80
  -8   7   5    4.40    6.00
   7  14  13   14.30    6.80
   5  13  12   30.00    7.20
   3  12  11   41.20    4.40
   3  12  11   45.60    8.90
  -1 -11 -10   72.89    8.60
   1  11  10  102.69   11.20
   1  11  10  103.59    8.80
   1 -10  -9   98.99   12.60
  -1  10   9  103.59   10.40
  -1  10   9  112.79   12.30
   3  -9  -8  114.89   13.20
   3  -9  -8   73.09    8.90
  -3   9   8   99.49   10.70
  -3   9   8   77.49    9.00
   5  -8  -7   54.99    9.40
  -5   8   7   32.30    7.80
  -5   8   7   60.59    8.20
  -7   7   6    4.20    5.30
  -7   7   6   10.20    5.40
   6  13  13   21.90    6.50
   4  12  12    2.30    4.50
  -2 -11 -11   51.39    5.40
   2  11  11   45.70    4.90
   2  11  11   44.70    7.90
   0 -10 -10   26.80    5.00
   0  10  10   26.10    4.20
   0  10  10   34.70    7.30
   2  -9  -9   35.20    7.30
   2  -9  -9   41.90    5.60
  -2   9   9   30.30    7.10
  -2   9   9   32.40    5.40
   4  -8  -8    3.70    4.10
   4  -8  -8    8.90    5.50
  -4   8   8    4.80    5.20
  -4   8   8   16.50    4.70
   6  -7  -7   23.10    7.20
  -6   7   7   25.80    6.10
  -6   7   7   36.80    7.60
  -8   6   6    3.70    6.10
   7  13  14    7.20    5.30
   5  12  13   69.49   10.30
   3  11  12  114.19   12.80
  -1 -10 -11  107.99   10.70
   1  10  11  145.79   13.60
   1  -9 -10   54.59    7.30
  -1   9  10   75.19    9.10
  -1   9  10   79.99    7.60
   3  -8  -9   18.20    5.90
   3  -8  -9   28.20    5.20
  -3   8   9   23.80    6.20
  -3   8   9   26.20    5.00
   5  -7  -8   20.30    5.90
   5  -7  -8   11.00    4.50
  -5   7   8   14.20    5.70
  -5   7   8   10.40    4.40
   7  -6  -7    4.90    5.40
  -7   6   7   -3.80    5.10
  -7   6   7    6.70    5.10
  -9   5   6   -3.70    6.80
  -9   5   6   -3.20    6.30
   8  13  15   -0.70    5.30
   4  11  13    4.00    4.60
  -2 -10 -12    3.80    4.40
   2  10  12    2.20    4.70
   0  -9 -11   10.90    3.00
   0   9  11    6.20    2.60
   0   9  11   10.80    5.00
   2  -8 -10   42.40    6.20
   2  -8 -10   40.60    7.80
  -2   8  10   50.29    8.10
  -2   8  10   51.49    6.40
   4  -7  -9   -1.70    3.20
   4  -7  -9    0.20    4.10
  -4   7   9    3.40    4.90
  -4   7   9    0.50    3.40
   6  -6  -8   22.60    6.70
  -6   6   8   32.80    6.60
  -6   6   8   37.70    7.30
  -8   5   7   70.49   10.90
  -8   5   7   56.99   10.20
   7  12  15   12.90    6.50
   5  11  14    3.50    5.30
  -3 -10 -13   30.50    6.90
   3  10  13   40.70    7.90
  -1  -9 -12   36.80    4.50
  -1  -9 -12   38.10    7.20
   1   9  12   49.00    7.90
   1   9  12   40.40    4.40
   1  -8 -11    9.80    4.40
  -1   8  11   11.30    4.70
  -1   8  11   11.70    3.20
   3  -7 -10   -2.90    3.70
   3  -7 -10    4.30    3.20
  -3   7  10    4.90    3.40
  -3   7  10    2.70    4.70
   5  -6  -9   13.70    5.20
  -5   6   9    8.80    5.80
  -5   6   9    9.60    4.60
   7  -5  -8   -0.90    4.80
  -7   5   8    2.40    5.90
  -7   5   8    8.80    5.40
  -9   4   7    9.30    6.80
  -9   4   7    5.40    5.90
   8  12  16   61.99   11.20
   6  11  15  107.29   14.60
  -4 -10 -14   27.20    6.20
   4  10  14   29.00    7.10
  -2  -9 -13   28.60    6.50
   2   9  13   35.30    6.90
   0  -8 -12   26.40    6.10
   0  -8 -12   32.50    4.40
   0   8  12   26.50    6.30
   0   8  12   43.20    4.90
   2  -7 -11   23.70    5.70
   2  -7 -11   23.40    4.30
  -2   7  11   28.60    4.50
  -2   7  11   24.00    5.90
   4  -6 -10   46.40    6.30
   4  -6 -10   32.20    7.00
  -4   6  10   39.40    7.80
  -4   6  10   46.80    6.70
   6  -5  -9    2.60    3.40
   6  -5  -9    3.90    4.60
  -6   5   9   -3.20    5.10
  -6   5   9    3.00    4.40
  -8   4   8   10.40    6.70
  -8   4   8   11.90    5.90
   7  11  16    6.30    6.70
  -5 -10 -15    1.10    4.00
   5  10  15   -2.60    4.40
  -3  -9 -14   -2.80    3.60
   3   9  14   -0.60    4.30
  -1  -8 -13   75.39   10.10
  -1  -8 -13   67.19    6.80
   1   8  13   93.89    9.70
   1  -7 -12   38.40    5.10
  -1   7  12   37.00    5.10
  -1   7  12   38.70    7.00
   3  -6 -11   82.69    9.10
   3  -6 -11   87.79   10.70
  -3   6  11  105.19   11.00
  -3   6  11   93.19    9.40
   5  -5 -10   32.90    5.70
   5  -5 -10   15.60    5.30
  -5   5  10   17.70    5.00
  -5   5  10   23.40    6.00
   7  -4  -9   12.90    5.70
  -7   4   9    9.20    5.10
  -7   4   9   -0.30    5.70
  -9   3   8    4.00    5.70
  -9   3   8    8.30    6.40
   8  11  17   27.70    6.90
  -6 -10 -16   21.90    6.50
   6  10  16   39.80    7.20
  -4  -9 -15   50.59    8.30
   4   9  15   46.90    7.70
  -2  -8 -14   24.90    7.70
   2   8  14   11.00    4.80
   0  -7 -13   -0.20    2.40
   0   7  13   -1.40    2.60
   0   7  13    2.60    5.20
   2  -6 -12    8.90    3.60
   2  -6 -12   14.20    5.30
  -2   6  12   17.40    5.70
  -2   6  12   24.90    4.10
   4  -5 -11   22.60    4.70
   4  -5 -11   20.00    5.50
  -4   5  11   28.60    6.80
  -4   5  11   28.70    5.20
   6  -4 -10   20.40    5.80
   6  -4 -10   16.20    5.10
  -6   4  10   23.00    5.50
  -6   4  10   22.00    6.70
  -8   3   9   -3.90    5.10
  -8   3   9  -11.40    5.70
  -7 -10 -17    2.90    4.40
   7  10  17    0.40    4.90
  -5  -9 -16   27.70    6.20
   5   9  16   25.00    6.40
   3   8  15    9.50    4.90
  -1  -7 -14   43.30    4.20
  -1  -7 -14   34.10    4.20
   1   7  14   55.89    8.10
   1  -6 -13  300.87   28.20
  -1   6  13  343.77   29.90
  -1   6  13  347.47   28.30
   3  -5 -12   69.49    9.60
   3  -5 -12   61.59    7.70
  -3   5  12   81.99   10.30
  -3   5  12   74.49    7.90
   5  -4 -11   22.20    5.10
   5  -4 -11   18.70    5.60
  -5   4  11   22.70    5.10
  -5   4  11   30.50    7.00
   7  -3 -10   33.60    7.90
  -7   3  10   44.70    7.80
  -7   3  10   39.60    8.60
  -9   2   9    6.50    6.70
  -9   2   9   -1.50    5.60
  -8 -10 -18    4.60    4.70
   8  10  18    2.70    5.50
  -6  -9 -17   11.50    4.80
   6   9  17    2.90    4.90
   4   8  16   45.90    7.80
  -2  -7 -15   54.49   11.00
   2   7  15   80.59   10.10
   0  -6 -14   36.30    4.20
   0  -6 -14   24.60    4.70
   0   6  14   22.20    6.30
   2  -5 -13    0.00    3.10
  -2   5  13    1.90    5.00
  -2   5  13    0.60    2.90
   4  -4 -12    9.90    4.00
   4  -4 -12   18.10    4.80
  -4   4  12   12.40    4.10
  -4   4  12   10.40    5.30
   6  -3 -11   35.30    6.60
   6  -3 -11   36.20    7.10
  -6   3  11   43.80    8.30
  -6   3  11   34.50    6.80
  -8   2  10   44.70    7.70
  -8   2  10   28.90    8.30
 -10   1   9   17.00    8.20
  -7  -9 -18    2.10    4.30
   7   9  18    3.30    5.70
   5   8  17   22.50    5.90
  -3  -7 -16  106.69   14.30
   3   7  16  155.88   14.20
  -1  -6 -15   12.50    5.30
  -1  -6 -15   -1.50    2.10
   1   6  15    4.80    5.40
   1  -5 -14   33.60    5.00
   1  -5 -14   40.50    5.60
  -1   5  14   34.40    7.30
   3  -4 -13   69.99    8.20
   3  -4 -13   70.09   10.00
  -3   4  13   83.79   10.80
  -3   4  13   82.39    8.30
   5  -3 -12    4.80    4.20
   5  -3 -12   -3.10    4.50
  -5   3  12   12.20    6.10
  -5   3  12    6.20    4.30
  -7   2  11   10.20    5.20
  -7   2  11    4.10    5.90
  -9   1  10    6.40    6.00
  -9   1  10    8.30    6.90
  -8  -9 -19    2.90    5.20
   8   9  19    9.50    6.00
   6   8  18   60.39    8.90
  -4  -7 -17   95.09   12.90
   4   7  17  124.09   12.40
  -2  -6 -16   40.10    7.60
   2   6  16   50.99    8.10
   0  -5 -15  105.99    9.90
   0   5  15  110.99   12.20
   2  -4 -14    5.40    3.60
   2  -4 -14   -0.70    3.10
  -2   4  14    6.50    5.50
   4  -3 -13    6.80    4.20
   4  -3 -13    4.60    4.70
  -4   3  13   11.90    6.00
  -4   3  13   16.30    4.40
   6  -2 -12    5.20    4.20
   6  -2 -12    7.30    6.20
  -6   2  12   17.80    6.40
  -6   2  12    9.60    5.20
  -8   1  11    7.00    5.60
  -8   1  11   12.50    6.90
  -7  -8 -19   -0.70    5.20
   7   8  19   -8.10    5.30
  -5  -7 -18   25.00    6.90
   5   7  18   34.50    7.10
  -3  -6 -17    2.20    4.80
   3   6  17   10.60    5.70
  -1  -5 -16    9.20    2.50
  -1  -5 -16   12.30    2.60
   1   5  16    4.60    5.20
   1  -4 -15  153.88   16.10
   1  -4 -15  177.18   17.00
   1  -4 -15  182.68   15.60
  -1   4  15  161.88   17.00
   3  -3 -14  130.49   12.80
  -3   3  14  136.19   14.40
   5  -2 -13  144.49   16.40
  -5   2  13  173.48   17.50
  -5   2  13  169.38   15.80
  -7   1  12  117.19   14.20
  -7   1  12  113.89   12.80
  -9   0  11   45.60    9.60
  -9   0  11   33.00    8.50
  -8  -8 -20    6.30    4.70
   8   8  20    2.40    5.60
  -6  -7 -19   19.30    6.40
   6   7  19   34.60    7.10
  -4  -6 -18   32.30    7.10
   4   6  18   38.60    7.40
  -2  -5 -17   55.49   11.50
   2   5  17   94.49   11.20
   0  -4 -16   21.00    6.70
   0  -4 -16   36.60    4.40
   0  -4 -16   23.60    4.20
   0   4  16   32.90    6.80
   2  -3 -15   38.30    5.40
   2  -3 -15   27.70    4.80
  -2   3  15   43.20    7.40
   4  -2 -14   -2.90    3.60
   4  -2 -14   -5.50    4.50
   4  -2 -14    1.60    5.00
  -4   2  14    4.70    5.90
  -6   1  13   -0.70    4.80
  -6   1  13    3.60    6.40
  -8   0  12    9.90    6.30
  -8   0  12   15.60    7.40
  -7  -7 -20    6.80    5.00
   7   7  20    8.10    6.00
  -5  -6 -19    6.20    5.20
   5   6  19   19.60    6.10
  -3  -5 -18    4.20    6.30
   3   5  18   -1.60    4.80
  -1  -4 -17   61.29   10.50
  -1  -4 -17   64.59    6.50
   1   4  17   58.49    9.10
   1  -3 -16    2.50    3.30
   1  -3 -16   -1.10    3.20
   1  -3 -16   -2.40    4.20
  -1   3  16    2.10    5.30
   3  -2 -15   71.69    8.10
   3  -2 -15   66.19    7.70
  -3   2  15   58.69    9.90
   5  -1 -14   77.09   10.00
   5  -1 -14   60.19    8.90
  -5   1  14   77.49   11.30
   7   0 -13   12.50    7.00
  -7   0  13   -0.90    5.40
  -7   0  13   -3.00    6.40
  -9  -1  12    0.90    7.20
  -9  -1  12   10.60    8.10
  -8  -7 -21    7.00    4.80
  -6  -6 -20    9.50    5.50
   6   6  20    6.70    5.50
  -4  -5 -19    3.80    6.70
   4   5  19    1.50    5.40
  -2  -4 -18    3.30    6.00
  -2  -4 -18   22.70    3.30
  -2  -4 -18   13.90    3.10
   2   4  18   23.90    6.80
   0  -3 -17   53.49    6.40
   0  -3 -17   43.30    7.80
   0   3  17   65.29    9.90
   2  -2 -16   33.60    5.50
   2  -2 -16   37.00    5.70
   2  -2 -16   24.20    6.40
  -2   2  16   30.90    7.90
   4  -1 -15    4.90    4.30
  -4   1  15    3.70    6.50
   6   0 -14   31.50    7.10
  -6   0  14    2.60    6.70
  -8  -1  13   20.20    8.00
  -7  -6 -21   10.10    5.30
   7   6  21   16.80    8.00
  -5  -5 -20   11.10    7.10
   5   5  20    2.00    5.80
  -3  -4 -19    2.20    2.80
  -3  -4 -19   -2.30    5.30
  -3  -4 -19    2.90    2.40
   3   4  19    0.30    5.80
  -1  -3 -18   57.19    6.20
  -1  -3 -18   74.59    9.40
  -1  -3 -18   51.59    6.20
   1   3  18   56.19    9.50
   1  -2 -17    8.30    5.20
   1  -2 -17    4.40    3.70
   1  -2 -17    5.80    3.70
  -1   2  17   25.70    7.00
   3  -1 -16   25.40    5.30
   3  -1 -16   31.20    5.80
  -3   1  16   18.70    7.20
   5   0 -15    7.30    5.50
   5   0 -15   13.50    4.80
  -5   0  15   16.80    7.20
   7   1 -14    7.40    7.00
  -7  -1  14   24.20    7.80
   9   2 -13   -0.30    7.60
  -9  -2  13    5.70    7.60
  -6  -5 -21    8.40    5.50
   6   5  21    9.60    6.00
  -4  -4 -20  115.79    9.80
  -4  -4 -20  104.29   13.10
  -4  -4 -20   98.39    9.80
   4   4  20  114.89   13.00
  -2  -3 -19   58.19    9.00
  -2  -3 -19   58.29    6.70
  -2  -3 -19   57.79    6.30
   2   3  19   58.39   10.00
   0  -2 -18   85.39    8.90
   0  -2 -18   82.89    8.90
   0  -2 -18   82.59   10.40
   0   2  18   96.69   11.50
   2  -1 -17  103.29   11.10
   2  -1 -17  114.19   11.50
  -2   1  17  126.39   14.20
   4   0 -16   66.09    8.70
   4   0 -16   46.80    7.60
  -4   0  16   89.99   12.00
   6   1 -15   -5.10    5.50
  -6  -1  15   -0.20    6.40
   8   2 -14   -7.00    6.80
  -8  -2  14   -3.90    8.00
  -7  -5 -22   -1.50    5.20
   7   5  22    2.80    6.50
  -5  -4 -21   10.20    6.90
  -5  -4 -21   10.40    3.10
  -5  -4 -21    8.80    2.90
   5   4  21   11.50    6.60
  -3  -3 -20    2.20    5.20
  -3  -3 -20    3.50    3.30
  -3  -3 -20    2.30    3.20
   3   3  20    6.20    6.20
  -1  -2 -19    5.60    3.50
  -1  -2 -19    0.80    3.10
  -1  -2 -19    2.40    5.10
   1   2  19    7.50    6.10
   1  -1 -18    4.80    3.90
   1  -1 -18    2.80    3.80
  -1   1  18    0.50    6.10
   3   0 -17   30.00    5.90
   3   0 -17   27.20    6.20
  -3   0  17   11.40    7.20
   5   1 -16    5.50    5.30
  -5  -1  16    1.10    6.50
   7   2 -15   50.39   10.30
  -6  -4 -22    4.50    3.20
  -6  -4 -22    9.40   10.60
  -6  -4 -22    4.40    3.20
   6   4  22    6.30    5.90
  -4  -3 -21   29.80    4.80
  -4  -3 -21    6.90    6.00
  -4  -3 -21   33.20    5.00
   4   3  21   34.80    7.70
  -2  -2 -20   21.60    4.80
  -2  -2 -20    9.00    5.60
  -2  -2 -20   29.00    4.90
   2   2  20   34.50    8.00
   0  -1 -19   23.00    5.30
   0  -1 -19   30.20    5.40
   0   1  19   30.40    7.70
   2   0 -18    4.30    4.30
   2   0 -18    6.80    4.60
  -2   0  18    9.40    7.00
   4   1 -17   -3.80    3.40
   4   1 -17    8.60    5.10
  -4  -1  17   -5.30    6.20
   6   2 -16    0.50    5.60
  -6  -2  16   12.70    9.10
   8   3 -15   -3.30    7.10
  -8  -3  15    8.30    7.80
  -5  -3 -22    6.10    5.70
  -5  -3 -22   15.00    4.20
   5   3  22   15.10    6.70
  -3  -2 -21    6.80    4.00
  -3  -2 -21    3.10    3.90
  -3  -2 -21    0.50    4.60
   3   2  21   16.60    7.20
  -1  -1 -20   36.50    6.20
  -1  -1 -20   35.80    5.90
   1   1  20   24.80    7.90
   1   0 -19   35.40    6.10
   1   0 -19   21.80    5.40
  -1   0  19   27.70    8.40
   3   1 -18   44.00    7.00
   3   1 -18   38.10    6.90
  -3  -1  18   28.90    8.50
   5   2 -17   14.10    6.00
  -5  -2  17   22.00    9.20
   7   3 -16    9.70    7.20
  -7  -3  16   10.00    7.80
  -6  -3 -23   -2.70    5.80
  -6  -3 -23   -0.20    4.10
   6   3  23    2.10    6.00
  -4  -2 -22   -0.10    4.20
  -4  -2 -22    1.60    4.80
  -4  -2 -22   -0.20    3.90
   4   2  22   -0.60    5.90
  -2  -1 -21    2.30    3.90
  -2  -1 -21   10.60    4.70
   2   1  21   -0.30    6.20
   0   0 -20   15.50    5.10
   0   0 -20   15.70    4.90
   0   0  20   16.70    7.50
   2   1 -19   22.80    5.70
   2   1 -19   17.40    5.40
  -2  -1  19   12.60    7.10
   4   2 -18   22.30    6.60
  -4  -2  18   19.00    8.20
   6   3 -17   13.70    7.00
  -6  -3  17   23.20    8.80
  -5  -2 -23    1.80    5.30
  -5  -2 -23   12.80    4.60
   5   2  23   15.10    7.00
  -3  -1 -22   13.70    5.00
  -3  -1 -22   26.30    6.10
   3   1  22   27.10    7.80
  -1   0 -21    0.20    4.40
  -1   0 -21   -1.20    4.20
   1   0  21    6.30    7.10
   1   1 -20    2.60    4.60
   1   1 -20    2.70    4.60
  -1  -1  20    7.90    7.30
   3   2 -19    9.10    5.70
  -3  -2  19    4.70    8.00
   5   3 -18    8.40    6.20
  -5  -3  18    8.60    7.80
   7   4 -17   -1.30    6.50
  -4  -1 -23   23.70    5.40
   4   1  23   24.10    7.90
  -2   0 -22   20.30    6.00
  -2   0 -22   17.70    6.10
   2   0  22   32.50    8.70
   0   1 -21   32.50    6.90
   0   1 -21   40.60    6.90
   0  -1  21   41.70   10.20
   2   2 -20   64.99    8.80
  -2  -2  20   40.10   10.30
   4   3 -19   11.00    6.50
  -4  -3  19   16.50    8.50
   6   4 -18   22.20    8.00
  -3   0 -23    8.60    5.60
   3   0  23    8.60    7.20
  -1   1 -22    9.40    5.90
  -1   1 -22   12.70    5.00
   1  -1  22   17.30    8.30
   1   2 -21    6.80    5.20
  -1  -2  21    7.60    7.50
   3   3 -20    0.20    5.70
  -3  -3  20    8.00    8.20
   5   4 -19   11.20    7.20
  -2   1 -23    5.50    5.60
  -2   1 -23   16.10    5.70
   2  -1  23   19.70    8.40
   0   2 -22    7.90    5.20
   2   3 -21    6.30    5.60
  -2  -3  21   15.90    8.50
  -1   2 -23    3.30    5.20
   1   3 -22    8.00    6.00
  -1  -3  22   17.30    8.50
   0  15   6   13.90    5.00
  -2  14   5   22.70    7.50
  -2  14   5   17.10    6.10
  -3 -16  -8    2.80    4.90
  -1 -15  -7   13.90    6.50
   1  15   7   19.60    8.00
   1  15   7   16.00    4.80
  -1  14   6   82.29   10.70
  -3  13   5   24.90    8.30
  -3  13   5   23.70    7.10
  -4 -16  -9   34.00    6.50
  -2 -15  -8    1.60    4.40
   2  15   8    2.30    6.40
   0  14   7    0.30    5.50
  -2  13   6   -0.90    4.20
  -4  12   5    4.70    4.80
  -3 -15  -9   15.70    4.70
   3  15   9    7.10    3.40
   3  15   9    2.00    6.10
  -1 -14  -8    5.50    4.20
   1  14   8    2.20    3.40
   1 -13  -7   20.80    5.90
  -1  13   7   16.90    6.10
  -1  13   7   24.30    5.40
  -3  12   6   50.29    9.70
  -3  12   6   69.09    9.50
  -5  11   5   19.10    7.20
  -2 -14  -9   22.60    5.00
   2  14   9   22.40    4.40
   0 -13  -8   30.20    5.60
   0  13   8   32.30    5.40
   0  13   8   26.50    7.50
   2 -12  -7    9.40    4.40
  -2  12   7   11.20    4.40
  -2  12   7   11.40    5.70
  -4  11   6    0.60    5.50
  -4  11   6    4.20    4.70
  -6  10   5   -5.40    5.30
  -6  10   5    6.30    5.40
   5  15  11   18.20    7.70
   5  15  11    9.80    2.60
  -3 -14 -10    3.00    3.60
   3  14  10    6.10    2.80
  -1 -13  -9    5.80    3.60
   1  13   9    0.30    4.80
   1  13   9    0.90    2.90
   1 -12  -8    1.30    3.60
  -1  12   8    7.60    5.10
  -1  12   8    2.80    3.30
   3 -11  -7    1.10    3.50
  -3  11   7   -0.90    3.60
  -3  11   7    8.90    5.70
  -5  10   6   11.10    5.20
  -5  10   6   18.70    6.90
  -7   9   5   10.10    6.70
  -7   9   5    7.40    5.90
   4  14  11   78.89    7.70
  -2 -13 -10   74.29    9.50
   2  13  10   70.19   11.00
   2  13  10   65.49    7.10
   0 -12  -9   76.99    8.70
   0  12   9   80.29   12.10
   0  12   9   68.09    8.10
   2 -11  -8   75.29    9.20
  -2  11   8   72.59   11.00
  -4  10   7   12.30    4.70
  -4  10   7    9.80    5.60
  -6   9   6    2.00    5.70
  -6   9   6    8.70    5.20
  -3 -13 -11   13.90    3.20
   3  13  11    9.60    2.80
   3  13  11    3.80    5.10
  -1 -12 -10    7.70    3.70
   1  12  10    9.30    5.80
   1  12  10    9.00    3.10
   1 -11  -9    6.20    3.60
  -1  11   9    5.80    5.30
  -1  11   9   10.00    3.60
   3 -10  -8   62.49    9.90
  -3  10   8   67.49   10.70
  -3  10   8   71.99    8.80
  -5   9   7   36.60    7.90
  -5   9   7   31.80    6.50
  -7   8   6   16.80    6.90
   4  13  12   57.79   10.80
  -2 -12 -11   50.29    5.90
   2  12  11   48.70    8.90
   0 -11 -10   19.20    4.20
   0  11  10   10.70    5.60
   0  11  10   17.40    3.70
   2 -10  -9    7.70    3.70
  -2  10   9   10.90    5.40
  -2  10   9   12.50    3.70
   4  -9  -8    3.40    3.30
  -4   9   8    2.10    5.10
  -4   9   8   -1.30    3.60
  -6   8   7    6.30    5.00
  -6   8   7   -4.10    4.90
  -8   7   6    0.60    6.00
  -8   7   6    0.60    5.70
   3  12  12    6.20    4.70
  -1 -11 -11    9.50    3.00
   1  11  11    3.30    4.80
   1  11  11    8.80    2.90
   1 -10 -10   26.90    4.90
  -1  10  10   29.20    5.00
  -1  10  10   48.50    8.30
   3  -9  -9   25.60    4.90
  -3   9   9   30.20    6.80
  -3   9   9   25.00    5.20
  -5   8   8   33.90    6.60
  -5   8   8   28.20    6.90
  -7   7   7   -3.10    6.00
  -7   7   7   11.30    5.30
   6  13  14    5.30    6.40
   4  12  13   26.60    6.60
  -2 -11 -12   30.50    3.60
   2  11  12   25.70    6.50
   2  11  12   24.70    3.40
   0 -10 -11   72.89    8.20
   0  10  11   67.99    7.50
   0  10  11   87.09   10.30
   2  -9 -10   57.19    9.40
   2  -9 -10   53.09    7.30
  -2   9  10   58.59    9.30
  -2   9  10   73.39    8.00
   4  -8  -9   81.59   11.10
   4  -8  -9   88.19   14.80
  -4   8   9   80.99    9.80
  -4   8   9  111.59   12.80
  -6   7   8   29.60    7.90
  -6   7   8   50.59    7.60
  -8   6   7   12.40    7.10
  -8   6   7   15.00    7.00
   5  12  14   18.70    7.10
   3  11  13   14.90    5.70
  -1 -10 -12    8.70    2.70
   1  10  12   21.70    6.10
   1  10  12   10.20    2.90
   1  -9 -11    0.20    2.80
  -1   9  11    0.40    4.50
  -1   9  11    0.50    2.60
   3  -8 -10   12.40    4.10
   3  -8 -10    4.90    5.20
  -3   8  10    4.50    5.00
  -3   8  10    9.30    3.90
   5  -7  -9    1.20    3.70
  -5   7   9   -0.70    4.90
  -5   7   9    8.00    4.50
  -7   6   8   12.70    5.90
  -7   6   8   12.00    6.10
  -9   5   7    4.30    6.90
  -9   5   7   13.50    6.70
   6  12  15    2.70    5.70
   4  11  14   40.20    8.60
   2  10  13  238.08   22.90
   0  -9 -12   65.59    7.70
   0   9  12   90.99   10.30
   0   9  12   88.69    8.00
   2  -8 -11   82.99    9.20
   2  -8 -11   76.59   10.50
  -2   8  11   86.39   11.10
  -2   8  11   77.19    8.40
   4  -7 -10   53.49    9.40
   4  -7 -10   66.99    8.20
  -4   7  10   66.79    9.90
  -6   6   9    2.10    4.50
  -6   6   9   -5.70    5.10
  -8   5   8   10.10    7.30
   7  12  16   -0.10    5.30
   5  11  15   12.50    6.10
   3  10  14    6.40    5.10
  -1  -9 -13   45.70    4.80
  -1  -9 -13   36.50    7.50
   1   9  13   41.80    4.50
   1   9  13   41.10    7.90
  -1   8  12   19.10    5.60
  -1   8  12   11.70    3.40
   3  -7 -11   25.80    6.20
   3  -7 -11   29.60    5.00
  -3   7  11   30.80    7.50
  -3   7  11   21.60    5.20
   5  -6 -10   10.00    4.30
   5  -6 -10    4.60    5.20
  -5   6  10   12.60    5.20
  -5   6  10   16.50    6.40
  -7   5   9   -2.80    4.50
  -7   5   9   -3.20    5.90
  -9   4   8   63.59   10.80
  -9   4   8   41.40    9.00
   8  12  17    0.80    5.50
   6  11  16    3.20    5.80
   4  10  15   18.70    6.00
  -2  -9 -14    9.10    5.10
   2   9  14   24.70    5.80
   0  -8 -13   41.60    5.00
   0   8  13   38.70    7.60
   2  -7 -12   13.40    3.70
  -2   7  12    9.20    5.40
  -2   7  12   12.10    3.80
   4  -6 -11    1.30    4.20
   4  -6 -11    3.70    3.30
  -4   6  11    0.20    5.50
  -4   6  11    5.50    3.70
  -6   5  10    6.90    5.40
  -6   5  10    1.00    4.30
  -8   4   9    7.30    5.90
  -8   4   9    2.60    6.70
   7  11  17    7.60    6.80
   5  10  16   72.59   10.20
  -3  -9 -15   91.29   11.20
   3   9  15   99.09   11.20
  -1  -8 -14   30.00    6.30
  -1  -8 -14   33.10    3.70
   1   8  14   45.80    7.50
   1  -7 -13   35.20    4.70
  -1   7  13   27.20    4.50
  -1   7  13   24.50    6.40
   3  -6 -12   12.70    3.80
   3  -6 -12    7.50    4.60
  -3   6  12   16.80    4.20
  -3   6  12   10.80    5.70
   5  -5 -11    3.40    4.60
  -5   5  11    4.70    4.30
  -5   5  11    5.60    5.80
  -7   4  10   35.10    7.40
  -7   4  10   31.70    8.40
  -9   3   9   -4.40    6.20
  -9   3   9   -0.40    6.20
   6  10  17    4.90    5.10
  -4  -9 -16    8.10    4.70
   4   9  16   -1.90    4.50
  -2  -8 -15   -2.40    3.80
   2   8  15   -4.40    4.40
   0  -7 -14   30.00    6.40
   0  -7 -14   32.40    4.50
   0   7  14   39.90    6.90
   2  -6 -13   83.09    8.80
  -2   6  13   91.69    9.10
  -2   6  13   95.49   11.40
   4  -5 -12    7.40    5.10
   4  -5 -12   15.80    4.40
  -4   5  12   17.30    6.50
  -4   5  12   18.20    4.70
  -6   4  11   60.09    9.90
  -6   4  11   52.09    8.30
  -8   3  10   30.20    7.60
  -8   3  10   40.10    8.40
   7  10  18   46.20    8.50
  -5  -9 -17   45.00    8.30
   5   9  17   63.59    9.00
  -3  -8 -16   35.60    6.90
   3   8  16   27.70    6.80
  -1  -7 -15   74.89    7.00
  -1  -7 -15   77.49    9.60
   1   7  15   84.99   10.00
   1  -6 -14    2.50    3.00
   1  -6 -14    1.10    2.90
  -1   6  14    9.70    5.50
   3  -5 -13   -0.20    3.30
   3  -5 -13   -2.30    3.80
  -3   5  13    0.80    3.20
  -3   5  13    3.90    5.20
   5  -4 -12   15.50    5.90
  -5   4  12   24.80    6.90
  -5   4  12   13.60    4.70
  -7   3  11   -2.10    4.80
  -7   3  11    3.10    6.00
  -9   2  10    0.80    6.60
  -9   2  10   -0.90    6.10
  -6  -9 -18    9.10    5.10
   6   9  18   12.80    7.40
  -4  -8 -17    0.30    4.60
   4   8  17   13.60    5.40
  -2  -7 -16   29.80    6.50
   2   7  16   37.90    7.40
   0  -6 -15   -0.20    4.60
   0  -6 -15   16.90    5.30
   0  -6 -15   17.90    3.40
   0   6  15   18.20    6.10
   2  -5 -14   87.99    9.90
  -2   5  14  111.39   10.20
  -2   5  14  112.59   12.30
   4  -4 -13  115.89   14.30
   4  -4 -13  128.99   13.40
  -4   4  13  167.98   13.70
  -4   4  13  143.99   14.80
  -6   3  12   16.90    5.40
  -6   3  12   32.00    8.20
  -8   2  11   19.20    6.50
  -8   2  11   17.60    7.60
  -7  -9 -19   -1.40    4.30
   7   9  19    1.80    6.30
  -5  -8 -18   -2.60    4.40
   5   8  18    0.40    5.10
  -3  -7 -17    5.20    4.70
   3   7  17    3.90    5.30
  -1  -6 -16   15.40    5.50
  -1  -6 -16   25.40    3.30
  -1  -6 -16   21.30    3.30
   1   6  16   28.70    6.70
   1  -5 -15   24.40    4.40
   1  -5 -15   14.50    5.10
   1  -5 -15   14.90    4.10
  -1   5  15   24.60    6.30
   3  -4 -14    6.80    3.90
  -3   4  14    2.70    5.40
  -3   4  14    6.80    3.90
   5  -3 -13   10.80    5.20
  -5   3  13   13.90    4.80
  -5   3  13    6.20    6.20
  -7   2  12   39.40    7.80
  -7   2  12   40.90    9.20
  -9   1  11   17.70    8.00
  -9   1  11    8.20    6.60
  -8  -9 -20   -0.40    4.70
  -6  -8 -19    9.00    5.40
   6   8  19    8.40    6.00
  -4  -7 -18   28.90    6.60
   4   7  18   32.00    7.00
  -2  -6 -17   73.59   10.60
   2   6  17   96.29   11.00
   0  -5 -16   61.59    8.60
   0  -5 -16   57.79    6.00
   0  -5 -16   51.29    6.00
   0   5  16   64.99    9.50
   2  -4 -15    0.10    3.80
   2  -4 -15    4.20    3.50
  -2   4  15    7.70    5.60
   4  -3 -14   79.19    9.00
   4  -3 -14   63.79   10.90
  -4   3  14   86.99   12.10
  -4   3  14   80.99    9.10
  -6   2  13   13.80    6.60
  -6   2  13    7.00    5.20
  -8   1  12   -0.60    5.90
  -8   1  12    5.50    7.30
  -7  -8 -20    8.10    4.90
   7   8  20   14.50    6.60
  -5  -7 -19   19.30    6.20
   5   7  19   28.20    6.80
  -3  -6 -18   70.09   10.30
   3   6  18   88.79   11.00
  -1  -5 -17  113.19    9.40
  -1  -5 -17   91.99   11.20
  -1  -5 -17   98.19    9.30
   1   5  17   94.99   11.80
   1  -4 -16   46.10    6.10
   1  -4 -16   41.40    7.70
   1  -4 -16   48.70    6.20
  -1   4  16   53.09    8.30
   3  -3 -15   76.59    8.40
   3  -3 -15   54.29    7.80
  -3   3  15   66.69    9.90
   5  -2 -14   10.90    4.70
  -5   2  14    2.60    6.40
  -5   2  14    4.60    5.00
  -7   1  13    8.60    5.60
  -7   1  13   -1.00    6.50
  -9   0  12   -2.70    6.40
  -6  -7 -20    2.70    5.00
   6   7  20   -4.70    4.80
  -4  -6 -19   -1.80    4.70
   4   6  19    6.00    6.10
  -2  -5 -18   50.89    8.10
   2   5  18   38.70    7.90
   0  -4 -17    3.30    3.00
   0  -4 -17   -2.80    4.00
   0  -4 -17    3.10    2.90
   0   4  17    4.30    5.40
   2  -3 -16    8.30    4.00
   2  -3 -16    3.50    3.50
  -2   3  16    1.70    6.40
   4  -2 -15  135.59   13.50
  -4   2  15  133.99   15.10
   6  -1 -14   71.39   10.60
  -6   1  14   64.39   11.30
  -8   0  13   24.70    8.60
  -7  -7 -21    5.50    5.00
   7   7  21   14.10    6.80
  -5  -6 -20   13.10    6.00
   5   6  20   16.60    5.90
  -3  -5 -19   25.50    6.50
   3   5  19   38.50    7.20
  -1  -4 -18   39.50    5.40
  -1  -4 -18   30.50    7.10
  -1  -4 -18   48.30    5.20
   1   4  18   47.30    8.70
   1  -3 -17   35.50    5.40
   1  -3 -17   30.50    5.30
  -1   3  17   31.30    7.80
   3  -2 -16   41.80    6.50
   3  -2 -16   34.60    6.60
  -3   2  16   64.69    9.70
   5  -1 -15    1.40    4.30
   5  -1 -15   -0.40    5.30
  -5   1  15  -11.20    5.70
   7   0 -14    1.70    6.30
  -7   0  14    7.90    7.10
   9   1 -13    7.10    8.40
  -9  -1  13    2.70    8.10
  -6  -6 -21    3.80    5.40
   6   6  21    9.00    5.90
  -4  -5 -20    7.50    5.50
   4   5  20   18.60    6.90
  -2  -4 -19    4.60    2.70
  -2  -4 -19    0.40    4.50
  -2  -4 -19    0.80    3.20
   2   4  19   -1.60    5.70
   0  -3 -18   -4.70    4.10
   0  -3 -18    2.30    3.40
   0  -3 -18    2.20    3.20
   0   3  18   13.70    7.00
   2  -2 -17   32.80    5.80
  -2   2  17   32.40    8.40
   4  -1 -16   15.40    6.30
   4  -1 -16   16.30    5.70
  -4   1  16   14.60    7.70
   6   0 -15   20.00    6.80
  -6   0  15   22.50    8.00
   8   1 -14   31.40    9.00
  -8  -1  14   18.40    9.30
  -7  -6 -22    1.70    5.40
   7   6  22    4.10    6.60
  -5  -5 -21    2.00    5.20
   5   5  21    1.50    6.60
  -3  -4 -20   23.40    3.60
  -3  -4 -20   14.10    5.80
   3   4  20   19.80    7.10
  -1  -3 -19   -4.00    2.90
  -1  -3 -19    0.80    4.90
   1   3  19    1.00    6.30
   1  -2 -18   40.90    6.10
   1  -2 -18   43.00    6.40
  -1   2  18   29.80    8.30
   3  -1 -17   46.50    6.80
  -3   1  17   45.40    9.20
   5   0 -16    5.50    5.90
  -5   0  16   13.30    7.80
   7   1 -15   10.90    7.20
  -6  -5 -22    0.70    5.30
   6   5  22    1.60    7.20
  -4  -4 -21    7.20    3.00
  -4  -4 -21    4.70    2.90
  -4  -4 -21    3.80    5.40
   4   4  21    4.20    6.10
  -2  -3 -20    8.80    3.60
  -2  -3 -20   11.50    3.90
   2   3  20   15.70    7.00
   0  -2 -19    7.70    3.90
   0  -2 -19   10.40    4.00
   0   2  19    6.80    6.60
   2  -1 -18   11.60    4.30
   2  -1 -18    7.50    4.60
  -2   1  18    9.00    7.20
   4   0 -17    3.60    4.40
   4   0 -17    8.70    5.40
  -4   0  17   13.50    7.50
   6   1 -16   -0.20    5.90
  -6  -1  16   -1.30    7.50
   8   2 -15    0.70    7.50
  -8  -2  15   11.70    8.60
  -5  -4 -22    7.90    3.00
  -5  -4 -22    2.80    5.70
  -5  -4 -22    4.10    2.90
   5   4  22   12.80    7.00
  -3  -3 -21   68.49    7.30
  -3  -3 -21   65.09    7.60
   3   3  21   59.29   11.20
  -1  -2 -20   33.90    5.70
  -1  -2 -20   40.70    5.90
   1   2  20   18.40    8.20
   1  -1 -19   53.79    7.50
   1  -1 -19   59.59    7.60
  -1   1  19   42.60    9.50
   3   0 -18   86.29    9.80
   3   0 -18   84.89   10.20
  -3   0  18   88.39   13.20
   5   1 -17   31.30    7.60
  -5  -1  17   46.30   10.10
  -7  -2  16   12.20    8.60
  -6  -4 -23    1.10    3.20
  -6  -4 -23    5.70    6.10
   6   4  23    6.20    6.50
  -4  -3 -22   11.20    3.90
  -4  -3 -22    9.00    4.20
   4   3  22   19.40    7.00
  -2  -2 -21    2.60    3.60
  -2  -2 -21    0.40    3.90
   2   2  21   -2.50    5.90
   0  -1 -20    1.70    4.00
   0  -1 -20    6.50    4.40
   0   1  20    4.70    6.90
   2   0 -19    6.10    4.90
  -2   0  19    7.90    7.30
   4   1 -18   12.00    5.50
  -4  -1  18   11.90    7.50
   6   2 -17    9.10    6.50
  -6  -2  17    6.40    8.10
  -5  -3 -23    6.80    4.00
   5   3  23   19.40    7.00
  -3  -2 -22   16.10    4.50
  -3  -2 -22    8.90    4.60
   3   2  22   16.10    7.40
  -1  -1 -21   26.20    6.10
  -1  -1 -21   25.10    5.60
   1   1  21   39.80    8.70
   1   0 -20   22.50    6.20
   1   0 -20   16.00    5.40
  -1   0  20   18.30    8.10
   3   1 -19    7.30    5.30
  -3  -1  19    4.40    6.90
   5   2 -18    3.20    6.10
  -5  -2  18    3.00    8.00
   7   3 -17   -4.60    6.40
  -4  -2 -23   32.90    6.40
  -4  -2 -23   34.10    6.00
   4   2  23   32.60    8.50
  -2  -1 -22   12.60    4.60
  -2  -1 -22    8.20    5.20
   2   1  22   21.00    7.80
   0   0 -21    1.50    4.70
   0   0 -21   10.70    5.10
   0   0  21    0.10    7.30
   2   1 -20    3.30    4.50
   2   1 -20   15.80    5.70
  -2  -1  20    8.10    8.00
   4   2 -19   14.40    6.40
  -4  -2  19   36.40    9.70
   6   3 -18   21.10    7.60
  -6  -3  18    0.00    8.40
  -3  -1 -23    3.10    4.60
  -3  -1 -23    1.20    5.30
   3   1  23   11.70    7.50
  -1   0 -22   -6.60    4.70
  -1   0 -22   -5.10    4.40
   1   0  22   -1.00    6.80
   1   1 -21    6.80    5.10
   1   1 -21    9.90    5.50
  -1  -1  21   15.20    8.40
   3   2 -20   14.80    6.00
  -3  -2  20   17.20    9.70
  -5  -3  19   11.20    8.30
  -2   0 -23   45.30    7.10
   2   0  23   36.70   10.30
   0   1 -22   -0.30    4.80
   0   1 -22   -0.50    5.10
   0  -1  22   14.40    9.30
   2   2 -21    0.70    5.20
  -2  -2  21    0.30    7.00
   4   3 -20    6.60    6.30
  -4  -3  20    9.40    8.00
  -1   1 -23   34.40    7.10
   1   2 -22   21.70    6.30
  -1  -2  22   26.30    9.80
   3   3 -21   36.30    8.30
  -3  -3  21   25.10    9.10
   0   2 -23   12.50    6.10
   0  -2  23    7.80    8.00
   2   3 -22    7.70    6.10
  -2  -3  22   10.30    9.00
  -1 -15  -8   42.90    7.90
   1  15   8   50.69   10.80
  -1  14   7   29.10    8.20
  -1  14   7   33.50    6.70
  -3  13   6   28.60    9.30
  -2 -15  -9    4.20    4.10
   2  15   9   -0.20    6.40
   2  15   9    4.00    3.70
   0 -14  -8    6.90    4.60
   0  14   8    0.30    3.50
   0  14   8    2.90    5.90
  -2  13   7   31.30    6.80
  -2  13   7   19.90    7.80
  -4  12   6   54.69    8.90
  -3 -15 -10   26.60    5.40
   3  15  10   27.80    8.60
  -1 -14  -9    4.40    3.90
   1  14   9    5.30    5.70
   1  14   9   15.30    4.10
  -1  13   8    0.70    3.80
  -3  12   7   10.60    4.60
  -5  11   6    3.60    5.00
   4  15  11   12.00    7.00
  -2 -14 -10    4.80    3.60
   2  14  10    8.00    3.60
   2  14  10    0.00    5.30
   0 -13  -9    3.30    3.80
   0  13   9   -4.00    5.10
   2 -12  -8    8.60    4.50
  -2  12   8    5.00    6.20
  -2  12   8    9.30    4.20
  -4  11   7   52.89    8.20
  -4  11   7   38.20    9.10
  -6  10   6   19.90    6.50
  -6  10   6   21.10    7.30
   5  15  12    9.10    6.40
  -3 -14 -11   14.10    3.90
   3  14  11    9.40    6.30
   3  14  11   18.70    3.60
  -1 -13 -10    0.00    3.50
   1  13  10   10.40    3.40
   1  13  10    3.70    5.40
   1 -12  -9   37.20    6.00
  -1  12   9   29.70    7.40
  -1  12   9   37.90    5.90
   3 -11  -8   16.50    5.00
  -3  11   8   15.70    4.70
  -3  11   8   14.00    7.40
  -5  10   7    1.40    4.30
  -5  10   7   -6.00    5.30
  -2 -13 -11    3.30    3.00
   2  13  11    3.10    4.80
   2  13  11    3.90    2.70
   0 -12 -10   16.90    4.30
   0  12  10   20.20    6.30
   0  12  10   14.60    4.10
   2 -11  -9    6.40    3.90
  -2  11   9    2.70    5.10
  -4  10   8    4.00    5.40
  -4  10   8    6.40    4.20
  -6   9   7   11.50    6.50
  -6   9   7    7.90    5.50
   3  13  12   55.59    9.80
   3  13  12   56.39    5.60
  -1 -12 -11  101.39   10.70
   1  12  11   92.29   13.40
   1 -11 -10   87.39    9.80
  -1  11  10   94.09   11.30
  -1  11  10   77.19    8.90
  -3  10   9   53.69    9.30
  -3  10   9   61.49    8.00
  -5   9   8   15.30    5.30
  -5   9   8    7.30    6.20
  -7   8   7    4.70    6.30
  -7   8   7    6.00    5.50
   6  14  14    0.30    4.80
   4  13  13   16.50    6.50
  -2 -12 -12    6.10    2.50
   2  12  12    5.10    2.20
   2  12  12    4.60    4.90
   0 -11 -11    3.50    3.00
   0  11  11    2.50    2.90
   0  11  11    0.50    4.70
   2 -10 -10    4.00    3.30
  -2  10  10    3.50    5.10
  -2  10  10    5.60    3.50
   4  -9  -9    3.90    4.40
  -4   9   9    9.50    6.10
  -4   9   9   10.60    4.60
  -6   8   8   39.00    8.10
  -6   8   8   47.30    8.80
  -8   7   7   16.20    7.20
   5  13  14   20.10    7.50
   3  12  13   47.10    8.70
  -1 -11 -12   74.19    7.60
   1  11  12   87.39   12.20
   1  11  12   68.89    7.30
   1 -10 -11   22.80    4.60
  -1  10  11   26.30    4.70
  -1  10  11   38.80    7.60
   3  -9 -10   -0.50    3.40
  -3   9  10    4.70    3.80
  -3   9  10    9.10    5.40
  -5   8   9   -5.60    5.30
  -5   8   9    2.00    4.00
  -7   7   8   -4.30    5.30
  -7   7   8   -3.10    5.60
   6  13  15   27.60    8.60
   4  12  14   28.20    8.80
   2  11  13   44.30    8.50
   0 -10 -12    4.20    2.80
   0  10  12    1.60    2.70
   0  10  12    4.60    5.40
   2  -9 -11   15.20    3.80
  -2   9  11    9.60    3.80
  -2   9  11   15.50    6.20
  -4   8  10    1.60    4.90
  -4   8  10    5.70    4.00
  -6   7   9    3.20    5.30
  -6   7   9    6.10    6.20
  -8   6   8   24.90    8.30
   7  13  16   -1.10    5.90
   5  12  15    0.60    6.00
   3  11  14   22.90    6.90
  -1 -10 -13   27.70    4.20
   1  10  13   47.00    8.50
   1  10  13   41.20    4.60
   1  -9 -12   13.30    3.90
  -1   9  12   14.60    3.90
  -1   9  12   16.60    6.40
   3  -8 -11   80.29    9.90
  -3   8  11   81.99    9.10
  -3   8  11   86.59   11.90
   5  -7 -10   18.80    5.00
  -5   7  10   19.30    7.10
  -5   7  10   29.30    5.90
  -7   6   9    8.30    6.70
  -7   6   9   20.70    7.00
   6  12  16   44.00    8.70
   4  11  15   95.69   11.70
   2  10  14   21.40    6.30
   0  -9 -13    4.00    2.60
   0   9  13    4.60    4.70
   0   9  13    0.60    2.60
   2  -8 -12    5.20    3.40
  -2   8  12    5.40    3.50
  -2   8  12    6.70    5.50
   4  -7 -11    7.10    4.00
  -4   7  11    6.80    4.90
  -4   7  11    3.20    5.70
  -6   6  10    8.30    6.50
  -6   6  10    8.20    5.20
  -8   5   9   -6.00    6.30
  -8   5   9   -0.30    5.60
   7  12  17    2.70    5.20
   5  11  16    5.60    5.70
   3  10  15   10.10    5.40
  -1  -9 -14   85.89    8.30
   1   9  14  113.29   11.40
  -1   8  13  111.49   12.70
  -1   8  13  111.89   10.80
   3  -7 -12   63.09    8.10
  -3   7  12   85.39    8.50
  -3   7  12   86.39   11.60
   5  -6 -11   24.70    5.60
  -5   6  11   33.40    7.50
  -5   6  11   27.20    6.00
  -7   5  10   14.90    5.80
  -7   5  10    9.90    7.20
   6  11  17    0.90    5.00
   4  10  16    9.10    5.80
   2   9  15    8.90    5.40
   0  -8 -14    2.50    2.40
   0   8  14    5.10    2.80
   0   8  14    1.30    5.00
   2  -7 -13   19.30    4.50
  -2   7  13   23.00    6.50
  -2   7  13   31.10    4.80
   4  -6 -12    0.20    3.40
  -4   6  12   -6.30    5.10
  -6   5  11   -3.30    5.70
  -6   5  11    2.30    4.70
  -8   4  10    8.00    7.00
   7  11  18    1.50    6.90
   5  10  17    0.50    5.30
   3   9  16   19.50    6.00
   1   8  15   50.59    8.70
   1  -7 -14   21.70    4.10
  -1   7  14   15.70    3.90
  -1   7  14   19.60    6.40
   3  -6 -13   27.30    5.10
   3  -6 -13   12.50    6.30
  -3   6  13   31.80    5.40
  -3   6  13   24.90    6.80
   5  -5 -12   12.30    4.50
  -5   5  12    3.80    5.80
  -5   5  12   13.40    5.00
  -7   4  11   10.40    7.20
  -7   4  11    8.80    5.70
  -9   3  10   -3.70    6.10
  -9   3  10    1.50    7.20
   6  10  18   22.70    7.30
   4   9  17   23.00    6.60
   2   8  16   83.19   11.30
   0  -7 -15   45.30    5.40
   0   7  15   63.59    9.20
   2  -6 -14    8.30    3.50
  -2   6  14   -0.30    5.30
  -2   6  14   12.60    3.70
   4  -5 -13   18.80    4.80
  -4   5  13    5.90    6.50
  -4   5  13   22.60    5.30
  -6   4  12   17.20    5.50
  -6   4  12    6.30    6.80
  -8   3  11    3.40    6.70
   7  10  19   -0.30    5.60
   5   9  18    1.70    4.90
   3   8  17   -1.00    5.10
  -1  -7 -16   -0.70    3.70
   1   7  16    1.20    5.10
   1  -6 -15   23.30    4.60
   1  -6 -15   21.00    5.00
  -1   6  15   18.80    7.00
   3  -5 -14   11.40    4.10
  -3   5  14    4.30    5.80
  -3   5  14   10.60    4.20
   5  -4 -13   32.80    6.20
  -5   4  13   38.60    6.40
  -5   4  13   30.40    8.20
  -7   3  12   13.90    5.80
  -7   3  12   16.20    7.80
  -9   2  11   23.20    9.10
  -9   2  11   16.30    7.30
   6   9  19   39.80    7.90
   4   8  18   30.20    7.20
   2   7  17   40.50    7.90
   0  -6 -16   48.80    6.00
   0   6  16   60.89    9.40
   2  -5 -15    5.30    3.70
  -2   5  15   13.20    6.10
   4  -4 -14    2.00    3.80
  -4   4  14   -1.60    6.10
  -6   3  13    9.30    5.10
  -6   3  13   11.80    7.40
  -8   2  12   -1.90    6.50
   7   9  20    8.30    8.30
   5   8  19    2.00    5.70
  -3  -7 -18   -0.50    3.80
   3   7  18   14.30    6.30
  -1  -6 -17   52.09    4.90
  -1  -6 -17   38.70    4.80
   1   6  17   58.79    9.20
   1  -5 -16   12.80    4.20
   1  -5 -16   22.00    4.50
  -1   5  16   11.50    6.30
   3  -4 -15   32.70    5.90
  -3   4  15   32.20    7.90
   5  -3 -14   63.79    9.30
  -5   3  14   80.79    9.10
  -5   3  14   72.99   11.10
  -7   2  13   10.60    5.70
  -7   2  13   21.10    7.70
  -9   1  12    6.60   10.00
  -9   1  12   -2.80    6.20
   6   8  20    2.80    5.70
  -4  -7 -19   -2.00    4.10
   4   7  19    2.80    5.40
  -2  -6 -18   -1.10    3.90
   2   6  18   12.80    6.20
   0  -5 -17    5.40    3.00
   0  -5 -17    6.20    3.00
   0   5  17    4.00    5.70
   2  -4 -16   33.50    5.60
   2  -4 -16   34.00    6.20
  -2   4  16   24.20    6.80
   4  -3 -15   10.50    4.50
  -4   3  15    9.60    6.90
  -6   2  14    2.20    5.50
  -6   2  14    3.10    6.50
  -8   1  13    9.60    6.40
  -7  -8 -21    4.20    5.10
   7   8  21    5.10    6.30
  -5  -7 -20   -0.80    5.00
   5   7  20   -0.30    6.00
  -3  -6 -19   13.70    5.70
   3   6  19   26.20    6.80
  -1  -5 -18    1.80    2.50
  -1  -5 -18    6.70    2.80
   1   5  18   15.10    6.00
   1  -4 -17   64.39    7.30
   1  -4 -17   67.09    7.80
  -1   4  17   64.89   10.30
   3  -3 -16   14.30    4.90
   3  -3 -16    9.10    5.10
  -3   3  16   13.40    7.30
   5  -2 -15   -1.10    5.30
   5  -2 -15    6.40    4.70
  -5   2  15   13.30    7.00
  -7   1  14   11.90    7.60
  -7   1  14   23.50    6.90
  -6  -7 -21   -3.80    4.70
   6   7  21   14.30    6.00
  -4  -6 -20    5.90    6.50
   4   6  20   33.70    6.80
  -2  -5 -19   62.19    6.40
   2   5  19   86.59   10.00
   0  -4 -18   63.99    7.20
   0  -4 -18   71.19    8.80
   0   4  18   68.29   10.60
   2  -3 -17  121.19   12.30
   2  -3 -17  132.69   12.50
  -2   3  17  129.59   14.70
   4  -2 -16   12.90    5.40
  -4   2  16   14.80    7.20
   6  -1 -15   -1.10    6.00
  -6   1  15   10.30    7.10
   8   0 -14  -16.60    6.80
  -8   0  14   16.20    8.50
   5   6  21   -4.70    6.60
   3   5  20   16.50    6.50
  -1  -4 -19   28.60    4.40
  -1  -4 -19   21.70    4.10
   1   4  19   28.90    7.80
   1  -3 -18    0.70    3.60
   1  -3 -18   -2.60    3.40
  -1   3  18   -1.80    6.00
   3  -2 -17   -0.10    3.90
   3  -2 -17   -2.20    4.30
  -3   2  17   -1.60    6.10
   5  -1 -16   60.49    9.40
  -5   1  16   55.19   11.20
   7   0 -15   58.19   10.80
  -6  -6 -22    2.00    5.30
   6   6  22    1.40    6.70
   4   5  21   27.20    7.10
  -2  -4 -20   49.20    5.80
   2   4  20   59.59   10.40
   0  -3 -19   45.70    6.30
   0  -3 -19   39.30    6.00
   0   3  19   43.90    9.60
   2  -2 -18   16.30    5.10
   2  -2 -18   25.80    5.30
  -2   2  18   21.40    7.70
   4  -1 -17    9.80    5.70
   4  -1 -17    7.70    4.80
  -4   1  17   21.30    8.20
   6   0 -16    8.10    6.30
   8   1 -15   10.20    7.60
  -8  -1  15    4.70    8.00
   5   5  22   17.80    7.20
  -3  -4 -21   36.10    5.40
  -3  -4 -21   36.80    5.00
   3   4  21   46.60    9.30
  -1  -3 -20   19.10    4.40
  -1  -3 -20   19.20    4.60
   1   3  20   28.60    8.30
   1  -2 -19   12.50    4.40
   1  -2 -19    7.90    4.40
  -1   2  19    5.10    7.10
   3  -1 -18   14.00    5.30
  -3   1  18    6.80    8.10
   5   0 -17   18.60    6.70
  -5   0  17   19.90    8.40
  -7  -1  16    6.90    8.10
  -4  -4 -22    2.10    2.80
  -4  -4 -22    0.40    2.80
   4   4  22    7.40    7.00
  -2  -3 -21    2.80    3.30
   2   3  21    8.50    7.70
   0  -2 -20   -1.50    3.80
   0  -2 -20   -8.50    3.70
   0   2  20    3.20    6.70
   2  -1 -19   22.00    5.50
  -2   1  19   22.30    8.00
   4   0 -18   18.50    6.10
  -4   0  18   20.00    8.10
   6   1 -17   -0.70    6.00
  -6  -1  17    7.40    7.80
   5   4  23   32.60    8.60
  -3  -3 -22    3.90    3.50
   3   3  22    2.90    6.40
  -1  -2 -21    3.80    4.10
  -1  -2 -21    0.20    4.10
   1   2  21    0.20    7.20
   1  -1 -20   17.40    5.20
   1  -1 -20    5.90    4.50
  -1   1  20   12.70    7.40
   3   0 -19   10.00    5.10
   3   0 -19   17.80    5.80
  -3   0  19   26.40    8.20
   5   1 -18    2.10    5.90
  -5  -1  18   23.80    9.00
   7   2 -17    8.20    7.30
  -4  -3 -23    2.80    3.80
   4   3  23    2.50    6.90
  -2  -2 -22   13.50    4.90
  -2  -2 -22   10.40    4.30
   2   2  22   -1.90    6.30
   0  -1 -21   79.99    9.70
   0  -1 -21   91.99   10.00
   0   1  21   70.49   12.50
   2   0 -20   35.10    6.80
   2   0 -20   36.30    7.00
  -2   0  20   27.30    9.00
   4   1 -19   32.90    7.70
  -4  -1  19   34.30    9.10
  -6  -2  18   36.80   11.20
  -3  -2 -23    6.70    4.30
  -3  -2 -23    8.30    5.10
   3   2  23    4.90    7.20
  -1  -1 -22   -5.20    4.00
  -1  -1 -22   -4.50    4.70
   1   1  22    1.00    6.80
   1   0 -21    1.30    4.70
   1   0 -21    2.70    4.90
  -1   0  21    3.10    7.20
   3   1 -20    4.50    5.60
  -3  -1  20    3.80    8.00
   5   2 -19   14.70    6.40
  -5  -2  19    1.10    8.80
  -2  -1 -23   12.80    4.70
  -2  -1 -23   14.40    5.60
   2   1  23    2.00    6.90
   0   0 -22   41.50    7.10
   0   0 -22   36.80    8.00
   0   0  22   41.60   10.20
   2   1 -21    9.30    5.90
  -2  -1  21   26.20    9.60
   4   2 -20   -4.50    5.70
  -4  -2  20    0.50    7.90
  -1   0 -23   23.80    6.00
  -1   0 -23   21.30    6.80
   1   1 -22    3.20    5.10
  -1  -1  22   -2.20    8.10
   3   2 -21   11.10    6.40
  -3  -2  21   15.50    9.10
   0   1 -23    2.50    5.50
   0  -1  23    4.70    8.30
   2   2 -22   -0.70    5.90
  -2  -2  22   -4.50    7.50
  -1 -15  -9    1.30    4.50
   1 -14  -8   -0.40    3.90
  -1  14   8    2.00    5.70
  -1  14   8   -1.40    3.70
  -3  13   7    0.20    6.30
  -3  13   7   -1.00    4.20
  -2 -15 -10   72.19    9.00
   2  15  10   73.59    9.00
   0 -14  -9   51.99    7.60
   0  14   9   49.90   10.10
  -2  13   8   22.20    6.00
  -2  13   8   20.10    7.50
  -4  12   7    6.10    6.80
  -4  12   7    9.20    6.20
  -3 -15 -11   -0.80    4.10
  -1 -14 -10    0.90    3.70
   1  14  10    6.70    3.70
   1 -13  -9   -6.80    3.90
  -1  13   9    2.00    6.10
  -1  13   9   -0.90    3.70
  -3  12   8   20.80    8.50
  -3  12   8   16.70    5.50
  -5  11   7   36.10    9.50
   2  14  11   17.20    6.90
   2  14  11   23.20    4.50
   0 -13 -10   30.30    5.50
   0  13  10   37.00    8.80
   0  13  10   26.20    5.40
   2 -12  -9   -0.90    3.90
  -2  12   9    7.30    4.00
   3  14  12    9.00    6.40
  -1 -13 -11    2.50    3.20
   1  13  11    4.60    2.90
   1 -12 -10    8.50    4.10
  -1  12  10    7.50    5.80
   3 -11  -9   11.40    4.50
  -3  11   9   14.20    5.30
  -3  11   9    9.90    6.10
  -5  10   8   11.40    5.70
  -5  10   8   14.50    7.00
   4  14  13    4.20    5.40
  -2 -13 -12    4.10    2.70
   0 -12 -11    8.10    3.60
   0  12  11    6.10    3.30
   2 -11 -10   26.50    5.30
  -2  11  10   24.00    6.90
  -4  10   9    3.80    5.70
  -4  10   9   12.10    5.00
  -6   9   8   -6.90    5.50
  -6   9   8    3.00    5.20
  -1 -12 -12   44.70    5.90
   1  12  12   48.20    5.70
   1  12  12   63.99   10.20
   1 -11 -11   12.80    4.00
  -1  11  11   19.20    6.40
  -1  11  11   12.90    4.10
  -3  10  10   17.30    4.90
  -3  10  10   23.40    7.40
  -5   9   9    3.10    4.40
  -5   9   9    0.60    5.70
  -7   8   8    4.80    6.30
   0 -11 -12   70.99    9.10
   0  11  12   92.59    8.80
   0  11  12   94.49   12.50
   2 -10 -11   31.40    6.00
  -2  10  11   51.29    8.60
  -2  10  11   40.30    6.10
   4  -9 -10   69.29    9.40
  -4   9  10   74.39    9.50
  -4   9  10   66.39   10.60
  -6   8   9   18.80    7.90
  -6   8   9   23.40    7.00
   3  12  14    6.30    6.00
  -1 -11 -13    5.70    2.60
   1  11  13   14.00    5.90
   1 -10 -12   14.00    3.90
  -1  10  12   16.80    4.10
  -1  10  12   17.00    6.20
   3  -9 -11   -2.00    3.50
  -3   9  11   -2.10    5.40
  -5   8  10   -0.40    4.50
  -5   8  10   -3.90    5.40
  -7   7   9   19.30    7.60
   4  12  15   11.90    6.80
   2  11  14   60.99    9.80
   0 -10 -13   26.20    4.70
   0  10  13   41.10    5.00
   0  10  13   35.50    7.40
   2  -9 -12   15.30    4.20
  -2   9  12   16.40    4.40
  -2   9  12   26.50    6.90
   4  -8 -11   -2.60    3.80
  -4   8  11    1.40    4.10
  -4   8  11   -1.90    5.40
  -6   7  10   13.90    7.20
  -6   7  10   13.40    6.10
  -8   6   9    5.30    7.50
  -8   6   9   -2.40    5.60
   5  12  16   30.20   10.10
   3  11  15   35.90    9.40
  -1 -10 -14   12.70    2.60
   1  10  14   17.70    6.60
   1  -9 -13    5.40    3.10
  -1   9  13    9.50    5.50
  -1   9  13   10.90    3.60
   3  -8 -12    7.30    3.70
  -3   8  12    9.20    5.90
  -3   8  12    8.00    4.00
  -5   7  11    8.50    7.00
  -5   7  11   -1.80    4.40
  -7   6  10    4.90    5.40
  -7   6  10    4.30    7.30
   4  11  16    3.70    5.40
   2  10  15    5.00    4.80
   0  -9 -14   22.30    4.10
   0   9  14   31.40    7.50
   0   9  14   30.80    4.40
   2  -8 -13   37.10    6.10
  -2   8  13   47.80    6.20
  -2   8  13   37.70    8.40
   4  -7 -12   15.10    5.00
  -4   7  12   13.20    4.80
  -4   7  12   26.30    7.60
  -6   6  11   37.40    7.10
  -6   6  11   33.50    8.50
  -8   5  10   11.00    7.50
  -8   5  10   13.10    6.40
   5  11  17   39.80    8.50
   3  10  16   82.39   11.80
   1   9  15   49.10    8.90
  -1   8  14   -3.80    4.80
  -1   8  14    6.10    3.20
   3  -7 -13   16.00    4.20
  -3   7  13   14.40    4.50
  -3   7  13    2.60    5.70
   5  -6 -12    7.30    3.90
  -5   6  12   -3.10    4.30
  -5   6  12   -0.20    6.00
  -7   5  11   -0.60    5.00
  -7   5  11   -6.30    6.50
   6  11  18   -2.80    5.30
   4  10  17    2.90    5.20
   2   9  16   13.90    6.10
   0  -8 -15   42.50    5.10
   0   8  15   40.40    8.30
   2  -7 -14   65.69    7.80
  -2   7  14   75.49    8.10
  -2   7  14   96.99   11.60
   4  -6 -13   73.99    9.00
  -4   6  13   72.59    9.50
  -4   6  13   69.29   10.70
  -6   5  12   36.00    9.20
  -6   5  12   55.59    8.40
  -8   4  11    3.00    5.90
  -8   4  11   -1.10    7.00
   7  11  19   -6.80    5.80
   5  10  18    3.40    5.70
   3   9  17   -0.70    5.10
   1   8  16   10.40    6.20
  -1   7  15   12.70    6.30
   3  -6 -14   -0.10    3.40
  -3   6  14    1.80    3.50
  -3   6  14   -7.30    5.30
   5  -5 -13   19.30    5.00
  -5   5  13   16.30    7.20
  -5   5  13   28.00    5.70
  -7   4  12    5.00    5.30
  -7   4  12    9.50    7.20
   6  10  19   12.50    8.50
   4   9  18    2.50    5.70
   2   8  17    9.20    6.10
   0  -7 -16    8.30    3.00
   0   7  16    2.50    5.60
   2  -6 -15   52.79    6.70
  -2   6  15   53.79    9.30
  -2   6  15   54.09    7.20
   4  -5 -14   20.80    5.20
  -4   5  14   20.60    7.40
  -6   4  13    0.20    4.60
  -6   4  13    0.40    6.70
  -8   3  12   10.20    8.80
  -8   3  12    6.40    5.80
   5   9  19   28.20    7.50
   3   8  18   20.00    6.90
   1   7  17  104.69   12.70
   1  -6 -16   35.50    6.00
  -1   6  16   36.50    8.20
   3  -5 -15   28.20    5.20
  -3   5  15   14.50    6.70
  -3   5  15   19.70    5.00
   5  -4 -14   13.50    4.80
  -5   4  14    9.80    5.00
  -5   4  14   10.50    6.70
  -7   3  13    3.30    5.30
  -7   3  13   -2.70    6.30
   6   9  20   -0.50    7.90
   4   8  19    6.60    5.70
   2   7  18   -6.30    5.60
   0  -6 -17    8.30    3.30
   0  -6 -17    3.70    3.00
   0   6  17    7.20    6.20
   2  -5 -16    4.80    4.00
   2  -5 -16    3.30    3.70
  -2   5  16    1.10    5.30
   4  -4 -15   28.60    5.90
  -4   4  15   34.30    8.10
  -4   4  15   42.90    6.60
  -6   3  14   17.90    6.10
  -6   3  14   29.10    9.10
  -8   2  13   12.50    7.00
   5   8  20   78.89   11.80
   3   7  19   63.09    9.90
  -1  -6 -18   60.79    5.30
  -1  -6 -18   39.70    5.10
   1   6  18   51.69    9.40
   1  -5 -17   57.79    7.40
   1  -5 -17   62.49    7.50
  -1   5  17   68.49   10.30
   3  -4 -16    2.80    4.00
   3  -4 -16    2.50    4.60
  -3   4  16    1.30    6.10
   5  -3 -15   -2.60    3.70
  -5   3  15   -3.80    4.90
  -5   3  15   -4.00    6.50
  -7   2  14    0.80    5.80
   6   8  21    4.90    6.40
   4   7  20    4.40    5.90
   2   6  19    0.20    6.00
   0  -5 -18   17.20    3.70
   0  -5 -18   15.10    3.80
   0   5  18    6.50    6.10
   2  -4 -17   38.90    6.60
   2  -4 -17   42.40    6.20
  -2   4  17   36.30    8.40
   4  -3 -16   30.50    7.00
  -4   3  16   33.80    8.90
   6  -2 -15   41.70    8.70
  -6   2  15   32.00    9.10
  -8   1  14   21.70    7.40
  -8   1  14   17.60    8.40
   5   7  21   -3.60    6.10
   3   6  20    6.50    5.90
  -1  -5 -19    1.00    4.00
  -1  -5 -19   -1.90    2.70
   1   5  19   -3.30    5.50
   1  -4 -18   19.80    4.50
   1  -4 -18   13.80    4.40
  -1   4  18    3.40    6.70
   3  -3 -17    4.00    4.50
   3  -3 -17    0.70    4.70
  -3   3  17    6.80    7.20
   5  -2 -16   17.90    6.60
  -5   2  16   19.60    8.50
   7  -1 -15    6.80    7.20
  -7   1  15   10.50    8.70
   6   7  22   17.00    8.20
   4   6  21   21.00    6.70
  -2  -5 -20   10.30    2.60
   2   5  20    6.30    6.50
   0  -4 -19   34.90    5.50
   0  -4 -19   30.80    5.10
   0   4  19   41.20    8.90
   2  -3 -18   42.50    6.40
   2  -3 -18   32.60    6.40
  -2   3  18   27.80    9.10
   4  -2 -17   36.70    7.40
   4  -2 -17   27.90    6.20
  -4   2  17   25.40    8.60
   6  -1 -16   -1.80    6.00
   5   6  22    1.50    7.50
   3   5  21   32.30    8.30
  -1  -4 -20   23.80    4.70
  -1  -4 -20   43.10    5.40
   1   4  20   36.00    9.00
   1  -3 -19   75.89    9.10
   1  -3 -19   68.79    8.40
  -1   3  19   81.09   12.50
   3  -2 -18   53.19    8.30
   3  -2 -18   68.09    8.80
  -3   2  18   50.19   10.40
   5  -1 -17   44.10    8.60
  -7   0  16    8.10    8.30
   4   5  22    7.50    7.20
  -2  -4 -21    8.50    3.50
  -2  -4 -21   10.60    3.70
   2   4  21    6.20    7.50
   0  -3 -20   -1.70    3.60
   0  -3 -20    0.10    3.60
   0   3  20   -4.50    6.90
   2  -2 -19    9.90    4.60
   2  -2 -19    0.40    4.20
  -2   2  19    0.00    7.00
   4  -1 -18    0.40    5.60
  -4   1  18    2.60    8.40
   6   0 -17   -4.80    6.70
  -6   0  17    9.50    7.90
   5   5  23   12.20    8.50
  -3  -4 -22    9.40    3.40
   3   4  22   11.00    7.20
  -1  -3 -21   66.89    7.40
  -1  -3 -21   43.30    6.70
   1   3  21   47.50   10.30
   1  -2 -20   36.20    6.30
   1  -2 -20   40.80    6.60
  -1   2  20   30.10    9.20
   3  -1 -19   10.60    5.00
   3  -1 -19    0.40    4.80
  -3   1  19    8.60    7.80
   5   0 -18   17.10    7.10
  -5   0  18   13.00    8.30
  -4  -4 -23    9.30    3.60
  -4  -4 -23    8.60    3.30
   4   4  23   11.10    8.50
  -2  -3 -22    9.50    4.20
  -2  -3 -22   10.10    4.00
   2   3  22    6.50    7.30
   0  -2 -21   45.80    6.80
   0  -2 -21   39.70    6.50
   0   2  21   25.90    9.10
   2  -1 -20    6.50    5.30
  -2   1  20    9.20    8.10
   4   0 -19   11.20    5.70
  -4   0  19    8.10    8.20
  -6  -1  18    2.20    8.50
  -3  -3 -23   -5.30    3.60
   3   3  23    0.00    6.40
  -1  -2 -22    0.30    4.40
  -1  -2 -22    2.00    4.20
   1   2  22    6.60    7.20
   1  -1 -21   10.50    6.10
   1  -1 -21    7.80    4.90
  -1   1  21    3.50    8.10
   3   0 -20   -2.40    5.30
  -3   0  20    5.50    8.20
   5   1 -19   23.80    7.00
  -5  -1  19    3.70    8.50
  -2  -2 -23   19.40    5.20
  -2  -2 -23   27.70    6.30
   2   2  23   19.50    8.50
   0  -1 -22   18.00    5.80
   2   0 -21   -1.50    5.00
  -2   0  21    3.90    7.50
   4   1 -20    2.40    5.70
  -4  -1  20   10.50    8.20
  -1  -1 -23    5.70    5.20
  -1  -1 -23    7.30    6.90
   1   0 -22   33.40    7.40
   1   0 -22   33.40    7.10
  -1   0  22   34.00    9.70
   3   1 -21   16.20    7.20
  -3  -1  21   40.90   11.20
   0   0 -23    3.40    5.40
   0   0 -23   -2.20    4.90
   0   0  23    2.40    8.40
   2   1 -22   -2.20    5.80
  -2  -1  22    5.70    8.90
   1 -14  -9   -2.70    4.30
  -2 -15 -11    0.50    3.80
   0 -14 -10    6.00    4.30
   0  14  10    4.20    6.00
  -2  13   9    6.60    4.60
  -2  13   9    8.60    7.00
  -1 -14 -11   23.00    5.10
   1  14  11   25.40    7.90
   1  14  11   24.60    5.20
   1 -13 -10   68.99    9.60
  -1  13  10   87.39   10.10
  -3  12   9   23.70    8.00
  -2 -14 -12    0.10    2.90
   2  14  12   -1.10    6.20
   0 -13 -11    1.50    3.50
   0  13  11    2.00    6.40
   0  13  11    2.80    3.60
   2 -12 -10    2.80    4.50
  -2  12  10    0.00    5.40
  -4  11   9    5.90    6.80
   3  14  13   35.50    8.80
   1  13  12   16.90    7.30
   1  13  12   17.20    4.00
   1 -12 -11   25.30    5.20
  -1  12  11   23.90    5.10
   3 -11 -10    9.40    4.50
  -3  11  10   14.80    5.40
  -5  10   9   -0.50    4.70
   4  14  14    6.00    6.10
  -2 -13 -13   18.70    3.30
   0 -12 -12   22.40    4.70
   0  12  12   22.60    4.80
   2 -11 -11   33.30    5.90
  -2  11  11   21.40    7.20
  -4  10  10    8.10    4.90
  -1 -12 -13    2.50    2.60
   1  12  13   -0.90    2.70
   1  12  13    8.40    7.10
   1 -11 -12   10.80    3.90
  -1  11  12    2.40    5.90
  -1  11  12    2.70    3.60
  -3  10  11    8.90    4.40
  -3  10  11    6.80    6.40
  -5   9  10    2.70    6.80
  -5   9  10   15.10    5.60
   4  13  15   40.30    9.30
   2  12  14   13.00    6.80
   0  11  13    8.80    3.80
   0  11  13    4.10    5.50
   2 -10 -12   10.20    4.10
  -2  10  12    1.30    3.80
  -2  10  12   14.50    6.50
   4  -9 -11   21.60    5.60
  -4   9  11   16.20    7.60
  -4   9  11   17.00    5.60
  -6   8  10    1.70    7.40
  -6   8  10    3.10    5.00
   5  13  16    1.60    6.10
   3  12  15   20.70    7.20
  -1 -11 -14   58.39    6.70
   1  11  14   96.09   11.70
   1  11  14   74.69    7.10
   1 -10 -13   28.70    5.70
  -1  10  13   44.90    8.70
  -1  10  13   52.19    6.30
   3  -9 -12   32.50    6.20
  -3   9  12   42.30    8.60
  -5   8  11   47.50   10.00
  -5   8  11   45.50    8.00
  -7   7  10   34.50    8.30
   4  12  16   29.50    8.80
   2  11  15    2.70    5.00
   0 -10 -14   15.30    3.70
   0  10  14   23.00    4.20
   0  10  14   22.70    7.00
   2  -9 -13    0.50    3.30
  -2   9  13    0.00    3.40
  -2   9  13    2.20    5.70
   4  -8 -12    6.20    4.40
  -4   8  12   15.40    5.10
  -4   8  12   13.10    6.80
  -6   7  11   -0.10    4.90
  -6   7  11   -3.00    6.20
   5  12  17    1.50    6.40
   3  11  16   13.00    7.60
   1  10  15   31.50    7.60
   1  -9 -14   12.50    3.60
  -1   9  14   20.80    4.40
  -1   9  14   12.00    6.40
   3  -8 -13   13.20    4.50
  -3   8  13    8.10    6.30
  -3   8  13   13.60    4.50
  -5   7  12    1.60    6.10
  -5   7  12    7.00    4.80
   4  11  17   16.20    6.70
   2  10  16   28.20    7.40
   0  -9 -15   44.20    5.60
   0   9  15   53.09    9.30
   2  -8 -14   23.60    4.80
  -2   8  14   18.40    4.70
  -2   8  14   20.50    7.50
  -4   7  13    6.60    4.40
  -4   7  13   10.60    7.30
  -6   6  12    1.00    6.70
  -6   6  12    1.50    5.30
   5  11  18   -7.20    6.50
   3  10  17   -4.10    5.30
   1   9  16   -2.40    5.70
   1  -8 -15    9.20    3.60
  -1   8  15    2.80    5.80
  -1   8  15    8.00    3.50
   3  -7 -14   10.10    4.10
  -3   7  14   17.70    4.60
  -3   7  14   11.60    7.40
  -5   6  13   -0.50    6.40
  -5   6  13   12.20    5.10
  -7   5  12    6.90    6.00
   6  11  19   23.90    7.50
   4  10  18   40.50    8.60
   2   9  17   70.49   11.20
   0  -8 -16   39.70    4.90
   0   8  16   51.49    9.10
   2  -7 -15   14.40    4.30
  -2   7  15   20.80    4.80
  -2   7  15   21.30    7.60
   4  -6 -14    3.20    4.80
  -4   6  14   -3.40    5.70
  -4   6  14    3.70    4.30
  -6   5  13   -4.80    6.30
  -6   5  13    3.90    5.10
  -8   4  12   -4.40    7.00
  -8   4  12   -0.40    5.70
   5  10  19   15.30    6.80
   3   9  18    7.50    6.20
   1   8  17   -0.70    5.40
   1  -7 -16   17.90    4.00
   1  -7 -16   14.30    4.60
  -1   7  16   23.80    7.30
   3  -6 -15   78.49    8.70
  -3   6  15   66.89    8.80
  -3   6  15   59.39   10.80
   5  -5 -14    0.10    4.30
  -5   5  14   14.50    7.00
  -5   5  14   24.30    5.50
  -7   4  13    9.40    5.90
   6  10  20    0.00    6.40
   4   9  19    5.10    5.90
   2   8  18    4.40    6.70
   0  -7 -17    2.70    2.90
   0   7  17   12.20    6.50
   2  -6 -16    6.00    3.60
  -2   6  16   -1.80    5.80
  -4   5  15    8.60    6.40
  -4   5  15   15.80    5.00
  -6   4  14   10.40    5.70
  -6   4  14    6.20    7.40
  -8   3  13   -1.70    5.80
  -8   3  13   -5.70    7.20
   5   9  20   28.60    7.90
   3   8  19    0.90    6.40
   1   7  18   19.40    7.10
   1  -6 -17    4.50    4.00
   1  -6 -17    6.90    3.30
  -1   6  17    4.10    6.40
   3  -5 -16   33.50    6.10
  -3   5  16   34.60    8.40
  -5   4  15    8.20    7.20
  -5   4  15   11.30    5.40
  -7   3  14    1.00    6.00
  -7   3  14    0.50    7.70
   6   9  21   -3.50    8.00
   4   8  20   15.80    7.30
   2   7  19   21.80    7.50
   0  -6 -18   50.59    5.80
   0  -6 -18   48.60    5.70
   0   6  18   51.69    9.60
   2  -5 -17   67.59    8.00
   2  -5 -17   53.19    8.30
  -2   5  17   61.39   11.10
   4  -4 -16   55.19    8.00
   4  -4 -16   21.40    6.20
  -4   4  16   24.50    8.70
  -6   3  15    6.70    5.70
   5   8  21   -0.60    7.90
   3   7  20   18.90    7.10
  -1  -6 -19    4.80    2.30
  -1  -6 -19    1.40    2.40
   1   6  19    1.90    6.50
   1  -5 -18    0.30    3.50
   1  -5 -18   -2.20    3.30
  -1   5  18   -8.60    5.40
   3  -4 -17   -0.30    4.00
   3  -4 -17    2.20    4.50
  -3   4  17   -9.00    6.20
   5  -3 -16   -2.20    5.50
  -5   3  16    0.50    7.10
  -7   2  15   11.80    8.60
   4   7  21    2.90    6.00
   2   6  20   60.79   11.00
   0  -5 -19   31.90    5.00
   0   5  19   26.80    7.80
   2  -4 -18   38.80    6.90
   2  -4 -18   49.80    7.30
  -2   4  18   53.29   10.30
   4  -3 -17   15.10    5.80
   4  -3 -17   26.20    7.30
  -4   3  17   30.00    9.00
   6  -2 -16   -3.70    6.20
  -6   2  16    0.70    7.50
   5   7  22    1.90    6.70
   3   6  21   -5.20    5.60
  -1  -5 -20    1.10    3.10
   1   5  20    2.90    6.20
   1  -4 -19    3.80    3.90
   1  -4 -19    3.60    3.90
  -1   4  19   -5.10    6.90
   3  -3 -18   26.60    5.80
  -3   3  18   32.70    9.40
   5  -2 -17   12.40    6.40
  -5   2  17    7.70    8.80
  -7   1  16    6.90    8.60
   4   6  22   11.70    6.90
   2   5  21    6.20    7.50
   0  -4 -20   -5.10    3.60
   0  -4 -20   -0.70    3.40
   0   4  20   -2.30    6.40
   2  -3 -19    6.70    4.50
   2  -3 -19    2.30    4.50
  -2   3  19    0.70    7.00
   4  -2 -18    5.00    5.70
   4  -2 -18    3.30    4.70
   6  -1 -17    4.30    6.40
  -6   1  17   12.40    9.30
   3   5  22   11.10    7.40
  -1  -4 -21    3.50    3.40
   1   4  21   -2.90    7.10
   1  -3 -20   14.50    4.90
   1  -3 -20   15.50    5.20
  -1   3  20   22.10    8.40
   3  -2 -19    0.10    4.60
   3  -2 -19    3.10    4.60
   5  -1 -18    9.80    6.40
  -5   1  18    3.20    8.60
   4   5  23    7.30    8.20
  -2  -4 -22   15.10    3.80
  -2  -4 -22   16.30    4.30
   2   4  22   14.50    8.30
   0  -3 -21   52.89    7.30
   0  -3 -21   42.70    6.80
   0   3  21   36.30    9.50
   2  -2 -20   35.80    7.80
   2  -2 -20   49.60    7.70
   4  -1 -19   25.50    6.70
  -4   1  19   14.80    9.30
  -3  -4 -23    6.60    3.50
   3   4  23   -6.10    6.60
  -1  -3 -22   -0.80    4.20
  -1  -3 -22    1.10    3.60
   1   3  22    8.40    8.20
   1  -2 -21    6.30    5.00
   1  -2 -21    0.10    4.80
   3  -1 -20   -1.90    5.40
  -3   1  20   -0.80    7.40
   5   0 -19    2.80    6.00
  -5   0  19    1.80    8.60
  -2  -3 -23   32.00    5.00
  -2  -3 -23   12.80    5.20
   2   3  23   19.50    8.20
   0  -2 -22   20.30    5.20
   0  -2 -22   13.20    5.40
   2  -1 -21   36.80    7.60
   2  -1 -21   37.40    7.30
  -2   1  21   33.70    9.70
   4   0 -20   11.80    6.60
  -4   0  20   33.70    9.50
  -1  -2 -23    7.50    4.90
  -1  -2 -23    4.60    4.20
   1  -1 -22   15.60    6.00
   1  -1 -22    1.00    5.20
  -1   1  22   11.50    8.90
   3   0 -21    8.80    6.20
  -3   0  21   11.50    8.50
   0  -1 -23    4.40    4.90
   0   1  23   -3.00    8.00
   2   0 -22   -6.40    5.60
  -2   0  22    0.30    7.80
  -1   0  23   10.80    9.50
   0 -14 -11    2.40    4.10
   2 -13 -10   -0.30    4.20
  -1 -14 -12    3.30    3.60
   1 -13 -11    3.90    4.50
  -3  12  10    1.20    5.10
  -3  12  10   -1.40    6.50
  -2 -14 -13   38.40    5.00
   2  14  13   33.50   10.20
   0 -13 -12   13.00    4.40
   0  13  12   12.80    7.40
   0  13  12   18.90    4.70
  -2  12  11   44.40    7.50
  -2  12  11   28.30    8.10
  -4  11  10   26.10    9.00
  -4  11  10   28.60    6.40
   3  14  14    2.30    7.30
  -1 -13 -13    0.50    2.90
   1  13  13    4.50    3.10
   1 -12 -12    2.90    3.50
  -1  12  12    3.00    6.30
  -1  12  12   -4.10    3.20
   3 -11 -11    7.60    4.50
  -3  11  11    0.30    4.00
  -3  11  11    4.40    6.90
  -5  10  10   -1.20    5.60
  -5  10  10  -10.00    6.10
   2  13  14   56.59   11.10
   0 -12 -13   51.49    6.60
   0  12  13   48.60    6.80
   0  12  13   43.00    9.70
   2 -11 -12    9.10    4.70
  -2  11  12   24.90    7.80
  -4  10  11   14.00    5.40
  -4  10  11   11.80    7.80
   3  13  15   22.10    7.60
  -1 -12 -14    3.30    2.50
   1  12  14   14.00    6.60
   1 -11 -13    6.60    3.60
  -1  11  13   -0.20    3.80
  -3  10  12   -1.60    3.90
  -5   9  11    9.50    5.50
  -5   9  11    4.00    8.20
   2  12  15    2.40    6.10
   0 -11 -14    3.40    3.30
   0  11  14   -0.70    3.10
   2 -10 -13   -2.80    3.40
  -2  10  13    2.00    4.10
   4  -9 -12    7.00    4.20
  -4   9  12   23.10    6.40
  -6   8  11   13.30    7.70
  -6   8  11    8.40    6.30
   5  13  17   33.70    8.60
   3  12  16   77.49   12.60
   1 -10 -14    2.30    3.30
  -1  10  14    2.40    3.40
  -1  10  14   -1.20    5.70
   3  -9 -13   10.90    4.30
  -3   9  13    3.10    6.70
  -3   9  13    5.60    4.50
  -5   8  12   -1.80    4.60
   2  11  16   10.40    6.40
   0 -10 -15   22.70    4.00
   0  10  15   28.60    8.10
   0  10  15   28.20    4.50
   2  -9 -14   62.29    8.50
  -2   9  14   78.49    9.10
  -2   9  14   58.89   10.80
   4  -8 -13   42.70    7.20
  -4   8  13   44.90    7.70
  -6   7  12   20.50    8.80
  -6   7  12   31.40    7.30
   5  12  18   -4.60    6.10
   3  11  17   25.10    7.50
   1  10  16    0.60    5.70
   1  -9 -15    3.20    3.00
  -1   9  15    4.20    5.90
  -1   9  15    2.40    3.20
   3  -8 -14    7.30    4.10
  -3   8  14    8.00    4.80
  -3   8  14   18.50    7.60
  -5   7  13    2.10    4.90
  -7   6  12    0.20    8.30
   2  10  17    1.00    6.30
   0  -9 -16    6.60    2.60
   0   9  16   -3.30    6.10
   2  -8 -15   26.20    4.90
  -2   8  15   24.80    5.10
  -2   8  15   30.90    8.10
   4  -7 -14   13.10    4.80
  -4   7  14    5.40    7.50
  -4   7  14   15.30    5.50
  -6   6  13   -2.00    5.20
   3  10  18   44.90    9.90
   1   9  17   41.60    8.80
   1  -8 -16   15.90    4.10
  -1   8  16   10.10    6.90
   3  -7 -15   13.50    4.30
  -3   7  15   13.40    4.70
  -3   7  15   18.90    7.40
  -5   6  14   -3.30    4.20
  -7   5  13   -6.20    7.50
   4  10  19   -4.40    5.90
   2   9  18    0.40    5.60
   0  -8 -17    0.20    2.80
   0   8  17    0.70    6.20
   2  -7 -16    1.80    3.30
  -2   7  16    3.60    6.40
   4  -6 -15    6.80    4.70
  -4   6  15   -0.80    6.60
  -4   6  15    1.10    4.60
  -6   5  14    0.50    5.00
  -6   5  14   -0.20    7.50
   5  10  20   18.20    7.10
   3   9  19   19.30    8.10
   1   8  18   81.09   12.40
   1  -7 -17   26.60    5.50
   1  -7 -17   24.00    4.60
  -1   7  17   23.10    8.50
   3  -6 -16   18.40    4.80
  -3   6  16   12.20    7.20
  -3   6  16    8.00    4.70
  -5   5  15    2.20    4.90
  -7   4  14   -1.50    8.30
   4   9  20    7.60    6.70
   2   8  19    9.00    6.80
   0  -7 -18   13.80    3.20
   0   7  18   11.60    7.10
   2  -6 -17    4.10    4.40
   2  -6 -17    3.10    3.90
  -2   6  17    9.80    6.90
   4  -5 -16   21.60    5.90
  -4   5  16   29.80    8.70
  -4   5  16   23.90    6.50
  -6   4  15   33.70    7.30
  -6   4  15   29.60   10.20
   5   9  21   -4.40    6.10
   3   8  20    1.10    6.40
   1   7  19    5.50    6.20
   1  -6 -18    4.40    3.60
   1  -6 -18   -2.10    3.60
  -1   6  18   14.20    7.20
   3  -5 -17    8.30    4.50
   3  -5 -17   17.20    5.90
  -3   5  17   -1.00    6.20
  -5   4  16   -4.20    7.30
  -5   4  16    3.10    5.10
  -7   3  15   12.20    8.90
   4   8  21    5.90    7.10
   2   7  20   18.30    7.80
   0  -6 -19    4.50    3.00
   0  -6 -19   -0.90    3.00
   0   6  19   -1.80    6.00
   2  -5 -18   22.00    5.40
   2  -5 -18   17.00    4.80
  -2   5  18   15.80    8.50
   4  -4 -17   -1.50    5.10
   4  -4 -17   -3.70    4.30
   6  -3 -16   15.90    7.00
  -6   3  16   16.90    8.70
   5   8  22    6.00    6.60
   3   7  21   15.00    8.10
  -1  -6 -20   32.10    4.40
  -1  -6 -20   37.50    4.60
   1   6  20   34.40    8.30
   1  -5 -19   48.70    6.80
   1  -5 -19   53.99    7.20
  -1   5  19   35.80    9.20
   3  -4 -18   63.29    8.70
  -5   3  17    6.60    7.30
   2   6  21    8.70    6.40
   0  -5 -20    7.30    3.50
   0   5  20    5.00    6.90
   2  -4 -19    2.60    4.40
   2  -4 -19   -3.30    4.00
   4  -3 -18   -2.70    4.20
   4  -3 -18    2.80    5.90
  -4   3  18    0.90    8.00
   6  -2 -17    2.40    6.70
  -6   2  17    8.60    8.50
   3   6  22   28.90    9.90
  -1  -5 -21   42.70    6.50
  -1  -5 -21   52.69    6.30
   1   5  21   52.29   11.80
   1  -4 -20   68.59    8.50
   1  -4 -20   57.69    8.20
  -1   4  20   43.90   10.90
   3  -3 -19   32.40    7.20
   3  -3 -19   31.60    7.40
  -3   3  19   40.50   10.60
   5  -2 -18    7.00    6.70
  -5   2  18   22.40    8.90
   4   6  23   -0.80    6.60
  -2  -5 -22   -0.40    2.60
   2   5  22   -5.90    6.60
   0  -4 -21    2.90    3.90
   0  -4 -21    6.60    4.20
   0   4  21    7.60    8.70
   2  -3 -20    3.80    4.80
   2  -3 -20   -4.30    4.30
  -2   3  20  -12.80    7.10
   4  -2 -19   22.20    6.80
  -4   2  19   14.10    9.20
   3   5  23   12.80    8.60
  -1  -4 -22    1.80    3.50
   1  -3 -21   -3.30    4.40
   1  -3 -21   -0.50    4.50
  -1   3  21   -5.30    7.50
   3  -2 -20    5.70    5.40
   3  -2 -20    3.40    5.10
  -3   2  20   -3.40    7.60
  -2  -4 -23   19.00    4.20
  -2  -4 -23   23.30    4.90
   0  -3 -22    8.30    4.80
   0  -3 -22    5.20    4.40
   0   3  22    3.60    7.70
   2  -2 -21    7.90    5.90
   2  -2 -21   11.10    5.70
  -2   2  21    2.30    8.10
   4  -1 -20    1.20    5.80
  -4   1  20   -2.90    8.00
  -1  -3 -23    6.60    4.20
  -1  -3 -23    8.00    4.90
   1   3  23   18.40    8.60
   1  -2 -22   19.40    6.20
   1  -2 -22   16.50    6.60
  -1   2  22   12.00    8.00
   3  -1 -21   31.90    7.70
  -3   1  21   35.90   10.40
   0  -2 -23    1.40    5.70
   0  -2 -23   -1.30    5.50
   0   2  23    3.30    8.40
   2  -1 -22    1.00    5.80
  -2   1  22   13.60    8.90
   1  -1 -23   13.00    5.90
   1  -1 -23    2.70    5.60
  -1   1  23   25.30   10.40
   1 -13 -12    4.60    4.30
   0 -13 -13    0.70    3.50
   0  13  13    2.70    7.00
  -2  12  12   -3.30    6.20
  -1 -13 -14   34.00    4.90
   1  13  14   54.69   11.40
   1 -12 -13   26.10    5.60
  -1  12  13   27.10    8.50
  -1  12  13   34.10    6.40
   3 -11 -12   19.80    5.70
  -3  11  12   38.70    9.50
  -3  11  12   36.60    6.70
   2  13  15    8.50    6.50
   0 -12 -14    3.80    3.60
   0  12  14    2.50    5.80
   0  12  14    1.50    3.50
   2 -11 -13    4.30    4.00
  -2  11  13    6.30    7.00
  -4  10  12   -5.80    7.00
   3  13  16    3.20    6.40
   1  12  15   58.09   10.50
   1 -11 -14   50.49    7.60
  -1  11  14   71.09    8.30
  -1  11  14   75.29   12.10
   3 -10 -13   13.30    5.10
  -3  10  13   17.30    8.60
  -3  10  13   28.40    5.80
  -5   9  12   20.10    6.80
  -5   9  12   10.60    9.40
   0 -11 -15    6.00    3.10
   0  11  15    2.50    5.50
   0  11  15    6.40    3.40
   2 -10 -14    6.10    3.70
  -2  10  14   10.90    7.30
  -2  10  14    0.40    3.90
  -4   9  13    6.40    5.10
  -4   9  13    2.50    7.00
   1  11  16   -1.00    5.70
   1 -10 -15   -1.50    3.10
  -1  10  15    0.90    3.60
  -1  10  15   -7.50    6.80
   3  -9 -14    9.70    4.50
  -3   9  14    6.30    6.70
  -3   9  14    7.50    4.70
  -5   8  13   -0.80    7.60
  -5   8  13   -4.50    4.70
   0 -10 -16   26.20    4.20
   2  -9 -15    2.80    3.90
  -2   9  15    4.00    4.00
   4  -8 -14    6.50    4.60
  -4   8  14   -0.20    4.60
  -4   8  14    1.90    8.10
  -6   7  13   -9.10    7.10
   3  11  18    3.60    6.20
   1  -9 -16   36.50    5.30
   3  -8 -15   39.10    6.70
  -5   7  14   53.69    9.10
  -5   7  14   46.00   10.10
   0  -9 -17    3.50    2.50
   2  -8 -16   -1.80    3.40
  -2   8  16   -1.20    3.70
   4  -7 -15    8.90    4.70
  -4   7  15   25.90    8.80
  -4   7  15   21.40    5.90
  -6   6  14  -18.40    7.00
  -6   6  14    9.10    5.70
   1   9  18   -6.30    6.40
   1  -8 -17    4.10    4.30
   1  -8 -17    9.30    3.80
   3  -7 -16   15.00    4.80
  -5   6  15    6.60    7.60
  -5   6  15    5.80    5.20
   0  -8 -18   54.19    6.30
   0   8  18   95.69   13.80
   2  -7 -17   11.60    5.00
   2  -7 -17   12.90    4.40
   4  -6 -16   12.70    5.10
  -4   6  16    5.00    7.00
  -4   6  16   10.20    5.40
  -6   5  15   -8.10    4.90
  -6   5  15   10.40    8.10
   1   8  19   -0.90    7.30
   1  -7 -18   -2.40    3.90
   1  -7 -18   -5.90    3.30
   3  -6 -17    5.60    5.30
   3  -6 -17    3.40    4.40
  -3   6  17   -2.50    7.00
  -5   5  16    2.30    7.20
  -5   5  16   -2.70    5.20
   2   8  20   41.90   10.20
   0  -7 -19   47.60    5.50
   2  -6 -18   24.80    5.30
   2  -6 -18   23.20    6.30
   4  -5 -17    6.20    5.00
  -4   5  17    6.00    8.60
  -6   4  16    0.80    9.30
  -6   4  16    6.10    6.20
   1   7  20   -3.10    7.30
   1  -6 -19   11.00    3.90
   1  -6 -19    4.20    4.00
   3  -5 -18   17.10    5.30
  -3   5  18   14.90    8.00
   5  -4 -17   20.40    6.70
  -5   4  17    0.60    8.90
   0  -6 -20    3.20    3.40
   0  -6 -20    6.70    3.30
   2  -5 -19    3.00    4.40
   2  -5 -19    3.10    4.70
   4  -4 -18    3.80    6.20
   4  -4 -18    4.00    5.20
  -4   4  18   -0.50    9.60
   6  -3 -17    3.80    6.80
  -1  -6 -21   13.70    3.40
   1  -5 -20    2.00    4.10
   1  -5 -20    6.30    4.30
   3  -4 -19   15.70    5.90
  -3   4  19   12.30    8.80
   5  -3 -18    2.60    6.10
  -5   3  18   -0.40    7.60
   0  -5 -21   24.90    5.30
   0  -5 -21   22.90    5.00
   0   5  21   22.70    9.30
   2  -4 -20   29.60    6.30
   2  -4 -20   20.60    6.10
  -2   4  20   24.40    9.90
   4  -3 -19   37.30    8.70
  -4   3  19   56.99   12.10
  -1  -5 -22   -0.50    3.10
  -1  -5 -22    5.20    3.50
   1   5  22   -5.30    7.60
   1  -4 -21    3.40    4.30
   1  -4 -21   -2.10    4.40
  -1   4  21   -4.10    7.70
   3  -3 -20    5.70    5.10
   3  -3 -20    0.70    5.30
  -3   3  20    6.60    8.10
   5  -2 -19    5.00    6.00
   2   5  23    1.50    7.70
   0  -4 -22   26.00    5.70
   0  -4 -22   45.10    6.60
   0   4  22   19.20    9.20
   2  -3 -21   31.10    7.20
  -2   3  21   25.70    9.60
   4  -2 -20   29.10    8.00
  -1  -4 -23   -2.50    3.70
  -1  -4 -23    7.10    4.30
   1   4  23    3.80    9.00
   1  -3 -22    6.50    5.20
  -1   3  22   -2.60    7.70
   3  -2 -21    3.60    5.90
   0  -3 -23    0.00    5.30
   0  -3 -23    3.60    4.50
   0   3  23    4.30   10.20
   2  -2 -22    1.30    5.50
   2  -2 -22    0.70    5.60
   1 -12 -14    5.80    3.90
   3 -11 -13    2.10    4.00
  -3  11  13    9.70    5.70
   0  12  15   30.10    8.90
   2 -11 -14   18.80    5.20
   1 -11 -15    3.40    3.70
   3 -10 -14    4.60    4.30
  -3  10  14   -1.70    6.90
   2  12  17   33.70    9.10
   0 -11 -16   20.30    4.20
   0  11  16   47.60    9.80
   2 -10 -15   35.30    6.50
  -2  10  15   43.80    7.20
  -4   9  14   28.20    9.50
  -4   9  14   31.20    7.10
   3  12  18    4.80    6.80
   1  11  17   29.90    9.10
   1 -10 -16   11.00    3.70
  -1  10  16   14.80    7.70
  -1  10  16    8.00    4.50
   3  -9 -15    6.40    5.40
  -3   9  15    7.30    7.60
  -5   8  14   -5.40    6.80
   2  11  18    3.80    7.20
   0 -10 -17    1.20    2.60
   0  10  17  -10.20    5.70
   2  -9 -16    7.60    4.00
  -2   9  16   -0.90    4.40
  -2   9  16   -2.60    6.70
   4  -8 -15    5.10    4.60
  -4   8  15    2.60    4.90
  -4   8  15   -2.40    7.70
   1  10  18   57.69   10.90
   1  -9 -17   57.79    7.10
  -1   9  17   61.69   11.30
   3  -8 -16   11.90    4.50
  -3   8  16    3.70    4.80
  -3   8  16    6.40    7.30
  -5   7  15  -13.60    7.40
  -5   7  15   -1.40    5.00
   0  -9 -18    4.20    2.50
   0   9  18   14.30    8.20
   2  -8 -17   31.80    5.60
  -2   8  17   16.20    8.50
   4  -7 -16   19.30    5.50
  -4   7  16   33.30    6.80
   3  10  20   23.10    9.50
   1   9  19    5.90    7.50
   1  -8 -18   -6.90    4.60
   1  -8 -18   -1.70    3.60
   3  -7 -17   10.10    4.40
  -3   7  17    7.50    7.70
  -5   6  16    7.10    7.50
   2   9  20    4.50    7.40
   0  -8 -19    5.00    2.90
   0   8  19   -1.80    6.80
   2  -7 -18    5.40    4.00
   2  -7 -18    1.00    4.80
  -2   7  18    2.50    7.00
   4  -6 -17    6.30    4.50
  -4   6  17    9.70    9.30
   3   9  21   13.20    8.40
   1   8  20   13.70    7.50
   1  -7 -19    5.00    4.70
   1  -7 -19   17.20    4.60
  -1   7  19   20.50    9.50
   3  -6 -18   20.60    5.50
  -3   6  18   26.80    8.70
  -5   5  17    4.90    8.40
   2   8  21    4.70    7.20
   0  -7 -20   -1.30    4.20
   0  -7 -20    1.50    2.80
   0   7  20    2.90    7.00
   2  -6 -19    2.20    4.00
   2  -6 -19   -1.20    4.40
  -2   6  19   -5.60    6.00
   4  -5 -18    6.00    5.70
  -4   5  18    5.20    8.10
   3   8  22   38.90    9.10
   1   7  21   32.80    9.10
   1  -6 -20   24.30    5.10
   1  -6 -20   13.10    5.00
  -1   6  20   31.50    8.90
   3  -5 -19   40.10    8.30
  -3   5  19   46.20   11.80
   2   7  22    2.40    8.20
   0  -6 -21    2.90    3.30
   0   6  21   -0.20    6.80
   2  -5 -20    5.20    5.10
   2  -5 -20   -0.20    4.30
  -2   5  20   -3.90    7.10
   4  -4 -19    9.20    6.60
  -1  -6 -22   10.40    3.20
   1   6  22   18.30    8.00
   1  -5 -21    1.90    4.40
   1  -5 -21   -4.90    4.20
  -1   5  21   -1.40    7.70
   3  -4 -20   -0.80    5.00
   3  -4 -20    1.20    5.40
  -3   4  20    0.70    8.10
   2   6  23    6.40    9.80
   0  -5 -22   20.30    5.10
   0  -5 -22   16.70    4.50
   0   5  22   30.40    9.40
   2  -4 -21    1.80    5.00
  -2   4  21    1.20    8.30
  -1  -5 -23    9.00    4.40
  -1  -5 -23    2.20    3.50
   1   5  23    5.10    9.40
   1  -4 -22   16.50    5.90
   1  -4 -22   23.70    6.60
  -1   4  22   30.30   10.90
   3  -3 -21    8.20    6.20
   1 -11 -16    5.00    3.70
  -1  11  16    9.40    4.50
   0 -11 -17   -0.40    2.60
   2 -10 -16   10.10    4.50
   1 -10 -17   34.30    5.40
  -1  10  17   34.30   11.10
   0 -10 -18   19.50    3.50
   0  10  18   22.00    8.60
   2  -9 -17   17.60    5.10
  -2   9  17   11.20   10.00
   1  -9 -18    1.40    4.70
   1  -9 -18   -1.40    3.10
  -3   8  17   -3.20    5.00
   2  -8 -18   53.19    8.50
   2  -8 -18   44.10    7.00
  -2   8  18   32.20   10.20
  -4   7  17   14.60    6.00
   1   9  20    1.10    7.60
   1  -8 -19   -0.50    3.60
   1  -8 -19   -2.70    4.00
  -1   8  19    8.40    7.50
   2   9  21   11.00    7.90
   0  -8 -20   -2.60    3.70
   0  -8 -20    6.30    3.10
   0   8  20   20.90    8.40
   2  -7 -19   -1.40    4.20
   2  -7 -19  -11.60    5.20
  -2   7  19   11.70    8.00
   4  -6 -18    2.20    6.10
   1  -7 -20    3.10    4.00
   1  -7 -20   -1.30    3.60
  -1   7  20   -2.80    6.80
   0  -7 -21    3.30    3.10
   2  -6 -20   18.00    6.00
   2  -6 -20   21.10    5.80
   1  -6 -21   -0.60    4.30
   1  -6 -21    1.40    4.00
  -1   6  21    5.10    8.40
   3  -5 -20    7.60    5.30
   3  -5 -20    0.90    5.90
   0  -6 -22   39.40    5.70
   2  -5 -21   27.20    7.10
   2  -5 -21   26.10    6.30
   0   0   0    0.00    0.00

_computing_structure_solution     'SHELXT 2018/2 (Sheldrick, 2018)'
;
_shelx_hkl_checksum    7548

