 
data_pvl854B_autored_a
 
_audit_creation_method            'SHELXL-2018/3'
_shelx_SHELXL_version_number      '2018/3'
_chemical_name_systematic         ?
_chemical_name_common             ?
_chemical_melting_point           ?
_chemical_formula_moiety          ?
_chemical_formula_sum
 'C H N O S Zn' 
_chemical_formula_weight          140.46

loop_
 _atom_type_symbol
 _atom_type_description
 _atom_type_scat_dispersion_real
 _atom_type_scat_dispersion_imag
 _atom_type_scat_source
 'C'  'C'   0.0033   0.0016
 'International Tables Vol C Tables 4.2.6.8 and 6.1.1.4'
 'H'  'H'   0.0000   0.0000
 'International Tables Vol C Tables 4.2.6.8 and 6.1.1.4'
 'N'  'N'   0.0061   0.0033
 'International Tables Vol C Tables 4.2.6.8 and 6.1.1.4'
 'O'  'O'   0.0106   0.0060
 'International Tables Vol C Tables 4.2.6.8 and 6.1.1.4'
 'S'  'S'   0.1246   0.1234
 'International Tables Vol C Tables 4.2.6.8 and 6.1.1.4'
 'Zn'  'Zn'   0.2839   1.4301
 'International Tables Vol C Tables 4.2.6.8 and 6.1.1.4'
 
_space_group_crystal_system       monoclinic
_space_group_IT_number            15
_space_group_name_H-M_alt         'C 2/c'
_space_group_name_Hall            '-C 2yc'
 
_shelx_space_group_comment
;
The symmetry employed for this shelxl refinement is uniquely defined
by the following loop, which should always be used as a source of
symmetry information in preference to the above space-group names.
They are only intended as comments.
;
 
loop_
 _space_group_symop_operation_xyz
 'x, y, z'
 '-x, y, -z+1/2'
 'x+1/2, y+1/2, z'
 '-x+1/2, y+1/2, -z+1/2'
 '-x, -y, -z'
 'x, -y, z-1/2'
 '-x+1/2, -y+1/2, -z'
 'x+1/2, -y+1/2, z-1/2'
 
_cell_length_a                    21.5415(8)
_cell_length_b                    14.0978(5)
_cell_length_c                    15.9870(6)
_cell_angle_alpha                 90
_cell_angle_beta                  90.944(3)
_cell_angle_gamma                 90
_cell_volume                      4854.4(3)
_cell_formula_units_Z             54
_cell_measurement_temperature     130(2)
_cell_measurement_reflns_used     ?
_cell_measurement_theta_min       ?
_cell_measurement_theta_max       ?
 
_exptl_crystal_description        ?
_exptl_crystal_colour             ?
_exptl_crystal_density_meas       ?
_exptl_crystal_density_method     ?
_exptl_crystal_density_diffrn     2.595          
_exptl_crystal_F_000              3672
_exptl_transmission_factor_min    ?
_exptl_transmission_factor_max    ?
_exptl_crystal_size_max           ?
_exptl_crystal_size_mid           ?
_exptl_crystal_size_min           ?
_exptl_absorpt_coefficient_mu     7.182
_shelx_estimated_absorpt_T_min    ?
_shelx_estimated_absorpt_T_max    ?
_exptl_absorpt_correction_type    ?
_exptl_absorpt_correction_T_min   ?
_exptl_absorpt_correction_T_max   ?
_exptl_absorpt_process_details    ?
_exptl_absorpt_special_details    ?
_diffrn_ambient_temperature       130(2)
_diffrn_radiation_wavelength      0.71073
_diffrn_radiation_type            MoK\a
_diffrn_source                    ?
_diffrn_measurement_device_type   ?
_diffrn_measurement_method        ?
_diffrn_detector_area_resol_mean  ?
_diffrn_reflns_number             12743
_diffrn_reflns_av_unetI/netI      0.0224
_diffrn_reflns_av_R_equivalents   0.0172
_diffrn_reflns_limit_h_min        -26
_diffrn_reflns_limit_h_max        20
_diffrn_reflns_limit_k_min        -19
_diffrn_reflns_limit_k_max        13
_diffrn_reflns_limit_l_min        -16
_diffrn_reflns_limit_l_max        20
_diffrn_reflns_theta_min          2.136
_diffrn_reflns_theta_max          29.122
_diffrn_reflns_theta_full         25.242
_diffrn_measured_fraction_theta_max   0.831
_diffrn_measured_fraction_theta_full  0.999
_diffrn_reflns_Laue_measured_fraction_max    0.831
_diffrn_reflns_Laue_measured_fraction_full   0.999
_diffrn_reflns_point_group_measured_fraction_max   0.831
_diffrn_reflns_point_group_measured_fraction_full  0.999
_reflns_number_total              5429
_reflns_number_gt                 4839
_reflns_threshold_expression      'I > 2\s(I)'
_reflns_Friedel_coverage          0.000
_reflns_Friedel_fraction_max      .
_reflns_Friedel_fraction_full     .
 
_reflns_special_details
;
 Reflections were merged by SHELXL according to the crystal
 class for the calculation of statistics and refinement.
 
 _reflns_Friedel_fraction is defined as the number of unique
 Friedel pairs measured divided by the number that would be
 possible theoretically, ignoring centric projections and
 systematic absences.
;
 
_computing_data_collection        ?
_computing_cell_refinement        ?
_computing_data_reduction         ?
_computing_structure_solution     'SHELXT 2014/5 (Sheldrick, 2014)'
_computing_structure_refinement 'SHELXL-2018/3 (Sheldrick, 2018)'
_computing_molecular_graphics     ?
_computing_publication_material   ?
_refine_special_details           ?
_refine_ls_structure_factor_coef  Fsqd
_refine_ls_matrix_type            full
_refine_ls_weighting_scheme       calc
_refine_ls_weighting_details
'w=1/[\s^2^(Fo^2^)+(0.1000P)^2^] where P=(Fo^2^+2Fc^2^)/3'
_atom_sites_solution_primary      ?
_atom_sites_solution_secondary    ?
_atom_sites_solution_hydrogens    geom
_refine_ls_hydrogen_treatment     constr
_refine_ls_extinction_method      none
_refine_ls_extinction_coef        .
_refine_ls_number_reflns          5429
_refine_ls_number_parameters      325
_refine_ls_number_restraints      0
_refine_ls_R_factor_all           0.0925
_refine_ls_R_factor_gt            0.0869
_refine_ls_wR_factor_ref          0.3428
_refine_ls_wR_factor_gt           0.3352
_refine_ls_goodness_of_fit_ref    2.941
_refine_ls_restrained_S_all       2.941
_refine_ls_shift/su_max           0.065
_refine_ls_shift/su_mean          0.012
 
loop_
 _atom_site_label
 _atom_site_type_symbol
 _atom_site_fract_x
 _atom_site_fract_y
 _atom_site_fract_z
 _atom_site_U_iso_or_equiv
 _atom_site_adp_type
 _atom_site_occupancy
 _atom_site_site_symmetry_order  
 _atom_site_calc_flag
 _atom_site_refinement_flags_posn
 _atom_site_refinement_flags_adp
 _atom_site_refinement_flags_occupancy
 _atom_site_disorder_assembly
 _atom_site_disorder_group
Zn01 Zn 0.10142(3) 0.24910(4) 0.50393(4) 0.0151(3) Uani 1 1 d . . . . .
S002 S 0.22021(6) 0.77988(10) 0.35847(8) 0.0190(4) Uani 1 1 d . . . . .
O003 O 0.1287(2) 0.2650(3) 0.3169(3) 0.0251(9) Uani 1 1 d . . . . .
O004 O 0.08776(19) -0.1694(3) 0.1032(3) 0.0299(10) Uani 1 1 d . . . . .
O005 O 0.18965(19) -0.1886(3) 0.1051(3) 0.0280(9) Uani 1 1 d . . . . .
N006 N 0.1306(2) 0.3818(3) 0.5113(3) 0.0177(9) Uani 1 1 d . . . . .
N007 N 0.1934(2) 0.5027(3) 0.4965(3) 0.0157(9) Uani 1 1 d . . . . .
O8 O 0.1428(2) 0.1675(3) 0.4237(3) 0.0390(12) Uani 1 1 d . . . . .
N009 N 0.4171(2) 0.7033(3) 0.4338(3) 0.0189(9) Uani 1 1 d . . . . .
N00A N 0.2940(2) 0.7717(3) 0.3754(3) 0.0186(10) Uani 1 1 d . . . . .
N00B N 0.5119(3) 0.7547(3) 0.4580(4) 0.0236(12) Uani 1 1 d . . . . .
N00C N 0.1953(2) 0.6846(3) 0.4041(3) 0.0186(10) Uani 1 1 d . . . . .
C00D C 0.3030(2) 0.6906(4) 0.4177(3) 0.0148(10) Uani 1 1 d . . . . .
C00E C 0.2483(2) 0.5541(4) 0.4800(3) 0.0152(10) Uani 1 1 d . . . . .
C00F C 0.1875(2) 0.4080(4) 0.4909(3) 0.0164(10) Uani 1 1 d . . . . .
H00F H 0.219570 0.365791 0.474738 0.020 Uiso 1 1 calc R U . . .
C00G C 0.2463(2) 0.6410(4) 0.4344(3) 0.0155(10) Uani 1 1 d . . . . .
C00H C 0.1374(2) 0.1868(4) 0.3468(3) 0.0209(11) Uani 1 1 d . . . . .
C00I C 0.3613(2) 0.6531(4) 0.4463(3) 0.0159(10) Uani 1 1 d . . . . .
C00J C 0.2002(2) 0.0595(4) 0.2715(3) 0.0181(11) Uani 1 1 d . . . . .
C00K C 0.3608(2) 0.5681(4) 0.4868(3) 0.0192(11) Uani 1 1 d . . . . .
H00K H 0.399219 0.540630 0.503875 0.023 Uiso 1 1 calc R U . . .
C00L C 0.3050(2) 0.5192(4) 0.5044(3) 0.0181(11) Uani 1 1 d . . . . .
H00L H 0.307077 0.460757 0.533831 0.022 Uiso 1 1 calc R U . . .
C00M C 0.4328(3) 0.7619(4) 0.3672(4) 0.0184(11) Uani 1 1 d . . . . .
H00M H 0.407495 0.776884 0.319809 0.022 Uiso 1 1 calc R U . . .
C00N C 0.1420(2) 0.1000(4) 0.2902(3) 0.0202(11) Uani 1 1 d . . . . .
C00O C 0.2025(3) -0.0266(4) 0.2227(3) 0.0197(11) Uani 1 1 d . . . . .
C00P C 0.2621(2) -0.0680(4) 0.2114(3) 0.0190(11) Uani 1 1 d . . . . .
H00P H 0.264748 -0.126921 0.182936 0.023 Uiso 1 1 calc R U . . .
C00Q C 0.0988(3) 0.4632(4) 0.5303(4) 0.0240(12) Uani 1 1 d . . . . .
H00Q H 0.056736 0.465973 0.546856 0.029 Uiso 1 1 calc R U . . .
C00R C 0.1419(2) -0.1469(4) 0.1306(3) 0.0186(11) Uani 1 1 d . . . . .
C00S C 0.1371(3) 0.5392(4) 0.5217(4) 0.0249(13) Uani 1 1 d . . . . .
H00S H 0.127216 0.604004 0.531090 0.030 Uiso 1 1 calc R U . . .
C00T C 0.1458(3) -0.0662(4) 0.1912(3) 0.0217(11) Uani 1 1 d . . . . .
C00U C 0.4902(3) 0.7926(4) 0.3828(3) 0.0225(12) Uani 1 1 d . . . . .
H00U H 0.512929 0.834147 0.347913 0.027 Uiso 1 1 calc R U . . .
C00V C 0.4670(3) 0.7018(4) 0.4863(3) 0.0230(12) Uani 1 1 d . . . . .
H00V H 0.469211 0.666891 0.537060 0.028 Uiso 1 1 calc R U . . .
C00W C 0.2568(3) 0.1012(4) 0.3008(3) 0.0200(11) Uani 1 1 d . . . . .
H00W H 0.255284 0.158989 0.331312 0.024 Uiso 1 1 calc R U . . .
C00X C 0.0894(3) -0.0236(5) 0.2136(3) 0.0268(12) Uani 1 1 d . . . . .
H00X H 0.051362 -0.051566 0.195714 0.032 Uiso 1 1 calc R U . . .
C00Y C 0.3160(3) -0.0259(4) 0.2402(4) 0.0243(12) Uani 1 1 d . . . . .
H00Y H 0.355115 -0.054089 0.229573 0.029 Uiso 1 1 calc R U . . .
C00Z C 0.0885(3) 0.0581(5) 0.2612(4) 0.0309(14) Uani 1 1 d . . . . .
H00Z H 0.049709 0.085943 0.274287 0.037 Uiso 1 1 calc R U . . .
C010 C 0.3122(3) 0.0612(4) 0.2864(3) 0.0233(12) Uani 1 1 d . . . . .
H010 H 0.349048 0.090641 0.306997 0.028 Uiso 1 1 calc R U . . .
 
loop_
 _atom_site_aniso_label
 _atom_site_aniso_U_11
 _atom_site_aniso_U_22
 _atom_site_aniso_U_33
 _atom_site_aniso_U_23
 _atom_site_aniso_U_13
 _atom_site_aniso_U_12
Zn01 0.0156(5) 0.0126(5) 0.0171(5) 0.0001(2) -0.0007(3) -0.00355(19)
S002 0.0187(7) 0.0177(7) 0.0205(7) 0.0045(6) -0.0028(5) -0.0012(5)
O003 0.030(2) 0.020(2) 0.025(2) -0.0028(18) 0.0025(18) 0.0013(17)
O004 0.026(2) 0.035(2) 0.029(2) -0.0152(19) 0.0029(16) -0.0011(18)
O005 0.027(2) 0.025(2) 0.032(2) -0.0122(19) -0.0008(17) 0.0049(17)
N006 0.020(2) 0.014(2) 0.019(2) 0.0023(18) 0.0014(16) -0.0024(17)
N007 0.014(2) 0.011(2) 0.022(2) -0.0036(18) 0.0012(16) -0.0010(16)
O8 0.067(3) 0.030(2) 0.020(2) -0.0055(19) -0.009(2) 0.022(2)
N009 0.017(2) 0.019(2) 0.021(2) -0.0003(19) -0.0013(16) -0.0021(17)
N00A 0.020(2) 0.017(2) 0.019(2) -0.0014(19) -0.0024(18) -0.0014(18)
N00B 0.017(3) 0.028(3) 0.026(3) 0.0084(19) -0.005(2) -0.0060(17)
N00C 0.016(2) 0.019(2) 0.021(2) -0.0021(19) -0.0008(16) 0.0000(17)
C00D 0.017(2) 0.013(2) 0.014(2) 0.000(2) 0.0000(18) -0.0009(19)
C00E 0.013(2) 0.013(2) 0.020(2) -0.003(2) 0.0013(17) -0.0015(17)
C00F 0.016(2) 0.013(2) 0.021(2) 0.001(2) 0.0013(18) -0.0026(19)
C00G 0.017(2) 0.015(2) 0.014(2) -0.002(2) -0.0023(17) -0.0014(19)
C00H 0.019(3) 0.023(3) 0.020(3) -0.004(2) 0.001(2) 0.004(2)
C00I 0.013(2) 0.016(2) 0.018(2) -0.001(2) 0.0016(17) -0.0009(18)
C00J 0.021(3) 0.023(3) 0.010(2) 0.003(2) 0.0023(18) 0.002(2)
C00K 0.018(3) 0.015(2) 0.024(3) 0.002(2) -0.002(2) 0.001(2)
C00L 0.018(3) 0.016(2) 0.020(2) 0.002(2) 0.0005(18) 0.000(2)
C00M 0.018(3) 0.019(2) 0.019(3) 0.004(2) 0.002(2) 0.0026(19)
C00N 0.028(3) 0.014(3) 0.019(2) -0.002(2) -0.002(2) 0.003(2)
C00O 0.027(3) 0.019(3) 0.012(2) 0.007(2) 0.0025(19) 0.000(2)
C00P 0.022(3) 0.017(2) 0.017(2) 0.000(2) -0.0011(19) 0.001(2)
C00Q 0.017(3) 0.017(3) 0.038(3) -0.001(2) 0.006(2) -0.002(2)
C00R 0.023(3) 0.019(3) 0.013(2) 0.003(2) -0.0010(18) 0.003(2)
C00S 0.020(3) 0.014(2) 0.041(3) -0.001(2) 0.007(2) 0.000(2)
C00T 0.025(3) 0.021(3) 0.019(2) 0.001(2) 0.000(2) 0.005(2)
C00U 0.021(3) 0.023(3) 0.024(3) 0.007(2) 0.002(2) -0.002(2)
C00V 0.022(3) 0.024(3) 0.023(3) 0.005(2) -0.007(2) -0.009(2)
C00W 0.028(3) 0.016(2) 0.016(2) 0.000(2) 0.0004(19) 0.001(2)
C00X 0.023(3) 0.031(3) 0.026(3) -0.010(3) -0.006(2) 0.001(2)
C00Y 0.024(3) 0.021(3) 0.028(3) 0.004(2) -0.001(2) 0.005(2)
C00Z 0.023(3) 0.036(3) 0.033(3) -0.009(3) 0.002(2) 0.011(3)
C010 0.027(3) 0.024(3) 0.018(2) -0.006(2) -0.003(2) -0.006(2)
 
_geom_special_details
;
 All esds (except the esd in the dihedral angle between two l.s. planes)
 are estimated using the full covariance matrix.  The cell esds are taken
 into account individually in the estimation of esds in distances, angles
 and torsion angles; correlations between esds in cell parameters are only
 used when they are defined by crystal symmetry.  An approximate (isotropic)
 treatment of cell esds is used for estimating esds involving l.s. planes.
;
 
loop_
 _geom_bond_atom_site_label_1
 _geom_bond_atom_site_label_2
 _geom_bond_distance
 _geom_bond_site_symmetry_2
 _geom_bond_publ_flag
Zn01 O8 1.950(4) . ?
Zn01 O004 1.970(4) 6_556 ?
Zn01 N006 1.977(4) . ?
Zn01 N00B 2.054(5) 3_445 ?
S002 N00C 1.623(5) . ?
S002 N00A 1.612(5) . ?
O003 C00H 1.215(7) . ?
O004 C00R 1.279(7) . ?
O005 C00R 1.258(7) . ?
N006 C00F 1.326(6) . ?
N006 C00Q 1.372(7) . ?
N007 C00F 1.345(7) . ?
N007 C00S 1.383(7) . ?
N007 C00E 1.416(6) . ?
O8 C00H 1.262(7) . ?
N009 C00V 1.353(7) . ?
N009 C00M 1.394(7) . ?
N009 C00I 1.412(7) . ?
N00A C00D 1.340(7) . ?
N00B C00V 1.306(7) . ?
N00B C00U 1.390(8) . ?
N00C C00G 1.342(6) . ?
C00D C00I 1.432(7) . ?
C00D C00G 1.437(7) . ?
C00E C00L 1.367(7) . ?
C00E C00G 1.426(7) . ?
C00F H00F 0.9500 . ?
C00H C00N 1.527(7) . ?
C00I C00K 1.362(7) . ?
C00J C00N 1.413(7) . ?
C00J C00W 1.426(8) . ?
C00J C00O 1.446(7) . ?
C00K C00L 1.418(7) . ?
C00K H00K 0.9500 . ?
C00L H00L 0.9500 . ?
C00M C00U 1.330(8) . ?
C00M H00M 0.9500 . ?
C00N C00Z 1.368(8) . ?
C00O C00P 1.424(7) . ?
C00O C00T 1.426(8) . ?
C00P C00Y 1.375(8) . ?
C00P H00P 0.9500 . ?
C00Q C00S 1.361(8) . ?
C00Q H00Q 0.9500 . ?
C00R C00T 1.496(8) . ?
C00S H00S 0.9500 . ?
C00T C00X 1.406(8) . ?
C00U H00U 0.9500 . ?
C00V H00V 0.9500 . ?
C00W C010 1.343(8) . ?
C00W H00W 0.9500 . ?
C00X C00Z 1.381(9) . ?
C00X H00X 0.9500 . ?
C00Y C010 1.437(8) . ?
C00Y H00Y 0.9500 . ?
C00Z H00Z 0.9500 . ?
C010 H010 0.9500 . ?
 
loop_
 _geom_angle_atom_site_label_1
 _geom_angle_atom_site_label_2
 _geom_angle_atom_site_label_3
 _geom_angle
 _geom_angle_site_symmetry_1
 _geom_angle_site_symmetry_3
 _geom_angle_publ_flag
O8 Zn01 O004 105.6(2) . 6_556 ?
O8 Zn01 N006 116.7(2) . . ?
O004 Zn01 N006 122.92(18) 6_556 . ?
O8 Zn01 N00B 103.0(2) . 3_445 ?
O004 Zn01 N00B 99.07(19) 6_556 3_445 ?
N006 Zn01 N00B 106.31(18) . 3_445 ?
N00C S002 N00A 101.4(2) . . ?
C00R O004 Zn01 105.6(3) . 6 ?
C00F N006 C00Q 106.8(4) . . ?
C00F N006 Zn01 122.9(4) . . ?
C00Q N006 Zn01 130.2(4) . . ?
C00F N007 C00S 107.9(4) . . ?
C00F N007 C00E 125.0(4) . . ?
C00S N007 C00E 127.1(4) . . ?
C00H O8 Zn01 118.5(4) . . ?
C00V N009 C00M 106.4(4) . . ?
C00V N009 C00I 125.1(4) . . ?
C00M N009 C00I 128.5(4) . . ?
C00D N00A S002 106.2(4) . . ?
C00V N00B C00U 106.2(5) . . ?
C00V N00B Zn01 123.4(4) . 3 ?
C00U N00B Zn01 128.6(4) . 3 ?
C00G N00C S002 105.5(3) . . ?
N00A C00D C00I 126.5(5) . . ?
N00A C00D C00G 113.2(4) . . ?
C00I C00D C00G 120.3(4) . . ?
C00L C00E N007 120.6(5) . . ?
C00L C00E C00G 118.3(5) . . ?
N007 C00E C00G 121.0(4) . . ?
N006 C00F N007 110.2(5) . . ?
N006 C00F H00F 124.9 . . ?
N007 C00F H00F 124.9 . . ?
N00C C00G C00E 126.6(5) . . ?
N00C C00G C00D 113.7(4) . . ?
C00E C00G C00D 119.7(4) . . ?
O003 C00H O8 126.1(5) . . ?
O003 C00H C00N 120.4(5) . . ?
O8 C00H C00N 113.5(5) . . ?
C00K C00I N009 121.4(5) . . ?
C00K C00I C00D 117.6(5) . . ?
N009 C00I C00D 121.0(5) . . ?
C00N C00J C00W 121.4(5) . . ?
C00N C00J C00O 119.4(5) . . ?
C00W C00J C00O 119.1(5) . . ?
C00I C00K C00L 122.4(5) . . ?
C00I C00K H00K 118.8 . . ?
C00L C00K H00K 118.8 . . ?
C00E C00L C00K 121.7(5) . . ?
C00E C00L H00L 119.2 . . ?
C00K C00L H00L 119.2 . . ?
C00U C00M N009 106.6(5) . . ?
C00U C00M H00M 126.7 . . ?
N009 C00M H00M 126.7 . . ?
C00Z C00N C00J 120.0(5) . . ?
C00Z C00N C00H 118.9(5) . . ?
C00J C00N C00H 121.0(5) . . ?
C00P C00O C00T 124.3(5) . . ?
C00P C00O C00J 116.8(5) . . ?
C00T C00O C00J 118.8(5) . . ?
C00Y C00P C00O 122.6(5) . . ?
C00Y C00P H00P 118.7 . . ?
C00O C00P H00P 118.7 . . ?
C00S C00Q N006 109.4(5) . . ?
C00S C00Q H00Q 125.3 . . ?
N006 C00Q H00Q 125.3 . . ?
O005 C00R O004 121.2(5) . . ?
O005 C00R C00T 121.9(5) . . ?
O004 C00R C00T 116.9(5) . . ?
C00Q C00S N007 105.7(5) . . ?
C00Q C00S H00S 127.1 . . ?
N007 C00S H00S 127.1 . . ?
C00X C00T C00O 118.8(5) . . ?
C00X C00T C00R 116.7(5) . . ?
C00O C00T C00R 124.4(5) . . ?
C00M C00U N00B 109.6(5) . . ?
C00M C00U H00U 125.2 . . ?
N00B C00U H00U 125.2 . . ?
N00B C00V N009 111.2(5) . . ?
N00B C00V H00V 124.4 . . ?
N009 C00V H00V 124.4 . . ?
C010 C00W C00J 121.9(5) . . ?
C010 C00W H00W 119.1 . . ?
C00J C00W H00W 119.1 . . ?
C00T C00X C00Z 121.1(5) . . ?
C00T C00X H00X 119.5 . . ?
C00Z C00X H00X 119.4 . . ?
C00P C00Y C010 119.1(5) . . ?
C00P C00Y H00Y 120.5 . . ?
C010 C00Y H00Y 120.5 . . ?
C00N C00Z C00X 121.8(5) . . ?
C00N C00Z H00Z 119.1 . . ?
C00X C00Z H00Z 119.1 . . ?
C00W C010 C00Y 120.3(5) . . ?
C00W C010 H010 119.8 . . ?
C00Y C010 H010 119.8 . . ?
 
_refine_diff_density_max    7.389
_refine_diff_density_min   -0.645
_refine_diff_density_rms    0.271

_shelx_res_file
;
TITL pvl854B_autored_a.res in C2/c
    pvl854B_autored_a.res
    created by SHELXL-2018/3 at 13:11:09 on 14-Mar-2022
REM Old TITL pvl854B_autored in C2/c
REM SHELXT solution in C2/c
REM R1 0.090,  Rweak 0.004,  Alpha 0.027,  Orientation as input
REM Formula found by SHELXT:  C52 N15 O6 S2 Zn2
CELL  0.71073  21.5415  14.0978  15.9870   90.000   90.944   90.000
ZERR   54.000   0.0008   0.0005   0.0006    0.000    0.003    0.000
LATT  7
SYMM -X, Y, 1/2-Z
SFAC C H N O S ZN
UNIT 54.00 54.00 54.00 54.00 54.00 54.00
ACTA
LIST 4 ! automatically inserted. Change 6 to 4 for CHECKCIF!!
TEMP -143
L.S. 6
BOND $H
FMAP 2
PLAN 20
WGHT    0.100000
FVAR       0.19583
ZN01  6    0.101424    0.249102    0.503932    11.00000    0.01556    0.01259 =
         0.01712    0.00014   -0.00072   -0.00355
S002  5    0.220207    0.779877    0.358465    11.00000    0.01874    0.01770 =
         0.02046    0.00453   -0.00279   -0.00124
O003  4    0.128669    0.265000    0.316934    11.00000    0.03030    0.02047 =
         0.02461   -0.00280    0.00247    0.00134
O004  4    0.087764   -0.169408    0.103197    11.00000    0.02556    0.03471 =
         0.02949   -0.01516    0.00289   -0.00113
O005  4    0.189650   -0.188624    0.105098    11.00000    0.02690    0.02471 =
         0.03245   -0.01222   -0.00083    0.00492
N006  3    0.130600    0.381823    0.511268    11.00000    0.01991    0.01416 =
         0.01906    0.00229    0.00136   -0.00239
N007  3    0.193382    0.502716    0.496453    11.00000    0.01409    0.01090 =
         0.02225   -0.00361    0.00123   -0.00102
O8    4    0.142799    0.167480    0.423653    11.00000    0.06661    0.03034 =
         0.01977   -0.00546   -0.00883    0.02234
N009  3    0.417113    0.703348    0.433835    11.00000    0.01679    0.01880 =
         0.02090   -0.00031   -0.00128   -0.00208
N00A  3    0.293972    0.771718    0.375372    11.00000    0.01980    0.01684 =
         0.01908   -0.00137   -0.00241   -0.00139
N00B  3    0.511891    0.754665    0.458044    11.00000    0.01683    0.02806 =
         0.02575    0.00841   -0.00494   -0.00599
N00C  3    0.195295    0.684632    0.404080    11.00000    0.01632    0.01899 =
         0.02060   -0.00206   -0.00075    0.00002
C00D  1    0.302955    0.690650    0.417661    11.00000    0.01722    0.01305 =
         0.01416    0.00038   -0.00005   -0.00089
C00E  1    0.248317    0.554083    0.480005    11.00000    0.01282    0.01312 =
         0.01957   -0.00326    0.00127   -0.00147
C00F  1    0.187530    0.407958    0.490911    11.00000    0.01551    0.01266 =
         0.02098    0.00133    0.00128   -0.00261
AFIX  43
H00F  2    0.219570    0.365791    0.474738    11.00000   -1.20000
AFIX   0
C00G  1    0.246266    0.640955    0.434380    11.00000    0.01727    0.01483 =
         0.01420   -0.00193   -0.00228   -0.00142
C00H  1    0.137407    0.186804    0.346787    11.00000    0.01922    0.02310 =
         0.02032   -0.00444    0.00059    0.00426
C00I  1    0.361300    0.653115    0.446298    11.00000    0.01306    0.01642 =
         0.01837   -0.00130    0.00156   -0.00086
C00J  1    0.200187    0.059534    0.271544    11.00000    0.02084    0.02323 =
         0.01044    0.00347    0.00228    0.00172
C00K  1    0.360796    0.568130    0.486793    11.00000    0.01829    0.01528 =
         0.02399    0.00204   -0.00248    0.00097
AFIX  43
H00K  2    0.399219    0.540630    0.503875    11.00000   -1.20000
AFIX   0
C00L  1    0.305014    0.519226    0.504374    11.00000    0.01758    0.01628 =
         0.02030    0.00156    0.00052   -0.00044
AFIX  43
H00L  2    0.307077    0.460757    0.533831    11.00000   -1.20000
AFIX   0
C00M  1    0.432836    0.761879    0.367174    11.00000    0.01797    0.01865 =
         0.01850    0.00393    0.00159    0.00259
AFIX  43
H00M  2    0.407495    0.776884    0.319809    11.00000   -1.20000
AFIX   0
C00N  1    0.142012    0.099979    0.290150    11.00000    0.02755    0.01425 =
         0.01877   -0.00233   -0.00182    0.00278
C00O  1    0.202512   -0.026615    0.222652    11.00000    0.02733    0.01937 =
         0.01248    0.00660    0.00250    0.00009
C00P  1    0.262095   -0.067956    0.211420    11.00000    0.02230    0.01713 =
         0.01738    0.00033   -0.00108    0.00094
AFIX  43
H00P  2    0.264748   -0.126921    0.182936    11.00000   -1.20000
AFIX   0
C00Q  1    0.098846    0.463183    0.530285    11.00000    0.01748    0.01663 =
         0.03821   -0.00117    0.00642   -0.00236
AFIX  43
H00Q  2    0.056736    0.465973    0.546856    11.00000   -1.20000
AFIX   0
C00R  1    0.141924   -0.146901    0.130599    11.00000    0.02316    0.01933 =
         0.01334    0.00325   -0.00100    0.00289
C00S  1    0.137103    0.539243    0.521698    11.00000    0.02043    0.01388 =
         0.04069   -0.00077    0.00738    0.00002
AFIX  43
H00S  2    0.127216    0.604004    0.531090    11.00000   -1.20000
AFIX   0
C00T  1    0.145843   -0.066164    0.191225    11.00000    0.02479    0.02123 =
         0.01903    0.00126    0.00045    0.00471
C00U  1    0.490219    0.792612    0.382813    11.00000    0.02052    0.02311 =
         0.02406    0.00750    0.00203   -0.00156
AFIX  43
H00U  2    0.512929    0.834147    0.347913    11.00000   -1.20000
AFIX   0
C00V  1    0.467049    0.701837    0.486287    11.00000    0.02215    0.02413 =
         0.02254    0.00528   -0.00668   -0.00933
AFIX  43
H00V  2    0.469211    0.666891    0.537060    11.00000   -1.20000
AFIX   0
C00W  1    0.256786    0.101235    0.300796    11.00000    0.02847    0.01586 =
         0.01578    0.00020    0.00037    0.00128
AFIX  43
H00W  2    0.255284    0.158989    0.331312    11.00000   -1.20000
AFIX   0
C00X  1    0.089448   -0.023629    0.213631    11.00000    0.02267    0.03106 =
         0.02648   -0.01000   -0.00595    0.00096
AFIX  43
H00X  2    0.051362   -0.051566    0.195714    11.00000   -1.20000
AFIX   0
C00Y  1    0.315959   -0.025924    0.240163    11.00000    0.02417    0.02056 =
         0.02817    0.00408   -0.00088    0.00515
AFIX  43
H00Y  2    0.355115   -0.054089    0.229573    11.00000   -1.20000
AFIX   0
C00Z  1    0.088520    0.058079    0.261248    11.00000    0.02334    0.03600 =
         0.03328   -0.00912    0.00185    0.01127
AFIX  43
H00Z  2    0.049709    0.085943    0.274287    11.00000   -1.20000
AFIX   0
C010  1    0.312176    0.061201    0.286443    11.00000    0.02713    0.02420 =
         0.01847   -0.00584   -0.00276   -0.00600
AFIX  43
H010  2    0.349048    0.090641    0.306997    11.00000   -1.20000
AFIX   0
HKLF 4




REM  pvl854B_autored_a.res in C2/c
REM wR2 = 0.3428, GooF = S = 2.941, Restrained GooF = 2.941 for all data
REM R1 = 0.0869 for 4839 Fo > 4sig(Fo) and 0.0925 for all 5429 data
REM 325 parameters refined using 0 restraints

END

WGHT      0.1761     77.4207

REM Highest difference peak  7.389,  deepest hole -0.645,  1-sigma level  0.271
Q1    1   0.5000  0.9769  0.2500  10.50000  0.05    7.39
Q2    1   0.4899  0.0608  0.2347  11.00000  0.05    3.87
Q3    1  -0.0511  0.4145  0.6461  11.00000  0.05    3.79
Q4    1   0.5000  0.1327  0.2500  10.50000  0.05    3.59
Q5    1   0.4851  0.1257  0.2288  11.00000  0.05    3.41
Q6    1   0.0271 -0.2738  0.2726  11.00000  0.05    2.83
Q7    1   0.1202  0.1535  0.4258  11.00000  0.05    0.94
Q8    1   0.0000  0.0226  0.2500  10.50000  0.05    0.69
Q9    1   0.3130  0.0263  0.2588  11.00000  0.05    0.66
Q10   1   0.0124 -0.0485  0.2647  11.00000  0.05    0.63
Q11   1   0.0897 -0.1540  0.0872  11.00000  0.05    0.61
Q12   1   0.1366  0.0768  0.3008  11.00000  0.05    0.60
Q13   1  -0.0346  0.3793  0.6001  11.00000  0.05    0.57
Q14   1   0.2768 -0.0471  0.2158  11.00000  0.05    0.55
Q15   1   0.2437  0.1244  0.2865  11.00000  0.05    0.52
Q16   1   0.0000 -0.1271  0.2500  10.50000  0.05    0.51
Q17   1   0.2789  0.5356  0.4936  11.00000  0.05    0.51
Q18   1   0.1443  0.1425  0.2971  11.00000  0.05    0.49
Q19   1   0.1492  0.2395  0.3220  11.00000  0.05    0.47
Q20   1   0.4530  0.5955  0.6494  11.00000  0.05    0.46
;
_shelx_res_checksum   99414

_shelx_hkl_file
;
   0   0   2 3336.43   48.44
   0   0  -2 3336.25   48.45
   0   0   3    1.23    0.48
   0   0  -3    0.65    0.43
   0   0   4 6540.94   94.98
   0   0   5    2.22    0.75
   0   0  -5    0.66    0.59
   0   0   6 2022.26   30.35
   0   0  -6 1954.08   30.34
   0   0   7    0.90    0.65
   0   0  -7    6.16    0.85
   0   0   8 4309.88   63.77
   0   0  -8 4235.87   63.77
   0   0   9    2.81    0.87
   0   0  -9    2.21    0.74
   0   0  10 1929.82   30.56
   0   0 -10 1910.25   30.55
   0   0  11    2.66    0.93
   0   0 -11    1.41    0.64
   0   0  12  379.82    8.52
   0   0  13    0.88    0.86
   0   0  13   -0.61    1.26
   0   0  14 1753.11   29.48
   0   0  14 1774.87   32.50
   0   0  15    4.28    1.18
   0   0  15    3.97    1.20
   0   0  15    1.76    1.56
   0   0  16  399.84   12.13
   0   0  16  406.38    9.77
   0   0  17    2.60    1.84
   0   0  17    1.29    0.97
   0   0  18   98.97    6.06
   0   0  18   94.17    4.30
   0   0  19    0.04    1.74
   0  -2   0 3538.45   51.06
   0   2   0 3452.33   51.08
   0   2   1  517.66    8.10
   0  -2  -1  528.76    8.12
   0   2  -1  516.83    8.68
   0  -2   1  514.76    8.68
   0   2  -2 5537.35   81.79
   0  -2   2 5656.65   81.79
   0  -2   3    6.74    1.14
   0   2  -3    6.83    0.93
   0  -2   3    4.78    1.00
   0   2  -3    8.25    1.01
   0   2  -4 7956.35  115.40
   0   2  -4 7937.26  115.28
   0  -2   4 8019.43  115.41
   0  -2   4 7642.97  115.22
   0   2  -5 2252.21   34.40
   0  -2   5 2302.92   34.43
   0   2  -5 2216.34   34.05
   0  -2   5 2055.82   33.85
   0  -2  -6  571.11    9.19
   0   2  -6  572.59   10.94
   0  -2   6  604.55   11.39
   0  -2   6  605.58   10.98
   0   2   6  588.89    9.20
   0  -2   7  384.29    8.49
   0  -2  -7  366.54    6.37
   0   2  -7  368.51    7.98
   0  -2   7  376.10    7.94
   0   2   7  368.12    6.35
   0  -2  -8  399.97    7.15
   0  -2   8  409.87    9.36
   0   2  -8  397.49    8.71
   0  -2   8  413.53    8.79
   0   2   8  413.83    7.15
   0   2  -9  122.29    4.19
   0  -2   9  120.63    4.62
   0  -2   9  121.10    4.15
   0   2   9  122.57    3.06
   0   2 -10   93.13    3.74
   0  -2  10   95.37    4.29
   0  -2  10   94.68    3.77
   0   2  10   98.08    2.79
   0  -2  11  179.52    5.62
   0   2 -11  173.46    5.52
   0  -2  11  185.72    6.43
   0   2  11  176.53    5.10
   0   2  11  181.70    4.34
   0  -2  12  269.72    7.47
   0   2 -12  276.07    7.52
   0  -2  12  281.77    8.55
   0   2  12  268.87    6.95
   0   2  12  283.25    6.11
   0   2  13   -0.63    0.61
   0  -2  13    0.43    0.97
   0  -2  13   -0.83    1.26
   0   2  13   -0.45    0.84
   0  -2  14  272.96    7.90
   0  -2  14  284.87    9.23
   0   2  14  260.65    7.37
   0   2  14  282.90    6.42
   0  -2  15  139.59    5.51
   0  -2  15  141.96    6.51
   0   2  15  127.44    5.02
   0   2  15  137.93    4.14
   0  -2  16  425.31   11.02
   0  -2  16  435.79   12.90
   0   2  16  425.60   10.61
   0   2  16  434.69    9.06
   0  -2  17    2.98    1.30
   0  -2  17    2.76    1.87
   0  -2  18   17.03    2.19
   0   2  18   18.34    2.83
   0  -2  18   21.12    2.99
   0  -2  19   23.93    2.58
   0   2  19   29.40    3.54
   0  -2  19   22.77    3.23
   0  -4   0 7031.38  103.33
   0   4   0 7118.07  103.31
   0  -4  -1  346.07    6.52
   0  -4   1  357.72    7.10
   0   4   1  361.32    6.55
   0   4  -1  352.27    7.03
   0  -4  -2 1016.35   15.78
   0  -4   2 1007.50   17.00
   0   4  -2 1011.41   17.00
   0  -4   3    3.40    1.20
   0  -4  -3    2.24    0.49
   0   4  -3    3.99    0.99
   0  -4   4 1991.14   32.60
   0  -4  -4 2112.16   30.15
   0   4  -4 1972.04   32.61
   0   4  -4 1951.48   32.47
   0  -4   5  987.52   17.35
   0   4  -5  991.58   17.40
   0   4  -5  973.32   17.35
   0  -4   6 2439.59   38.87
   0   4  -6 2456.99   38.97
   0   4  -6 2462.89   39.02
   0  -4   7  198.76    5.79
   0   4   7  195.10    3.66
   0   4  -7  199.69    5.83
   0   4  -7  204.29    5.95
   0  -4   8 2907.54   45.89
   0   4   8 2874.39   42.84
   0   4  -8 2908.67   46.39
   0  -4   8 2920.47   46.41
   0   4  -8 2927.34   46.02
   0  -4   9  748.53   14.90
   0   4   9  734.21   12.30
   0   4  -9  755.02   14.96
   0  -4   9  764.86   15.33
   0  -4  10  226.22    6.80
   0   4  10  222.90    4.92
   0   4 -10  222.11    6.75
   0  -4  10  216.12    7.05
   0  -4  11  383.49    9.78
   0   4  11  389.92    7.77
   0   4 -11  397.88    9.95
   0  -4  11  395.16   10.44
   0  -4  12  305.45    8.66
   0   4  12  301.17    6.78
   0   4 -12  308.06    8.66
   0  -4  12  317.36    9.41
   0  -4  13   18.78    2.19
   0   4  13   17.75    1.47
   0  -4  13   19.33    2.47
   0  -4  14  306.45    9.16
   0   4  14  314.70    7.45
   0  -4  14  327.52   10.30
   0  -4  15   17.15    2.25
   0   4  15   21.25    1.81
   0  -4  15   20.17    2.85
   0  -4  16  250.65    8.52
   0  -4  16  256.53    9.66
   0  -4  17    4.70    1.70
   0  -4  17    1.74    1.74
   0  -4  18   76.27    4.74
   0  -4  18   82.74    5.60
   0  -4  19    2.18    1.51
   0  -4  20   60.04    4.45
   0  -6   0 1594.73   25.55
   0   6   0 1584.23   25.60
   0  -6   1 1146.12   19.43
   0  -6  -1 1145.62   18.85
   0   6  -1 1143.68   19.43
   0   6  -2    8.89    1.23
   0  -6  -2    9.44    1.03
   0  -6   2    7.68    1.25
   0  -6  -3   27.91    1.43
   0  -6   3   30.49    2.20
   0  -6  -3   28.35    1.06
   0   6  -3   28.04    2.03
   0   6  -4 2524.46   40.59
   0  -6   4 2556.88   40.51
   0  -6  -4 2546.25   38.01
   0   6  -5  467.21   10.36
   0  -6  -5  459.45    7.66
   0  -6   5  443.24   10.14
   0   6  -6 3966.44   61.04
   0   6  -6 3901.85   60.89
   0  -6   6 3876.41   60.87
   0   6  -7   19.27    2.01
   0   6  -7   19.94    2.00
   0  -6   7   18.91    2.00
   0   6  -8  729.33   15.29
   0   6  -8  738.43   15.36
   0  -6   8  724.15   15.16
   0   6  -9   22.03    2.28
   0   6  -9   25.73    2.32
   0  -6   9   23.73    2.30
   0   6 -10  428.43   10.95
   0  -6  10  429.68   11.04
   0  -6  11   56.12    3.60
   0  -6  12   11.50    2.04
   0   6  12   10.63    0.65
   0  -6  13  152.73    6.52
   0   6  13  167.64    3.60
   0  -6  14  346.86   10.57
   0   6  14  368.07    6.87
   0  -6  15   30.44    3.08
   0  -6  16  210.47    8.27
   0  -6  17   13.74    2.42
   0  -6  18   24.17    3.06
   0  -6  19    8.89    2.14
   0  -6  20   55.07    4.59
   0  -8   0  126.90    4.30
   0  -8   1    3.97    1.13
   0   8  -1    6.11    1.21
   0  -8  -1    2.75    0.94
   0  -8   2 1106.98   20.07
   0  -8  -2 1091.26   18.89
   0   8  -2 1141.95   20.25
   0  -8  -3  824.18   14.31
   0  -8   3  795.34   15.81
   0  -8  -3  796.97   13.27
   0   8  -3  833.11   16.04
   0  -8   4 1344.69   24.28
   0  -8  -4 1350.15   21.86
   0  -8  -4 1357.24   20.63
   0   8  -4 1398.19   24.45
   0  -8  -5  311.41    6.31
   0  -8   5  314.71    8.59
   0   8  -5  326.42    8.65
   0  -8   6 2233.53   37.91
   0  -8  -6 2241.03   33.85
   0   8  -6 2302.06   38.12
   0  -8   7   47.74    3.21
   0  -8  -7   47.15    1.36
   0   8  -7   54.88    3.37
   0   8  -7   53.64    3.37
   0  -8   8  593.80   13.76
   0  -8   9  114.78    5.33
   0  -8  10  152.32    6.45
   0  -8  11   45.69    3.62
   0  -8  12  213.06    8.07
   0  -8  13   63.25    4.41
   0  -8  14  311.57   10.49
   0  -8  15    5.36    2.07
   0  -8  16  532.29   15.02
   0  -8  17   26.63    3.36
   0  -8  18  138.99    7.39
   0  -8  19    3.42    2.19
   0 -10   0  973.32   18.38
   0 -10   1  683.21   14.28
   0 -10  -1  680.63   13.73
   0 -10   2  398.18   10.09
   0 -10  -2  404.94    9.17
   0 -10  -2  405.44    8.37
   0 -10   3    7.44    1.57
   0 -10  -3    4.91    1.07
   0 -10  -3    4.65    0.73
   0 -10   4 1050.66   20.96
   0 -10  -4 1071.51   18.73
   0 -10  -4 1090.88   17.29
   0 -10   5   62.54    3.73
   0 -10  -5   70.62    2.77
   0 -10  -5   65.27    1.65
   0 -10   6  325.66    9.53
   0 -10  -6  320.78    6.79
   0 -10   7   27.67    2.86
   0 -10  -7   32.72    1.53
   0 -10   8  167.66    6.89
   0 -10  -8  166.95    3.27
   0 -10   9  201.51    7.91
   0 -10  10   36.54    3.54
   0 -10  11   46.60    3.90
   0 -10  12   68.50    4.81
   0 -10  13   49.43    4.35
   0 -10  14   57.49    4.61
   0 -10  15   40.78    4.10
   0 -10  16   82.79    5.83
   0 -12   0  240.06    7.55
   0 -12   0  242.74    6.92
   0 -12   1   71.12    4.01
   0 -12  -1   73.47    3.87
   0 -12  -1   69.69    3.25
   0 -12   2  507.04   12.60
   0 -12  -2  511.00   11.65
   0 -12  -2  509.65   10.56
   0 -12   3  153.04    6.37
   0 -12  -3  164.51    5.52
   0 -12  -3  168.06    4.65
   0 -12  -4  358.81    8.76
   0 -12   4  343.86   10.40
   0 -12  -4  373.47    7.39
   0 -12  -5  600.59   12.06
   0 -12   5  574.79   14.64
   0 -12  -5  592.39    9.92
   0 -12  -6  331.06    7.57
   0 -12   6  318.81   10.30
   0 -12   7   44.68    3.83
   0 -12  -7   43.01    2.08
   0 -12   8   93.95    5.52
   0 -12  -8  100.33    2.86
   0 -12   9    3.09    1.75
   0 -12  10  534.44   15.04
   0 -12  11    3.42    1.77
   0 -12  12  296.24   11.01
   0 -12  13   56.68    4.77
   0 -12  14  100.37    6.46
   0 -14   0  245.56    8.22
   0 -14   0  239.50    7.34
   0 -14  -1  242.21    8.01
   0 -14   1  246.24    8.44
   0 -14   1  254.53    7.87
   0 -14  -1  253.03    7.26
   0 -14   2  405.97   11.66
   0 -14  -2  409.50   10.87
   0 -14  -2  433.34    9.79
   0 -14   3    2.40    1.61
   0 -14  -3    3.67    1.38
   0 -14   4  525.75   14.20
   0 -14  -4  532.77   12.15
   0 -14  -5    1.25    0.83
   0 -14   5    5.50    1.80
   0 -14  -6  133.90    4.73
   0 -14   6  134.52    6.79
   0 -14   7   -0.56    1.76
   0 -14   8  104.07    6.20
   0 -14   9  133.46    7.15
   0 -14  10  381.57   13.04
   0 -14  11    1.46    1.67
   0 -16   0  176.63    7.38
   0 -16   1    5.66    1.79
   0 -16  -1    8.80    1.96
   0 -16   2  297.26   10.26
   0 -16  -2  286.41    9.19
   0 -16   3   66.42    4.75
   0 -16  -3   68.92    4.12
   0 -16   4  396.25   12.72
   0 -16  -4  407.74   10.81
   0 -16   5    2.06    1.51
   0 -16   6  135.80    7.27
   0 -16   7   10.22    2.36
   0 -16   8   92.02    6.19
   0 -18   0   78.28    5.15
   0 -18  -1   14.01    2.32
   0 -18   1   19.22    2.88
   0 -18   2  237.76    9.50
   0 -18   3    4.06    2.15
   0 -18   4  187.50    8.76
  -1  -1  19  109.23    6.58
  -1   1  19  109.34    6.55
  -1   1  18   23.24    3.24
  -1  -1  18   24.23    3.32
  -1  -1  18   18.61    2.24
  -1  -1  17  147.96    7.26
  -1   1  17  153.51    7.32
  -1  -1  17  163.97    6.01
  -1   1  17  155.08    5.15
  -1   1  16    1.11    1.04
  -1  -1  16   -0.01    1.10
  -1   1  16   -0.91    1.51
  -1  -1  16   -0.68    1.59
  -1   1  16    0.03    0.86
  -1  -1  15   39.18    2.78
  -1  -1  15   35.03    3.31
  -1   1  15   38.05    2.71
  -1   1  15   40.85    2.41
  -1  -1  14   41.98    3.51
   1   1 -14   39.49    2.63
  -1  -1  14   40.03    2.68
  -1   1  14   40.79    2.33
  -1  -1  13   18.08    2.32
   1   1 -13   14.25    1.56
  -1   1  13   17.98    1.58
  -1  -1  13   16.64    1.80
   1  -1 -12    4.52    0.88
  -1  -1  12    6.48    1.67
   1   1 -12    4.11    1.04
  -1   1  12    5.09    0.93
  -1  -1  12    0.91    0.87
   1   1 -11  336.58    8.05
  -1  -1  11  355.91    9.32
   1  -1 -11  325.92    7.24
  -1   1  11  346.75    7.40
  -1  -1  11  329.37    7.99
   1   1 -10   31.24    2.02
   1  -1 -10   30.45    1.70
  -1  -1  10   31.46    2.49
  -1  -1  10   32.95    2.09
  -1   1  10   30.43    1.71
   1   1  -9  690.37   13.13
   1  -1  -9  704.64   12.35
  -1  -1   9  712.31   14.29
  -1  -1   9  699.13   13.11
  -1   1   9  719.32   12.36
   1   1  -8  327.45    7.18
  -1  -1   8  330.93    8.01
   1  -1  -8  313.88    6.42
  -1  -1   8  328.42    7.17
  -1   1   8  327.97    6.49
  -1  -1   7  218.98    5.92
   1  -1  -7  214.93    4.67
  -1  -1   7  228.56    5.38
   1   1  -7  218.96    5.33
  -1   1   7  227.60    4.73
  -1  -1   6   97.46    3.39
  -1   1   6   94.71    2.50
   1   1  -6   86.93    2.91
  -1  -1   6   95.19    3.04
   1  -1  -6   93.57    2.47
  -1  -1   5 4874.95   69.65
  -1   1   5 4746.97   68.14
   1  -1  -5 4544.37   68.08
  -1  -1   5 4780.91   69.08
   1   1  -5 4497.98   68.95
  -1  -1   4    1.60    0.89
   1   1  -4    1.17    0.65
  -1  -1   4    0.86    0.79
  -1   1   4    1.43    0.50
   1  -1  -4    1.73    0.47
  -1  -1   3 1288.63   19.47
  -1  -1   3 1254.72   19.29
   1   1  -3 1230.73   19.26
   1  -1  -3 1225.05   18.53
  -1   1   3 1248.68   18.53
  -1  -1   2   71.21    1.94
   1   1  -2   70.92    1.92
  -1  -1   2   70.19    1.91
   1   1  -2   71.84    1.92
   1   1  -1  378.04    6.67
  -1  -1   1  450.30    6.78
   1  -1   1    4.21    0.47
   1  -1   2  544.29    8.94
   1  -1   2  552.45    8.90
  -1   1  -2  535.46    8.93
   1   1   3   40.87    1.25
   1  -1   3   42.78    1.68
  -1   1  -3   39.42    1.66
  -1   1  -3   40.72    1.54
   1  -1   3   41.17    1.60
   1   1   4  434.53    6.94
   1   1   4  413.61    7.36
   1  -1   4  445.04    8.16
  -1   1  -4  431.76    7.82
   1  -1   4  442.77    7.83
   1   1   5 2204.59   32.76
   1  -1   5 2227.56   33.76
   1   1   5 2192.43   33.35
   1  -1   5 2281.89   34.40
  -1   1  -5 2187.92   33.73
   1   1   6  110.28    2.63
   1  -1   6  114.04    3.31
  -1   1  -6  105.44    3.21
   1  -1   6  109.08    3.70
   1   1   7  166.92    3.72
   1  -1   7  156.61    4.29
  -1   1  -7  158.44    4.29
   1  -1   7  170.53    4.99
   1   1   8   35.81    1.60
   1  -1   8   35.81    2.02
  -1   1  -8   33.92    1.88
   1  -1   8   37.67    2.43
   1  -1   9 1015.80   17.63
   1   1   9 1019.37   16.69
   1   1   9 1002.30   17.54
   1  -1   9 1021.63   18.93
   1  -1  10   54.03    2.67
   1   1  10   56.57    2.26
   1   1  10   55.37    2.65
   1  -1  10   56.37    3.25
   1   1  11 1733.41   27.26
   1  -1  11 1682.76   28.24
   1   1  11 1691.76   28.38
   1  -1  11 1710.85   30.02
   1  -1  12   53.20    2.83
   1   1  12   51.36    2.42
   1   1  12   52.28    2.82
   1  -1  12   50.68    3.44
   1  -1  13  216.48    6.31
   1   1  13  218.48    5.65
   1   1  13  205.88    6.38
   1  -1  13  217.66    6.95
   1  -1  13  218.29    7.58
   1  -1  14    7.94    1.34
   1   1  14    9.34    1.26
   1   1  14    8.64    1.42
   1  -1  14   12.00    1.69
   1  -1  14    8.19    1.83
   1   1  15  115.49    4.08
   1  -1  15  102.90    4.44
   1   1  15  106.50    4.69
   1  -1  15  103.91    5.63
   1  -1  16    1.27    1.06
   1   1  16    2.79    0.99
   1   1  16    1.88    1.74
   1  -1  16    5.60    2.03
   1   1  16    1.67    1.06
   1  -1  17  141.32    7.04
   1   1  17  146.59    7.18
   1  -1  17  137.92    5.43
   1   1  17  142.57    4.82
   1  -1  18    5.30    1.40
   1   1  18    4.90    2.10
   1  -1  18    4.32    2.07
   1  -1  19  142.40    7.56
   1   1  19  139.72    7.48
  -1  -3  19   20.59    2.56
  -1  -3  19   19.12    3.00
  -1  -3  18    7.06    1.72
  -1  -3  18    5.44    2.05
  -1  -3  17  131.45    5.86
  -1  -3  17  134.00    6.92
  -1  -3  16   70.10    4.16
  -1   3  16   71.42    3.56
  -1  -3  16   71.03    4.88
  -1  -3  15   79.28    4.29
  -1   3  15   76.10    3.58
  -1  -3  15   81.78    5.00
  -1  -3  14    1.07    1.18
  -1   3  14    1.50    0.87
  -1  -3  14   -0.69    1.46
   1   3 -14   -0.55    0.87
  -1  -3  13   12.05    1.70
   1   3 -13   12.39    1.66
  -1  -3  13   10.40    2.00
  -1   3  13   10.05    1.27
  -1  -3  12  202.59    6.53
   1   3 -12  201.34    6.51
  -1  -3  12  213.77    7.32
  -1   3  12  204.35    5.53
  -1   3  12  215.78    4.63
  -1  -3  11 1014.59   19.89
   1   3 -11  994.96   19.00
  -1  -3  11  998.62   18.96
  -1   3  11 1005.86   16.07
  -1  -3  10  228.21    6.63
   1   3 -10  237.74    6.77
  -1  -3  10  230.59    7.12
   1  -3 -10  230.58    4.63
  -1  -3   9   80.64    3.55
   1  -3  -9   79.41    2.10
  -1  -3   9   75.03    3.69
   1   3  -9   81.24    3.57
  -1  -3   8  172.88    5.16
   1  -3  -8  161.10    3.26
  -1  -3   8  161.78    5.29
   1   3  -8  163.73    5.09
  -1  -3   7 1782.40   29.01
   1  -3  -7 1760.05   26.29
   1   3  -7 1795.42   29.08
  -1  -3   7 1811.81   29.36
  -1  -3   6  243.60    6.01
   1  -3  -6  226.30    3.92
   1   3  -6  233.69    5.87
  -1  -3   6  231.40    6.01
   1   3  -6  237.76    6.07
  -1  -3   5   49.51    2.45
   1   3  -5   48.96    2.35
   1   3  -5   46.56    2.31
  -1  -3   5   47.78    2.41
   1   3  -4 1100.11   18.21
  -1  -3   4 1092.59   18.22
   1   3  -4 1077.78   18.17
  -1  -3   3 8637.94  124.81
   1   3  -3 8520.45  124.82
   1   3  -3 8464.24  124.82
  -1  -3   2 1822.27   27.82
   1   3  -2 1767.06   27.78
   1   3  -1  550.54    9.38
  -1  -3   1  534.81    9.38
   1  -3  -1  534.67    8.56
   1   3   0  943.79   14.99
  -1  -3   0  941.18   14.99
   1  -3   0  961.04   15.09
   1   3   1  404.93    7.01
  -1  -3  -1  421.82    7.04
   1  -3   1  426.42    7.67
  -1  -3  -2  254.64    4.44
   1   3   2  254.34    4.43
  -1   3  -2  260.25    5.46
   1  -3   2  267.90    5.58
   1  -3   3 2515.63   37.93
  -1   3  -3 2440.95   37.84
   1  -3   4 2059.81   31.95
  -1   3  -4 2050.32   31.96
  -1   3  -4 2018.45   31.88
   1  -3   5  467.08    9.25
   1   3   5  453.48    7.36
  -1   3  -5  454.58    9.16
  -1   3  -5  462.73    9.28
   1  -3   6  154.23    4.50
   1   3   6  138.77    3.02
  -1   3  -6  144.04    4.48
  -1   3  -6  139.30    4.30
   1  -3   6  147.10    4.51
   1  -3   7  354.58    8.05
   1   3   7  339.28    6.40
   1  -3   7  372.52    8.42
  -1   3  -7  339.85    7.96
  -1   3  -7  360.14    8.40
   1  -3   8  110.59    4.02
  -1   3  -8  105.24    3.94
   1  -3   8  115.20    4.32
   1   3   8  105.97    2.95
   1  -3   9    5.98    1.20
   1  -3   9    9.10    1.57
  -1   3  -9    5.67    1.07
   1   3   9    7.93    0.93
   1   3   9    9.50    0.59
   1   3  10    4.49    0.54
   1  -3  10    3.39    1.10
   1  -3  10    2.27    1.25
   1   3  10    1.49    0.64
   1  -3  11 1132.48   21.06
   1  -3  11 1153.61   21.96
   1   3  11 1107.44   19.31
   1   3  11 1164.09   17.78
   1  -3  12   23.25    2.22
   1  -3  12   24.74    2.65
   1   3  12   23.86    1.75
   1   3  12   26.01    1.23
   1  -3  13  217.14    7.02
   1  -3  13  223.79    7.84
   1   3  13  220.66    6.07
   1   3  13  231.33    4.78
   1  -3  14    7.64    1.50
   1  -3  14    9.10    2.05
   1   3  14    7.98    1.19
   1   3  14    8.25    0.85
   1  -3  15   52.75    3.49
   1  -3  15   56.59    4.21
   1   3  15   58.49    3.10
   1   3  15   62.74    2.19
   1  -3  16   82.35    4.51
   1   3  16   85.86    3.94
   1  -3  16   85.45    5.32
   1  -3  17  317.23    9.65
   1  -3  17  339.48   11.45
   1  -3  18    5.94    1.72
   1  -3  18    3.95    1.85
   1  -3  19  119.42    5.78
   1  -3  19  131.87    7.31
  -1  -5  20   11.95    2.43
  -1  -5  19   37.32    3.59
  -1  -5  18   -0.38    1.41
  -1  -5  17  111.05    5.93
  -1  -5  17  137.95    7.22
  -1  -5  16   98.64    5.33
  -1  -5  16  104.05    6.09
  -1  -5  15   62.40    4.17
  -1  -5  15   72.58    4.94
  -1  -5  14  170.33    6.79
  -1   5  14  178.20    4.73
  -1  -5  14  185.47    7.63
  -1  -5  13  152.38    6.15
  -1   5  13  154.17    4.13
  -1  -5  13  160.56    6.77
  -1  -5  12  278.20    8.56
  -1   5  12  288.07    5.98
  -1  -5  11  131.59    5.41
  -1   5  11  132.86    3.33
   1   5 -11  136.99    5.42
  -1  -5  10    8.21    1.69
  -1   5  10    7.05    0.66
   1   5 -10   10.98    1.63
  -1  -5   9  341.95    8.88
  -1   5   9  339.15    5.84
   1   5  -9  356.98    9.26
   1   5  -9  343.40    8.98
  -1  -5   8 1164.80   21.36
   1   5  -8 1168.27   21.54
   1   5  -8 1176.83   21.52
  -1  -5   7 1574.66   27.12
   1   5  -7 1565.38   27.12
   1   5  -7 1596.09   27.17
  -1  -5   6  438.08    9.77
   1   5  -6  417.27    9.57
   1   5  -6  428.93    9.77
  -1  -5   5 1440.33   24.38
   1  -5  -5 1423.78   21.59
   1   5  -5 1457.42   24.44
   1   5  -5 1496.66   24.63
  -1  -5   4    4.36    1.29
   1   5  -4    6.62    1.16
  -1  -5   3  254.72    6.11
   1  -5  -3  228.70    4.05
   1  -5  -3  246.32    4.82
   1   5  -3  241.83    6.06
  -1  -5   2  455.10    9.14
   1  -5  -2  443.09    7.55
   1  -5  -2  453.40    8.19
   1   5  -2  452.24    9.12
  -1  -5   1  175.38    4.73
   1  -5  -1  185.90    3.98
   1  -5  -1  182.28    4.37
   1   5  -1  187.61    4.69
   1   5   0  198.86    4.80
   1  -5   0  207.69    4.95
  -1  -5   0  203.78    4.83
   1  -5   1  145.91    4.16
   1   5   1  142.53    3.69
  -1  -5  -1  156.67    3.79
   1   5   2  266.54    5.38
   1  -5   2  274.94    6.39
  -1   5  -2  263.84    6.30
  -1  -5  -2  273.76    5.42
   1   5   3   43.96    1.57
  -1   5  -3   46.98    2.47
   1  -5   3   48.24    2.51
  -1  -5  -3   47.40    1.60
  -1   5  -4   36.68    2.23
  -1  -5  -4   36.78    1.24
   1  -5   4   36.43    2.30
  -1   5  -5 1970.00   32.42
  -1   5  -5 2018.37   32.51
   1  -5   5 1991.54   32.49
  -1   5  -6  261.52    6.97
  -1   5  -6  264.58    7.05
   1  -5   6  265.85    7.02
  -1   5  -7  276.63    7.47
  -1   5  -7  275.49    7.41
   1  -5   7  280.12    7.45
  -1   5  -8  848.79   16.39
  -1   5  -8  821.88   16.14
   1  -5   8  817.19   16.06
   1   5   8  802.84   12.30
   1  -5   9   42.03    2.84
   1   5   9   41.61    1.35
  -1   5  -9   44.66    2.89
  -1   5  -9   44.83    3.01
   1  -5  10   33.87    2.60
   1   5  10   34.67    1.40
   1  -5  11   90.29    4.42
   1   5  11   92.98    2.68
   1  -5  12   18.58    2.28
   1   5  12   22.88    1.37
   1  -5  13   50.52    3.53
   1   5  13   50.31    2.17
   1  -5  14   35.52    3.08
   1   5  14   36.08    1.94
   1  -5  15  157.15    6.62
   1  -5  16   25.19    2.84
   1  -5  17  246.98    8.95
   1  -5  18   16.00    2.49
   1  -5  19  169.81    7.58
   1  -5  20    4.59    1.92
  -1  -7  20   47.30    4.45
  -1  -7  19   -1.08    1.53
  -1  -7  18   -0.15    1.45
  -1  -7  17    9.49    2.25
  -1  -7  16    2.27    1.80
  -1  -7  15   24.13    2.98
  -1  -7  14   83.08    4.85
  -1  -7  13   -0.49    1.42
  -1  -7  12  895.93   19.41
  -1  -7  11 1459.59   27.54
  -1  -7  10  137.46    5.82
  -1  -7   9   26.36    2.58
   1   7  -9   28.75    2.55
  -1  -7   8    1.10    1.27
   1   7  -8    1.05    0.99
   1   7  -8    1.67    1.16
  -1  -7   7  397.57   10.03
   1  -7  -7  383.28    6.30
   1   7  -7  402.61   10.02
   1   7  -7  408.61   10.09
  -1  -7   6  358.22    9.28
   1  -7  -6  377.80    6.60
   1   7  -6  357.71    9.27
   1   7  -6  378.48    9.54
   1  -7  -5  760.54   12.76
  -1  -7   5  780.17   15.49
   1   7  -5  804.27   15.69
   1  -7  -4  703.27   11.97
  -1  -7   4  679.01   13.92
   1  -7  -4  684.68   10.74
   1   7  -4  725.29   14.21
   1  -7  -3 2409.86   36.56
  -1  -7   3 2381.25   38.30
   1  -7  -3 2338.99   35.51
   1   7  -3 2437.60   38.52
   1  -7  -2  191.30    4.85
  -1  -7   2  189.69    5.56
   1  -7  -2  181.01    4.21
   1   7  -2  193.98    5.58
  -1  -7   1 1123.13   19.50
   1  -7  -1 1124.91   19.03
   1  -7  -1 1101.91   18.30
   1   7  -1 1143.90   19.63
   1  -7   0    3.14    1.04
   1   7   0    2.75    0.89
  -1  -7   0    3.58    1.02
   1   7   1  529.65   10.32
   1  -7   1  537.09   10.87
  -1  -7  -1  528.13   10.27
   1   7   2  410.68    8.28
   1  -7   2  424.27    9.37
  -1  -7  -2  408.85    8.26
   1  -7   3 1709.37   28.47
  -1  -7  -3 1686.23   26.57
  -1   7  -4   59.16    3.11
  -1  -7  -4   60.97    2.13
   1  -7   4   63.86    3.28
  -1   7  -5 2033.81   34.07
   1  -7   5 2057.26   34.05
  -1  -7  -5 2023.01   30.66
  -1   7  -6   75.73    3.77
  -1   7  -6   76.72    3.78
   1  -7   6   72.85    3.72
  -1  -7  -6   69.95    1.79
   1  -7   7  456.44   11.19
  -1   7  -7  478.53   11.32
  -1   7  -7  477.62   11.32
   1  -7   8   36.36    2.88
  -1   7  -8   34.89    2.76
   1  -7   9  449.50   11.44
   1  -7  10  131.96    5.68
   1  -7  11  515.56   13.02
   1  -7  12  146.10    6.45
   1  -7  13  234.02    8.40
   1  -7  14   10.90    2.23
   1  -7  15  547.14   14.73
   1  -7  16    0.12    1.49
   1  -7  17  236.54    9.20
   1  -7  18    3.69    1.64
   1  -7  19  180.83    8.33
   1  -7  20    8.30    2.38
  -1  -9  18    7.56    2.21
  -1  -9  17   -0.04    1.56
  -1  -9  16  187.79    8.49
  -1  -9  15   86.65    5.58
  -1  -9  14   91.94    5.65
  -1  -9  13   54.61    4.30
  -1  -9  12    7.52    1.99
  -1  -9  11    4.64    1.67
  -1  -9  10  156.45    6.74
  -1  -9   9   52.60    3.78
   1  -9  -8   78.56    1.85
  -1  -9   8   84.45    4.67
  -1  -9   7   37.05    3.11
   1  -9  -7   37.57    1.54
  -1  -9   6  275.83    8.36
   1  -9  -6  268.30    5.76
   1   9  -6  274.98    8.31
   1  -9  -5   21.20    1.45
  -1  -9   5   23.78    2.42
   1   9  -5   20.56    2.08
  -1  -9   4   33.18    2.67
   1  -9  -4   26.57    1.69
   1  -9  -4   28.30    1.27
   1   9  -4   29.49    2.44
  -1  -9   3  168.38    5.82
   1  -9  -3  164.03    4.81
   1  -9  -3  168.28    4.10
   1   9  -3  185.40    6.03
   1  -9  -2  470.87    9.94
  -1  -9   2  458.95   10.76
   1  -9  -2  463.37    9.08
   1   9  -2  495.05   10.99
   1  -9  -1  126.91    4.44
  -1  -9   1  137.14    4.86
   1  -9  -1  128.33    3.97
   1   9  -1  134.20    4.82
   1  -9   0  435.65   10.00
  -1  -9   0  451.38   10.04
   1   9   0  460.95   10.13
   1  -9   1  225.06    6.55
  -1  -9  -1  218.86    6.11
  -1  -9  -2  415.81    9.10
   1  -9   2  434.09   10.16
  -1  -9  -3  257.62    6.21
   1  -9   3  235.22    7.22
  -1  -9  -4    0.16    0.65
   1  -9   4   -1.85    1.33
  -1  -9  -4    0.64    0.45
   1  -9   5  219.29    7.10
  -1  -9  -5  228.18    5.15
  -1  -9  -5  212.83    3.70
  -1  -9  -5  206.11    3.69
  -1  -9  -6  109.09    3.00
   1  -9   6  104.08    4.89
   1  -9   7  213.41    7.37
  -1  -9  -7  211.06    4.16
   1  -9   8    4.95    1.60
   1  -9   9  195.36    7.35
   1  -9  10   37.03    3.31
   1  -9  11  258.23    9.11
   1  -9  12   -0.40    1.51
   1  -9  13  220.78    8.69
   1  -9  14    3.61    1.74
   1  -9  15  243.37    9.62
   1  -9  16   34.06    3.66
   1  -9  17  114.32    6.59
   1  -9  18   15.50    2.80
  -1 -11  15   79.95    5.71
  -1 -11  14    1.37    1.72
  -1 -11  13   33.71    3.78
  -1 -11  12    8.41    2.07
  -1 -11  11   47.93    4.14
  -1 -11  10  111.43    6.16
  -1 -11   9  124.84    6.32
  -1 -11   8   -0.24    1.38
   1 -11  -8    1.24    0.52
   1 -11  -7  210.57    5.08
  -1 -11   7  205.92    7.83
   1 -11  -6  280.47    6.55
  -1 -11   6  270.55    8.97
   1 -11  -5  116.28    4.04
  -1 -11   5  116.42    5.49
   1 -11  -5  114.56    2.65
   1 -11  -4   11.27    1.41
  -1 -11   4   10.76    1.93
   1 -11  -4    9.05    0.88
   1 -11  -3   13.63    1.55
  -1 -11   3   15.84    2.09
   1 -11  -3   14.81    1.25
  -1 -11   2  114.34    4.99
   1 -11  -2  114.60    4.49
   1 -11  -2  116.44    3.87
  -1 -11   1  377.39    9.81
   1 -11  -1  372.55    9.37
   1 -11  -1  378.55    8.61
  -1 -11   0  125.54    4.92
   1 -11   0  116.08    4.83
   1 -11   0  118.39    4.37
  -1 -11  -1  378.06    9.31
   1 -11   1  360.23    9.65
   1 -11   1  378.18    9.24
   1 -11   2  165.14    6.10
  -1 -11  -2  162.50    5.39
   1 -11   3   59.47    3.74
  -1 -11  -3   64.08    3.13
  -1 -11  -3   63.25    2.54
   1 -11   4   48.46    3.41
  -1 -11  -4   52.19    2.66
  -1 -11  -4   54.96    2.09
   1 -11   5   68.84    4.23
  -1 -11  -5   69.57    2.98
  -1 -11  -5   75.81    2.04
  -1 -11  -6  201.03    5.12
   1 -11   6  194.22    7.41
   1 -11   7   70.19    4.45
  -1 -11  -7   78.03    2.61
   1 -11   8   14.59    2.27
  -1 -11  -8   17.43    0.92
   1 -11   9  126.91    6.35
   1 -11  10   86.05    5.40
   1 -11  11  203.17    8.51
   1 -11  12    8.78    2.12
   1 -11  13  294.18   10.82
   1 -11  14   77.20    5.50
   1 -11  15  158.85    8.13
  -1 -13  12   53.55    4.77
  -1 -13  11    3.85    1.64
  -1 -13  10    0.08    1.61
  -1 -13   9   31.72    3.59
  -1 -13   8   61.80    4.63
  -1 -13   7  233.38    9.01
   1 -13  -7  241.09    6.13
  -1 -13   6  174.64    7.60
   1 -13  -6  198.50    5.71
  -1 -13   5   28.29    3.02
   1 -13  -5   30.14    2.23
   1 -13  -4    6.02    1.29
  -1 -13   4    4.60    1.62
   1 -13  -4    5.06    0.82
  -1 -13   3   23.05    2.65
   1 -13  -3   16.85    1.97
   1 -13  -3   19.13    1.53
   1 -13  -2    0.78    1.00
  -1 -13   2   -1.68    1.48
   1 -13  -2    1.09    0.78
   1 -13  -1  648.04   14.53
  -1 -13   1  638.13   14.94
   1 -13  -1  659.57   13.48
  -1 -13   0   -0.12    1.13
   1 -13   0    2.93    1.35
   1 -13   0    1.95    1.03
  -1 -13  -1  447.00   11.15
   1 -13   1  404.61   11.20
   1 -13   1  440.35   10.75
  -1 -13  -1  435.82   10.11
   1 -13   2  157.49    6.52
  -1 -13  -2  161.63    5.92
   1 -13   2  165.92    6.13
  -1 -13  -2  165.74    5.17
  -1 -13  -3  140.36    5.28
   1 -13   3  135.50    6.13
  -1 -13  -3  149.05    4.52
  -1 -13  -4   27.34    2.23
   1 -13   4   24.27    2.86
  -1 -13  -4   28.91    1.69
  -1 -13  -5  167.48    5.37
   1 -13   5  160.40    7.01
   1 -13   6  178.12    7.65
  -1 -13  -6  182.83    5.35
  -1 -13  -7  158.50    4.55
   1 -13   7  150.07    7.21
   1 -13   8   17.36    2.83
   1 -13   9   62.51    4.88
   1 -13  10    2.98    1.86
   1 -13  11  122.90    6.89
   1 -13  12   28.97    3.67
  -1 -15   9   31.23    3.80
  -1 -15   8    7.73    2.22
  -1 -15   7  225.27    9.41
  -1 -15   6   17.63    2.84
  -1 -15   5   19.40    2.81
   1 -15  -5   22.03    2.11
   1 -15  -4   51.89    3.34
  -1 -15   4   42.35    3.86
   1 -15  -3    3.75    1.19
  -1 -15   3    3.55    1.64
   1 -15  -2  156.16    6.27
  -1 -15   2  154.04    6.92
  -1 -15   1  356.59   10.81
   1 -15  -1  348.02   10.31
   1 -15   0   31.77    3.03
  -1 -15   0   27.65    2.96
  -1 -15  -1  225.44    7.92
   1 -15   1  238.64    8.55
  -1 -15  -2   56.57    3.69
   1 -15   2   52.64    4.08
  -1 -15  -3   49.13    3.36
   1 -15   3   42.31    3.70
  -1 -15  -4    1.22    1.04
   1 -15   4   -0.19    1.62
   1 -15   5  185.57    8.18
  -1 -15  -5  197.15    6.40
   1 -15   6   10.00    2.21
   1 -15   7  276.81   10.48
   1 -15   8   10.88    2.44
   1 -15   9   32.07    3.79
  -1 -17   6    1.68    1.70
  -1 -17   5   25.11    3.44
  -1 -17   4   -1.63    1.59
  -1 -17   3   -0.71    1.61
   1 -17  -3    1.31    1.29
   1 -17  -2    9.16    1.83
  -1 -17   2   12.70    2.47
  -1 -17   1   62.54    4.57
   1 -17  -1   62.39    4.38
  -1 -17   0    9.60    2.25
   1 -17   0    9.80    2.17
   1 -17   1   68.68    4.86
  -1 -17  -1   66.90    4.49
   1 -17   2    5.54    1.94
  -1 -17  -2    4.84    1.40
   1 -17   3    7.85    2.21
   1 -17   4    1.42    1.77
   1 -17   5   63.91    5.01
   1 -17   6    4.59    2.06
  -1 -19   2   32.34    3.77
  -1 -19   1  136.10    7.20
   1 -19   0   14.49    2.62
   1 -19   1   46.11    4.28
   1 -19   2   19.53    3.03
  -2   0  19    1.16    1.59
  -2   0  18  274.43   10.44
  -2   0  18  268.60    7.85
  -2   0  17    1.82    1.65
  -2   0  17   -2.56    1.20
  -2   0  16  150.86    7.05
  -2   0  16  152.58    5.40
   2   0 -15    0.81    0.80
  -2   0  15    0.58    1.63
  -2   0  15    1.08    0.97
   2   0 -14  261.41    7.13
  -2   0  14  269.54    8.99
  -2   0  14  268.96    7.22
   2   0 -13    2.13    0.89
  -2   0  13   -0.54    0.90
   2   0 -12  632.53   12.62
  -2   0  12  640.37   12.65
   2   0 -11    0.52    0.69
  -2   0  11    0.59    0.84
   2   0 -10  221.53    5.67
  -2   0  10  221.85    5.70
   2   0  -9   -0.30    0.63
  -2   0   9    0.51    0.75
  -2   0   8   42.59    2.08
   2   0  -8   41.48    2.00
  -2   0   7    1.21    0.77
   2   0  -7    2.05    0.70
   2   0  -6   71.42    2.41
  -2   0   6   72.11    2.48
   2   0  -5    1.17    0.65
  -2   0   5    0.42    0.77
  -2   0   4 2863.41   42.12
   2   0  -4 2798.08   42.09
  -2   0   3    1.92    0.67
   2   0  -3    1.02    0.57
   2   0  -2  888.18   13.85
  -2   0   2  903.63   13.87
   2   0  -1    1.53    0.38
   2   0   1    3.20    0.46
  -2   0  -1    3.75    0.52
   2   0   2  292.73    5.28
  -2   0  -2  298.32    5.29
   2   0   3    0.61    0.57
  -2   0  -3    1.09    0.68
   2   0   4  668.65   11.50
   2   0   4  695.92   11.15
   2   0   5    0.93    0.70
   2   0   5    0.36    0.66
   2   0   6   82.13    2.86
   2   0   6   86.79    2.61
   2   0   7    0.61    0.69
   2   0   7    2.05    0.77
   2   0   8   20.56    1.42
   2   0   8   20.77    1.62
   2   0   9    1.17    0.74
   2   0   9    0.36    0.70
   2   0  10  892.56   15.84
   2   0  10  912.76   16.78
   2   0  11   -0.13    0.83
   2   0  11    1.04    0.83
   2   0  12  256.58    6.52
   2   0  12  249.48    7.17
   2   0  12  251.07    7.94
   2   0  13   -0.10    0.78
   2   0  13    0.54    0.85
   2   0  13    1.14    1.29
   2   0  14  128.33    4.56
   2   0  14  130.22    5.22
   2   0  14  122.31    5.85
   2   0  15   -0.09    0.88
   2   0  15    0.84    1.02
   2   0  15    2.87    1.70
   2   0  16    9.18    2.22
   2   0  16    7.50    1.33
   2   0  17    2.99    1.79
   2   0  17    1.02    1.11
   2   0  18    0.37    1.53
   2   0  19    1.68    1.86
  -2  -2  19    2.91    1.83
  -2   2  19    4.50    2.12
  -2  -2  19    8.20    1.85
  -2  -2  18  649.37   17.37
  -2  -2  18  612.19   14.67
  -2  -2  17    4.63    1.82
  -2  -2  17    8.98    1.76
  -2  -2  16   55.01    3.55
  -2  -2  16   57.07    4.38
  -2   2  16   48.84    3.12
  -2   2  16   58.33    2.78
   2   2 -15   13.03    1.74
  -2  -2  15   14.99    2.47
  -2  -2  15   10.71    1.67
  -2   2  15   19.66    1.58
  -2  -2  14   75.05    4.56
   2   2 -14   76.65    3.87
  -2  -2  14   76.06    3.98
  -2   2  14   81.43    3.12
   2  -2 -13   22.31    1.56
  -2  -2  13   22.42    2.56
   2   2 -13   21.52    2.04
  -2  -2  13   18.99    2.07
  -2   2  13   22.85    1.61
   2   2 -12   44.75    2.78
   2  -2 -12   44.58    2.11
  -2  -2  12   40.16    3.17
  -2  -2  12   44.89    2.85
  -2   2  12   42.84    2.08
   2  -2 -11    9.04    0.93
  -2  -2  11    7.73    1.54
   2   2 -11    8.32    1.27
  -2  -2  11   10.29    1.56
  -2   2  11   10.86    1.10
   2   2 -10 1226.84   21.62
  -2  -2  10 1241.06   22.57
  -2  -2  10 1244.32   21.66
   2  -2 -10 1184.90   19.75
  -2   2  10 1249.51   19.85
  -2  -2   9  568.28   12.06
   2  -2  -9  552.03    9.84
  -2  -2   9  550.52   11.31
   2   2  -9  547.33   11.31
  -2   2   9  546.82    9.83
  -2  -2   8   15.59    1.78
   2   2  -8   17.24    1.55
  -2  -2   8   16.97    1.59
   2  -2  -8   15.72    1.05
  -2   2   8   15.35    1.06
  -2  -2   7  235.35    6.17
   2  -2  -7  221.65    4.58
   2   2  -7  225.17    5.82
  -2  -2   7  232.41    5.80
  -2   2   7  227.77    4.62
  -2  -2   6   21.24    1.91
   2  -2  -6   20.68    1.06
   2   2  -6   21.63    1.56
  -2  -2   6   22.05    1.72
  -2  -2   5 1465.33   23.51
   2   2  -5 1433.46   23.33
  -2  -2   5 1505.11   23.40
   2  -2  -5 1427.09   21.92
   2   2  -4 9675.94  140.60
  -2  -2   4 9999.00  140.67
  -2  -2   4 9532.87  140.58
   2   2  -4 9922.84  140.63
   2  -2  -4 9416.23  139.24
   2   2  -3 4700.82   69.35
  -2  -2   3 4754.94   69.38
   2   2  -3 4657.22   69.57
  -2  -2   3 4713.81   69.51
   2   2  -2  931.33   14.74
   2   2  -2  926.53   14.97
  -2  -2   2  947.32   15.02
   2  -2  -2  913.95   14.07
  -2   2   2  933.09   14.06
   2   2  -1   38.53    1.50
  -2  -2   1   42.18    1.58
   2  -2  -1   37.50    1.21
  -2   2   1   39.98    1.23
  -2  -2   0 1702.71   25.48
   2   2   0 1678.54   25.46
  -2   2   0 1720.57   25.39
   2  -2   0 1676.94   25.40
   2   2   1   11.69    0.70
  -2  -2  -1   11.05    0.72
   2  -2   1   11.59    0.89
  -2   2  -1   12.40    1.02
   2  -2   2 1111.75   17.68
   2   2   2 1115.49   16.78
   2   2   2 1119.68   16.65
  -2  -2  -2 1107.11   16.79
   2   2   3 1429.48   21.31
   2  -2   3 1411.91   22.51
  -2  -2  -3 1421.74   21.31
  -2   2  -3 1412.27   22.35
   2  -2   3 1439.17   22.43
  -2  -2  -4 2110.65   31.63
   2   2   4 2098.70   31.65
  -2   2  -4 2158.13   32.92
   2  -2   4 2201.45   32.95
   2  -2   4 2131.83   32.84
   2   2   5  194.83    4.07
  -2   2  -5  191.14    5.01
   2  -2   5  201.57    4.96
   2   2   5  201.44    3.51
   2  -2   5  194.50    5.06
   2   2   6 1649.51   24.52
   2   2   6 1636.69   25.37
   2  -2   6 1652.86   26.96
   2  -2   6 1648.86   26.45
   2   2   7  143.37    3.04
   2  -2   7  140.67    4.28
   2   2   7  145.46    3.70
   2  -2   7  146.59    4.71
   2   2   8  228.57    4.52
   2  -2   8  229.59    5.98
   2   2   8  228.15    5.28
   2  -2   8  231.47    6.51
   2  -2   9   71.86    3.16
   2   2   9   70.04    2.14
   2   2   9   71.49    2.72
   2  -2   9   69.41    3.47
   2   2  10  101.34    2.81
   2  -2  10  100.65    3.93
   2   2  10   98.97    3.50
   2  -2  10  101.15    4.43
   2  -2  11    3.14    1.10
   2   2  11    4.43    0.74
   2   2  11    3.24    0.92
   2  -2  11    1.46    1.02
   2  -2  11    2.41    1.30
   2   2  12   14.74    1.13
   2  -2  12   15.92    1.84
   2   2  12   15.53    1.54
   2  -2  12   17.64    1.96
   2  -2  12   16.89    2.20
   2  -2  13    1.36    1.06
   2   2  13    1.02    0.64
   2   2  13    1.09    0.84
   2  -2  13    1.15    1.09
   2  -2  13    2.44    1.46
   2  -2  14    1.18    1.00
   2   2  14    2.31    0.81
   2   2  14    1.65    0.96
   2  -2  14    2.31    1.45
   2   2  15   46.56    2.24
   2  -2  15   42.05    3.00
   2  -2  15   41.09    3.70
   2   2  15   42.06    2.81
   2  -2  16   25.42    2.44
   2  -2  16   26.25    3.00
   2   2  16   28.41    2.41
   2   2  16   29.37    1.82
   2  -2  17   21.65    2.96
   2  -2  17   19.85    2.27
   2   2  18    2.37    1.63
   2  -2  18    5.19    1.94
   2  -2  18    5.44    1.63
   2  -2  19   -0.08    1.63
   2   2  19    2.41    2.02
   2  -2  19    1.71    1.30
  -2  -4  20   98.78    5.74
  -2  -4  19   20.98    2.85
  -2  -4  19   22.34    3.37
  -2  -4  18   49.73    3.85
  -2  -4  18   54.28    4.60
  -2  -4  17   15.62    2.39
  -2  -4  17   16.32    2.73
  -2  -4  16  218.92    7.96
  -2  -4  16  233.20    9.13
  -2  -4  15    2.12    1.44
  -2   4  15    0.72    0.83
  -2  -4  15   -2.43    1.71
  -2  -4  14   24.76    2.53
  -2   4  14   26.97    1.88
  -2  -4  14   26.59    2.91
  -2  -4  13   27.91    2.64
  -2   4  13   29.01    1.86
   2   4 -13   29.33    2.58
  -2  -4  13   27.70    2.89
  -2  -4  12    8.16    1.64
   2   4 -12    9.69    1.61
  -2  -4  12    8.26    1.64
  -2  -4  11  209.07    7.13
   2   4 -11  213.66    6.86
   2  -4 -11  212.15    4.19
  -2  -4  11  211.54    6.83
   2  -4 -10  338.38    5.95
   2   4 -10  341.21    8.90
  -2  -4  10  342.85    9.17
  -2  -4  10  320.42    8.64
   2   4  -9  700.15   14.24
  -2  -4   9  700.16   14.45
  -2  -4   9  697.78   14.18
   2  -4  -9  684.28   10.95
   2   4  -8  255.97    7.11
  -2  -4   8  266.93    7.36
   2  -4  -8  269.50    4.77
  -2  -4   8  277.87    7.29
   2   4  -7  560.28   11.62
  -2  -4   7  570.79   11.61
   2  -4  -7  533.62    8.76
   2   4  -7  568.92   11.56
   2   4  -6   61.99    2.91
   2   4  -6   61.94    2.89
  -2  -4   6   58.87    2.89
   2  -4  -6   54.09    1.54
  -2   4   6   56.97    1.48
  -2  -4   5 1010.50   17.52
   2   4  -5  984.28   17.51
  -2   4   5  983.18   14.78
   2   4  -5  994.83   17.39
   2   4  -4  747.28   13.72
   2   4  -4  790.56   13.99
  -2  -4   4  760.63   13.97
  -2  -4   3    1.55    1.10
   2   4  -3   -0.04    0.81
  -2   4   3    0.71    0.39
   2  -4  -3    0.73    0.36
   2   4  -2  392.40    7.83
  -2  -4   2  391.52    7.88
   2  -4  -2  387.30    6.60
  -2   4   2  390.71    6.59
   2   4  -1  414.81    7.82
  -2  -4   1  415.21    7.84
   2  -4  -1  388.69    7.04
  -2  -4   0  248.99    5.25
   2   4   0  244.16    5.19
   2  -4   0  246.74    5.05
   2   4   1  432.82    7.80
  -2  -4  -1  433.90    7.80
   2  -4   1  443.71    8.18
   2  -4   1  437.94    8.43
   2  -4   2  307.41    6.55
   2   4   2  290.69    5.48
  -2  -4  -2  299.53    5.52
   2  -4   3  162.48    4.59
   2   4   3  156.13    3.17
  -2  -4  -3  159.14    3.19
  -2  -4  -3  157.57    3.06
   2   4   4  232.05    3.96
  -2   4  -4  240.05    5.91
   2  -4   4  234.54    5.93
  -2  -4  -4  231.21    4.01
  -2  -4  -4  227.23    3.95
   2  -4   5  143.30    4.47
  -2   4  -5  140.30    4.41
  -2  -4  -5  140.18    2.72
  -2   4  -6  103.31    3.85
   2  -4   6   98.87    3.78
   2   4   6   97.72    2.24
   2  -4   7   70.85    3.26
   2   4   7   70.24    1.95
  -2   4  -7   74.34    3.38
   2  -4   8   84.34    3.75
   2   4   8   80.80    2.35
  -2   4  -8   79.13    3.73
   2   4   9    0.75    0.49
   2  -4   9    1.79    1.20
   2  -4   9    1.68    1.01
   2   4  10    0.23    0.51
   2  -4  10   -0.05    1.04
   2  -4  10    0.37    1.26
   2  -4  11   35.51    2.68
   2   4  11   37.98    1.90
   2  -4  11   32.44    2.81
   2  -4  12    3.98    1.28
   2   4  12    3.43    0.79
   2  -4  12    5.41    1.67
   2  -4  13   27.90    2.57
   2   4  13   27.24    1.82
   2  -4  13   34.81    3.19
   2  -4  14   37.21    3.05
   2   4  14   42.58    2.37
   2  -4  14   39.26    3.49
   2  -4  15   41.60    3.25
   2   4  15   43.31    2.53
   2  -4  15   45.42    3.81
   2  -4  16    5.26    1.59
   2  -4  16    2.01    1.72
   2  -4  17   31.34    3.06
   2  -4  17   37.23    3.82
   2  -4  18    2.47    1.36
   2  -4  18    3.20    1.87
   2  -4  19   24.87    2.96
  -2  -6  20   61.31    4.75
  -2  -6  19    1.26    1.63
  -2  -6  18  201.55    8.45
  -2  -6  17   78.98    5.14
  -2  -6  16  288.23    9.94
  -2  -6  15    9.27    1.92
  -2  -6  14   89.30    5.05
  -2   6  14  101.53    2.82
  -2  -6  13  126.81    5.90
  -2   6  13  141.27    3.27
  -2  -6  12  408.22   11.33
  -2   6  12  443.41    7.46
  -2  -6  11    7.45    1.71
  -2   6  11    7.04    0.50
  -2   6  11    6.66    0.50
   2   6 -10   23.16    2.33
  -2  -6  10   26.34    2.62
   2   6  -9  348.43    9.37
   2   6  -9  344.30    9.33
  -2  -6   9  328.84    9.14
   2   6  -8  343.93    9.05
   2   6  -8  340.47    8.97
  -2  -6   8  318.45    8.83
   2   6  -7   18.68    1.90
   2   6  -7   14.65    1.73
   2  -6  -7   16.32    0.78
  -2  -6   7   16.68    1.96
   2  -6  -7   17.45    0.81
   2   6  -6    3.64    1.16
   2   6  -6    5.15    1.20
   2  -6  -6    2.93    0.51
  -2  -6   6    3.87    1.33
   2   6  -5    6.46    1.28
   2   6  -5    6.50    1.29
   2  -6  -5    5.77    0.69
  -2  -6   5    5.54    1.34
   2   6  -4  300.89    7.38
   2  -6  -4  283.93    5.69
  -2  -6   4  288.56    7.32
   2  -6  -4  274.70    4.76
  -2  -6   3    5.10    1.24
   2  -6  -3    4.75    0.58
   2   6  -3    6.41    1.24
   2  -6  -3    2.35    0.71
  -2  -6   2  476.12    9.84
   2   6  -2  480.99    9.85
   2  -6  -2  464.74    8.31
   2  -6  -2  473.52    8.98
  -2  -6   1  274.13    6.39
   2   6  -1  264.44    6.33
   2  -6  -1  258.32    5.54
   2  -6  -1  268.04    6.09
   2   6   0  180.88    4.81
  -2  -6   0  195.04    4.90
   2  -6   0  178.30    4.51
   2  -6   0  181.68    4.90
  -2  -6  -1  138.11    3.90
   2  -6   1  138.17    4.02
   2  -6   1  137.01    4.30
   2   6   1  135.59    3.83
   2  -6   2 1407.95   23.15
   2   6   2 1353.76   21.81
  -2  -6  -2 1354.41   21.75
   2   6   3   20.77    1.25
   2  -6   3   21.20    1.96
  -2  -6  -3   19.95    1.21
   2  -6   4    8.61    1.55
   2   6   4    7.92    0.75
  -2  -6  -4    7.10    0.72
  -2  -6  -4    7.39    0.59
   2  -6   5   63.09    3.20
  -2  -6  -5   59.46    1.66
  -2   6  -6    2.33    1.10
   2  -6   6    4.14    1.34
   2  -6   7    1.86    1.30
  -2   6  -7    2.05    1.13
  -2   6  -8   21.85    2.09
   2  -6   8   19.40    2.09
   2  -6   9   10.44    1.68
  -2   6  -9   12.24    1.77
   2  -6  10    6.37    1.50
   2  -6  11   36.61    3.01
   2   6  11   40.88    1.33
   2  -6  12   54.02    3.71
   2   6  12   63.35    1.92
   2  -6  13   95.99    5.07
   2   6  13  102.22    2.76
   2  -6  14   46.42    3.62
   2   6  14   50.98    1.99
   2  -6  15   57.87    4.13
   2  -6  16   23.87    2.88
   2  -6  17    5.37    1.80
   2  -6  18    5.14    1.97
   2  -6  19   36.24    3.70
   2  -6  20    7.81    2.19
  -2  -8  19    8.14    2.33
  -2  -8  18   16.03    2.69
  -2  -8  17   49.88    4.40
  -2  -8  16    1.34    1.66
  -2  -8  15   16.45    2.66
  -2  -8  14   97.29    5.63
  -2  -8  13  125.39    6.19
  -2  -8  12   26.74    2.88
  -2  -8  11   97.72    5.21
  -2  -8  10  370.39   10.64
  -2  -8   9   44.57    3.38
  -2  -8   8   73.26    4.16
   2  -8  -8   76.51    1.86
  -2  -8   7   -0.39    1.25
   2   8  -7    0.54    0.92
   2  -8  -7    0.22    0.41
   2   8  -7   -0.33    0.97
   2  -8  -6   44.95    1.83
  -2  -8   6   41.47    2.97
   2   8  -6   48.32    3.11
   2   8  -6   42.11    2.93
  -2  -8   5   29.94    2.53
   2  -8  -5   31.62    1.65
   2   8  -5   33.42    2.53
  -2  -8   4   87.40    4.02
   2  -8  -4   84.70    2.25
   2   8  -4   92.87    4.12
   2  -8  -4   85.23    2.99
  -2  -8   3  371.02    9.11
   2  -8  -3  363.55    7.03
   2  -8  -3  374.79    7.96
   2   8  -3  397.23    9.34
  -2  -8   2    1.48    1.07
   2  -8  -2    1.66    0.59
   2   8  -2    3.78    1.15
   2  -8  -2    3.36    0.96
  -2  -8   1   14.71    1.67
   2  -8  -1   14.31    1.23
   2   8  -1   14.93    1.58
   2  -8  -1   14.91    1.51
  -2  -8   0  414.65    9.16
   2  -8   0  407.43    8.68
   2  -8   0  411.07    9.26
   2   8   0  427.74    9.27
  -2  -8  -1  550.52   11.03
   2  -8   1  549.11   11.11
   2  -8   1  548.57   11.58
   2   8   1  558.44   11.09
   2   8   2   19.92    1.56
   2  -8   2   20.31    1.93
  -2  -8  -2   18.25    1.50
   2   8   3   74.12    2.82
   2  -8   3   78.24    3.72
  -2  -8  -3   76.26    2.84
   2  -8   4   38.23    2.73
  -2  -8  -4   40.27    1.91
  -2  -8  -5   85.53    2.60
   2  -8   5   85.86    4.10
  -2  -8  -5   81.44    1.83
   2  -8   6   15.46    1.99
  -2  -8  -6   10.37    0.77
   2  -8   7    3.24    1.44
  -2   8  -7    0.75    0.89
   2  -8   8   15.94    2.26
   2  -8   9  127.21    5.66
   2  -8  10    0.42    1.26
   2  -8  11    2.89    1.56
   2  -8  12   35.61    3.23
   2  -8  13    2.92    1.71
   2  -8  14   30.80    3.33
   2  -8  15   55.80    4.46
   2  -8  16  123.79    6.89
   2  -8  17    8.44    2.35
   2  -8  18   15.80    2.70
   2  -8  19   19.69    3.29
  -2 -10  16  132.12    7.38
  -2 -10  15   79.94    5.59
  -2 -10  14   35.12    3.74
  -2 -10  13   11.15    2.42
  -2 -10  12  154.48    7.20
  -2 -10  11   60.20    4.46
  -2 -10  10  427.47   12.36
  -2 -10   9  157.55    6.82
   2 -10  -8  415.55    7.56
  -2 -10   8  399.96   11.57
   2 -10  -7   18.01    1.28
  -2 -10   7   14.43    2.21
  -2 -10   6  138.60    5.92
   2 -10  -6  142.18    4.09
   2 -10  -5    1.58    0.77
  -2 -10   5    3.13    1.47
   2 -10  -5    0.81    0.33
  -2 -10   4    4.89    1.46
   2 -10  -4    7.54    0.80
   2  10  -4    4.46    1.15
   2 -10  -4    6.94    1.09
   2 -10  -3  154.05    4.95
  -2 -10   3  147.97    5.70
   2 -10  -3  159.12    4.21
   2  10  -3  166.74    5.97
  -2 -10   2  235.18    7.22
   2 -10  -2  236.38    6.59
   2 -10  -2  236.81    5.84
   2  10  -2  238.38    7.21
  -2 -10   1    9.81    1.58
   2 -10  -1   10.55    1.19
   2 -10  -1   10.06    1.54
   2  10  -1   10.49    1.57
  -2 -10   0  184.75    5.88
   2 -10   0  177.52    5.87
   2 -10   0  181.48    5.41
   2  10   0  181.93    5.85
  -2 -10  -1  505.83   11.05
   2 -10   1  507.91   11.65
   2 -10   1  498.80   10.96
   2  10   1  510.77   11.10
  -2 -10  -2   12.88    1.50
   2 -10   2   10.56    1.47
   2 -10   2   11.81    1.72
  -2 -10  -3    1.34    0.75
   2 -10   3    2.12    1.06
   2 -10   3   -0.45    1.17
  -2 -10  -4   15.66    1.45
   2 -10   4   19.21    2.33
   2 -10   4   12.86    1.73
  -2 -10  -5  132.87    3.99
   2 -10   5  135.71    5.71
  -2 -10  -5  136.65    3.02
  -2 -10  -5  139.00    3.04
   2 -10   6   64.32    4.01
  -2 -10  -6   63.93    2.41
   2 -10   7    9.52    1.87
  -2 -10  -7   13.33    0.95
   2 -10   8    2.45    1.59
   2 -10   9   15.00    2.32
   2 -10  10   35.51    3.40
   2 -10  11    3.03    1.50
   2 -10  12    0.11    1.54
   2 -10  13    1.21    1.75
   2 -10  14    1.88    1.66
   2 -10  15   13.68    2.50
   2 -10  16   32.12    3.70
  -2 -12  14   18.30    2.93
  -2 -12  13    9.43    2.37
  -2 -12  12    0.75    1.67
  -2 -12  11    0.46    1.72
  -2 -12  10    0.38    1.72
  -2 -12   9    6.69    2.13
  -2 -12   8   46.06    3.98
   2 -12  -8   55.90    2.25
  -2 -12   7   -2.00    1.58
   2 -12  -7    0.63    0.64
  -2 -12   6   -0.44    1.44
   2 -12  -6    0.95    0.71
  -2 -12   5  160.18    6.81
   2 -12  -5  163.66    5.23
   2 -12  -5  169.79    3.79
   2 -12  -4   30.94    2.31
  -2 -12   4   29.53    2.93
   2 -12  -4   33.92    1.78
   2 -12  -3   67.27    3.49
  -2 -12   3   61.85    3.93
   2 -12  -3   63.67    2.74
  -2 -12   2    7.45    1.74
   2 -12  -2   10.42    1.32
   2 -12  -2    7.35    1.41
  -2 -12   1   73.23    4.07
   2 -12  -1   73.61    3.91
   2 -12  -1   78.54    3.47
  -2 -12   0   63.29    3.68
   2 -12   0   67.47    3.83
   2 -12   0   72.42    3.52
  -2 -12  -1   90.84    4.23
   2 -12   1   89.48    4.56
   2 -12   1   92.79    4.18
  -2 -12  -2   28.18    2.31
   2 -12   2   25.61    2.33
   2 -12   2   21.83    2.40
  -2 -12  -3   56.67    3.13
   2 -12   3   57.63    3.82
   2 -12   3   56.55    3.50
  -2 -12  -4    3.69    1.03
  -2 -12  -4    3.17    0.69
   2 -12   4   -0.14    1.35
   2 -12   5  127.94    6.09
  -2 -12  -5  128.60    4.42
  -2 -12  -5  135.08    3.28
  -2 -12  -6  167.96    4.84
   2 -12   6  163.08    7.06
   2 -12   7   77.86    4.94
  -2 -12  -7   79.39    2.82
   2 -12   8   29.21    3.27
  -2 -12  -8   27.91    1.32
   2 -12   9   19.81    2.95
   2 -12  10   79.48    5.29
   2 -12  11    7.94    2.22
   2 -12  12    0.68    1.73
   2 -12  13   60.87    4.99
   2 -12  14    8.45    2.34
  -2 -14  11   -0.19    1.63
  -2 -14  10   25.40    3.32
  -2 -14   9   92.88    5.93
  -2 -14   8  137.37    7.10
  -2 -14   7   22.02    2.96
  -2 -14   6  130.87    6.80
   2 -14  -6  142.55    5.01
  -2 -14   5   29.35    3.31
   2 -14  -5   27.15    2.24
  -2 -14   4   27.30    3.03
   2 -14  -4   29.09    2.49
   2 -14  -3   31.45    2.67
  -2 -14   3   36.91    3.41
  -2 -14   2   31.87    3.12
   2 -14  -2   33.11    2.78
   2 -14  -2   31.66    2.21
  -2 -14   1   54.32    3.85
   2 -14  -1   53.11    3.59
   2 -14  -1   51.26    3.04
  -2 -14   0  149.73    6.24
   2 -14   0  153.61    6.40
   2 -14   0  163.26    5.84
   2 -14   1    1.60    1.46
  -2 -14  -1   -0.77    1.30
   2 -14   1   -0.39    0.99
   2 -14   2   49.68    3.87
  -2 -14  -2   54.52    3.47
  -2 -14  -2   52.55    2.89
   2 -14   3    1.80    1.52
  -2 -14  -3    2.29    1.18
  -2 -14  -4    0.87    1.01
   2 -14   4    0.57    1.54
   2 -14   5   -0.37    1.47
  -2 -14  -5    0.82    0.83
   2 -14   6  104.25    5.98
  -2 -14  -6  107.85    4.12
   2 -14   7   -1.51    1.83
   2 -14   8    4.61    2.09
   2 -14   9    1.41    1.72
   2 -14  10  151.13    7.81
   2 -14  11    1.83    1.96
  -2 -16   8   80.97    5.84
  -2 -16   7    6.73    2.16
  -2 -16   6  107.33    6.44
  -2 -16   5   29.30    3.36
  -2 -16   4    1.13    1.53
   2 -16  -4   -1.41    1.29
  -2 -16   3   46.81    3.97
   2 -16  -3   46.79    3.46
   2 -16  -2    9.46    1.88
  -2 -16   2    9.97    2.09
   2 -16  -1   18.01    2.41
  -2 -16   1   19.04    2.72
   2 -16   0   50.49    3.93
  -2 -16   0   47.66    3.83
   2 -16   1   53.92    4.12
  -2 -16  -1   50.24    3.87
  -2 -16  -2    0.10    1.15
   2 -16   2    0.20    1.67
  -2 -16  -3    7.64    1.64
   2 -16   3   11.48    2.41
  -2 -16  -4   -0.24    1.08
   2 -16   4    2.46    1.80
   2 -16   5    4.29    1.96
   2 -16   6   69.30    5.23
   2 -16   7    1.31    1.58
  -2 -18   4   11.49    2.76
  -2 -18   3   25.16    3.33
  -2 -18   2   65.06    4.93
   2 -18  -1   15.87    2.46
  -2 -18   1   15.82    2.61
   2 -18   0   97.36    5.84
  -2 -18   0   99.98    5.84
  -2 -18  -1    3.23    1.60
   2 -18   1    3.37    1.81
   2 -18   2    0.07    1.71
   2 -18   3    8.60    2.40
  -3  -1  19   17.91    2.92
  -3   1  19   16.10    2.92
  -3   1  18   14.90    2.66
  -3  -1  18   15.74    3.76
  -3  -1  18   14.57    1.99
  -3   1  17   77.71    5.23
  -3  -1  17   78.04    5.25
  -3  -1  17   74.74    4.05
  -3   1  17   82.43    3.75
   3   1 -16    0.63    1.12
  -3  -1  16   -1.33    1.59
  -3  -1  16    0.73    1.19
  -3   1  16   -0.39    0.82
   3   1 -15  291.69    8.30
  -3  -1  15  296.88    9.91
   3  -1 -15  301.47    7.73
  -3  -1  15  302.70    8.46
  -3   1  15  318.75    7.86
  -3  -1  14  164.79    6.76
   3  -1 -14  155.13    5.00
   3   1 -14  152.30    5.49
  -3  -1  14  156.89    5.57
  -3   1  14  155.36    4.97
  -3  -1  13  583.36   13.81
   3   1 -13  534.40   12.00
   3  -1 -13  542.31   11.30
  -3  -1  13  574.78   12.26
  -3   1  13  562.16   11.35
  -3  -1  12    2.18    1.34
   3  -1 -12    4.00    0.93
   3   1 -12    3.54    0.87
  -3   1  12    2.42    0.84
  -3  -1  12    4.60    1.18
  -3  -1  11 1525.41   27.13
  -3  -1  11 1536.95   25.73
   3   1 -11 1480.70   25.61
   3  -1 -11 1477.61   24.72
  -3   1  11 1512.43   24.74
   3   1 -10    1.03    0.80
   3  -1 -10   -0.27    0.64
  -3  -1  10    0.01    1.01
  -3   1  10    0.95    0.79
  -3  -1  10    1.26    0.90
  -3  -1   9 1940.90   31.89
   3  -1  -9 1850.99   29.94
  -3  -1   9 1918.18   30.81
   3   1  -9 1882.34   30.78
  -3   1   9 1930.13   29.92
  -3  -1   8   -0.51    0.99
   3  -1  -8    0.52    0.61
  -3   1   8    0.71    0.68
   3   1  -8    0.69    0.71
  -3  -1   8    2.01    0.95
  -3  -1   7 1141.28   19.34
   3  -1  -7 1076.02   17.87
  -3  -1   7 1121.36   18.72
   3   1  -7 1078.91   18.54
  -3   1   7 1105.97   17.91
  -3  -1   6    2.73    1.10
   3   1  -6    0.55    0.71
   3  -1  -6    1.17    0.61
  -3  -1   6    1.39    0.91
  -3   1   6    2.24    0.79
  -3  -1   5   17.22    1.45
   3  -1  -5   14.34    1.04
   3   1  -5   18.40    1.39
  -3  -1   5   18.47    1.44
  -3   1   5   16.93    1.16
  -3  -1   4   33.23    1.72
  -3  -1   4   34.95    1.80
   3   1  -4   31.80    1.62
   3  -1  -4   31.33    1.39
  -3   1   4   34.07    1.49
  -3  -1   3 2210.68   32.89
   3   1  -3 2159.93   33.13
  -3  -1   3 2217.71   33.16
   3  -1  -3 2153.19   32.65
   3   1  -2 1313.84   20.46
  -3  -1   2 1363.97   20.45
   3   1  -2 1364.61   20.93
  -3  -1   2 1366.25   20.93
   3   1  -1 3640.13   52.90
  -3  -1   1 3640.48   53.63
   3   1  -1 3639.29   53.60
   3  -1  -1 3645.47   53.41
  -3   1   1 3655.26   53.39
  -3   1   0  950.23   14.82
   3  -1   0  918.93   14.81
   3   1   0  957.88   14.77
  -3  -1   0  966.47   14.80
   3  -1   1 5352.42   77.82
  -3   1  -1 5287.06   77.82
  -3  -1  -1 5354.66   77.58
   3   1   1 5319.55   77.60
  -3  -1  -2  535.24    8.74
  -3   1  -2  523.31    9.09
   3   1   2  533.77    8.73
   3  -1   2  507.06    9.06
   3  -1   2  521.62    8.71
  -3   1  -2  515.24    8.68
  -3   1  -3   19.85    1.39
   3   1   3   19.68    1.10
  -3  -1  -3   17.79    1.13
   3  -1   3   17.51    1.23
  -3   1  -3   18.36    1.17
   3  -1   3   24.80    1.34
   3  -1   4 1784.04   27.70
  -3  -1  -4 1762.04   27.10
   3   1   4 1772.10   27.10
   3  -1   4 1780.03   27.57
  -3  -1  -5  962.84   15.72
   3   1   5  957.30   15.72
   3  -1   5  946.02   16.32
   3  -1   5  975.33   16.00
   3  -1   5  965.26   16.30
   3  -1   6  910.33   15.85
   3   1   6  890.37   15.20
   3   1   6  909.28   14.57
   3  -1   6  913.16   15.94
   3  -1   6  917.94   15.44
   3  -1   7 2742.71   42.57
   3   1   7 2721.09   41.83
   3  -1   7 2745.52   42.79
   3  -1   7 2726.03   42.02
   3   1   7 2734.39   41.04
   3   1   8  105.88    2.99
   3  -1   8  103.00    3.79
   3   1   8   99.41    3.37
   3  -1   8   98.78    3.43
   3  -1   8   99.39    3.90
   3   1   9  117.02    3.34
   3  -1   9  117.00    3.91
   3  -1   9  111.94    4.19
   3   1   9  112.26    3.81
   3  -1   9  113.85    4.45
   3   1  10  129.68    3.73
   3  -1  10  126.06    4.25
   3   1  10  124.15    4.22
   3  -1  10  125.06    4.63
   3  -1  10  130.01    4.98
   3   1  11   49.48    2.26
   3  -1  11   43.52    2.52
   3   1  11   41.10    2.44
   3  -1  11   48.66    2.94
   3  -1  11   46.97    3.16
   3   1  12   40.34    2.14
   3  -1  12   37.81    2.48
   3   1  12   42.87    2.61
   3  -1  12   39.49    2.80
   3  -1  12   40.40    3.10
   3   1  13  463.26    9.60
   3  -1  13  456.29   10.51
   3   1  13  451.48   10.64
   3  -1  13  468.08   11.36
   3  -1  13  460.18   12.00
   3  -1  14   20.94    2.04
   3   1  14   24.81    1.86
   3  -1  14   21.78    2.32
   3   1  14   22.62    2.11
   3  -1  14   21.90    2.55
   3  -1  15  265.79    7.63
   3   1  15  259.17    6.71
   3   1  15  262.48    7.90
   3   1  15  252.72    9.07
   3  -1  15  258.82    9.12
   3   1  16   -0.87    1.52
   3  -1  16   -0.30    1.45
   3   1  16    0.86    0.83
   3  -1  16    0.57    0.96
   3   1  17   43.96    3.94
   3  -1  17   44.08    3.95
   3  -1  17   45.20    3.07
   3   1  17   46.91    2.67
   3  -1  18    9.21    2.37
   3   1  18    4.54    1.95
   3  -1  18    6.12    1.43
   3   1  19   89.03    6.04
   3  -1  19   85.69    5.83
  -3  -3  19  162.21    8.11
  -3  -3  19  157.61    6.86
  -3  -3  18   19.11    2.93
  -3  -3  18   15.36    2.19
  -3  -3  17   45.02    4.01
  -3  -3  17   45.99    3.53
  -3  -3  16    0.31    1.49
  -3  -3  16    1.27    1.25
  -3  -3  15  639.05   15.92
  -3  -3  15  624.58   14.57
  -3  -3  14   33.88    3.11
   3  -3 -14   35.06    1.87
   3   3 -14   33.14    2.77
  -3  -3  14   32.01    2.75
  -3  -3  13  460.79   12.18
   3  -3 -13  466.70    9.06
   3   3 -13  464.08   11.38
  -3  -3  13  448.87   11.24
  -3  -3  12    3.85    1.47
   3  -3 -12    1.77    0.57
   3   3 -12    2.64    1.03
  -3  -3  12    1.93    1.13
   3   3 -11  478.58   11.02
  -3  -3  11  466.85   11.50
  -3  -3  11  473.84   11.01
   3  -3 -11  466.88    8.82
  -3  -3  10  415.37   10.21
   3   3 -10  421.87    9.83
  -3  -3  10  418.26    9.81
   3  -3 -10  392.66    7.66
  -3  -3   9 2430.17   39.12
  -3  -3   9 2424.38   38.67
   3   3  -9 2419.37   38.68
   3  -3  -9 2335.08   36.12
  -3  -3   8  123.11    4.46
   3  -3  -8  108.16    2.89
   3   3  -8  113.24    4.16
  -3  -3   8  113.59    4.21
  -3  -3   7 1244.46   21.06
   3   3  -7 1213.25   20.94
   3  -3  -7 1154.72   18.76
  -3  -3   7 1268.29   21.00
   3   3  -6  103.34    3.64
  -3  -3   6   99.63    3.65
   3   3  -6   94.36    3.48
  -3  -3   6   98.59    3.62
   3  -3  -6   88.69    2.43
   3   3  -5 2979.55   45.91
  -3  -3   5 3044.47   45.95
   3   3  -5 3007.40   46.10
  -3  -3   5 3007.51   46.11
   3  -3  -5 2960.14   44.31
   3   3  -4  691.39   12.29
   3   3  -4  690.26   12.50
  -3  -3   4  680.71   12.53
  -3   3   4  679.95   10.93
   3   3  -3  490.72    9.54
  -3  -3   3  512.84    9.61
   3   3  -3  506.35    9.26
  -3   3   3  503.40    8.28
  -3  -3   2   38.31    1.95
   3   3  -2   40.88    1.89
  -3   3   2   41.23    1.46
   3  -3  -2   37.93    1.40
   3   3  -1 2574.03   39.22
  -3  -3   1 2637.58   39.24
  -3   3   1 2618.51   38.54
   3  -3  -1 2551.32   38.57
  -3  -3   0 1490.75   22.82
   3   3   0 1472.30   22.78
   3  -3   0 1430.56   22.69
  -3   3   0 1486.30   22.69
   3   3   1 1230.88   19.14
  -3   3  -1 1242.15   19.59
   3  -3   1 1229.01   19.58
  -3  -3  -1 1233.45   19.15
   3   3   2  292.37    5.35
   3  -3   2  291.42    6.14
  -3  -3  -2  293.52    5.38
  -3  -3  -2  296.20    5.35
   3   3   3  189.89    3.68
  -3  -3  -3  195.74    3.88
   3  -3   3  200.00    4.88
  -3   3  -4  800.90   14.13
   3  -3   4  823.95   14.32
   3  -3   4  813.21   14.34
  -3  -3  -4  807.64   12.78
   3   3   4  797.90   12.35
   3   3   4  805.22   12.78
  -3   3  -5  620.35   11.76
   3  -3   5  634.25   11.81
  -3  -3  -5  613.74   10.25
   3   3   5  618.70   10.27
   3  -3   5  634.46   11.97
   3   3   5  616.98    9.59
   3  -3   6  127.57    4.25
   3   3   6  125.43    3.11
  -3   3  -6  127.30    4.20
   3  -3   6  124.93    4.17
   3  -3   6  129.68    4.28
   3   3   7 1563.29   23.14
   3   3   7 1521.15   24.27
   3  -3   7 1567.12   26.44
   3  -3   7 1583.41   26.14
  -3   3  -7 1580.89   26.41
   3  -3   7 1569.17   26.25
   3   3   8  110.60    2.38
   3  -3   8  118.51    4.21
   3  -3   8  118.15    4.44
   3   3   8  110.81    3.24
   3  -3   8  116.64    4.53
   3   3   9   37.65    1.27
   3  -3   9   33.95    2.36
   3  -3   9   39.33    2.66
   3   3   9   35.32    1.83
   3  -3   9   36.34    2.58
   3   3  10    8.79    0.66
   3   3  10   10.66    1.19
   3  -3  10    9.23    1.50
   3  -3  10   10.34    1.56
   3  -3  10    7.72    1.53
   3  -3  11  145.36    5.31
   3   3  11  159.38    3.46
   3   3  11  149.67    4.53
   3  -3  11  158.76    5.82
   3  -3  11  146.27    5.77
   3  -3  12    5.07    1.31
   3   3  12    6.14    0.65
   3  -3  12    8.36    1.64
   3   3  12    4.81    1.02
   3  -3  12    8.80    1.85
   3   3  13  380.56    6.99
   3  -3  13  343.84    9.44
   3   3  13  366.60    8.66
   3  -3  13  373.24   10.65
   3  -3  14    8.11    1.60
   3   3  14    7.01    0.72
   3  -3  14    8.85    1.97
   3   3  14    8.86    1.33
   3  -3  15  101.03    4.90
   3  -3  15  102.20    5.56
   3   3  15  100.22    4.23
   3   3  15  104.08    2.91
   3  -3  16    0.24    1.26
   3  -3  16    0.55    1.57
   3  -3  17   51.57    3.72
   3  -3  17   47.70    4.10
   3  -3  18    2.20    1.44
   3  -3  18    3.08    1.97
   3  -3  19  114.02    5.67
   3   3  19  117.90    6.98
   3  -3  19  122.42    7.08
  -3  -5  20    9.80    2.16
  -3  -5  19   22.64    3.01
  -3  -5  18    6.94    1.88
  -3  -5  18    7.23    2.16
  -3  -5  17   88.71    5.24
  -3  -5  17   87.92    5.78
  -3  -5  16   51.26    3.95
  -3  -5  16   57.04    4.46
  -3  -5  15  274.55    9.25
  -3  -5  15  303.79   10.29
  -3  -5  14   98.16    5.08
  -3   5  14   92.91    3.25
  -3  -5  14   97.00    5.42
  -3  -5  13    7.29    1.79
  -3   5  13    6.40    0.94
  -3  -5  13    7.98    1.94
   3  -5 -12   52.96    1.50
  -3  -5  12   53.04    3.82
  -3  -5  12   50.07    3.43
   3  -5 -11  189.55    3.67
   3   5 -11  193.77    6.72
  -3  -5  11  175.47    6.44
   3   5 -10   92.25    4.28
   3  -5 -10   77.10    1.99
  -3  -5  10   82.42    4.12
   3  -5  -9  152.58    3.22
   3   5  -9  157.56    5.68
  -3  -5   9  152.31    5.58
   3   5  -8   -0.35    1.00
   3   5  -8   -0.25    0.85
  -3  -5   8    0.42    1.13
   3  -5  -8    3.95    0.50
  -3   5   8    0.78    0.42
  -3  -5   7 2658.06   42.53
   3   5  -7 2718.53   42.77
   3   5  -7 2704.29   42.56
  -3   5   7 2668.42   38.83
   3  -5  -7 2559.81   39.22
  -3  -5   6   21.41    2.00
  -3   5   6   21.04    0.85
   3   5  -6   20.19    1.82
   3   5  -6   21.69    1.95
   3   5  -5 3020.65   46.72
  -3  -5   5 2942.42   46.67
  -3   5   5 2959.98   43.42
   3   5  -5 2985.58   46.43
  -3  -5   4  215.66    5.94
   3   5  -4  224.91    5.94
  -3   5   4  210.47    3.99
   3   5  -3 1714.84   27.71
  -3  -5   3 1760.72   27.76
  -3   5   3 1699.08   25.57
   3  -5  -3 1660.21   25.58
  -3  -5   2    5.70    1.16
  -3   5   2    5.49    0.76
   3  -5  -2    5.62    0.71
   3   5  -2    8.35    1.15
   3   5  -1 1192.64   19.47
  -3  -5   1 1158.99   19.44
   3  -5  -1 1148.46   18.58
   3   5   0  368.47    7.48
  -3  -5   0  366.97    7.50
   3  -5   0  364.16    7.24
  -3  -5  -1 1043.41   16.95
   3   5   1 1018.27   16.90
   3  -5   1 1024.67   17.25
   3  -5   1 1030.67   17.61
   3   5   2  300.39    6.08
  -3  -5  -2  315.26    6.17
   3  -5   2  309.64    7.12
   3  -5   2  311.58    6.90
   3   5   3  580.75    9.91
   3  -5   3  585.17   11.52
   3  -5   3  601.72   11.44
  -3  -5  -3  579.81    9.91
   3   5   4  228.55    4.48
   3  -5   4  251.30    6.38
  -3  -5  -4  234.78    4.42
   3  -5   4  239.50    6.24
  -3  -5  -4  228.25    4.46
   3   5   5 1341.79   20.39
  -3   5  -5 1376.30   23.39
   3  -5   5 1404.75   23.61
  -3  -5  -5 1359.19   20.58
   3  -5   5 1407.71   23.63
  -3   5  -6   13.01    1.53
   3  -5   6   11.44    1.66
   3  -5   6   13.71    1.61
  -3  -5  -6   12.16    0.72
   3  -5   7  776.63   15.52
  -3   5  -7  795.33   15.67
   3  -5   7  812.05   15.92
   3  -5   8  182.24    5.95
  -3   5  -8  187.45    6.13
   3  -5   8  195.94    6.29
   3   5   8  179.56    3.82
   3  -5   9  349.79    9.28
  -3   5  -9  372.72    9.67
   3  -5   9  380.58    9.78
   3   5   9  357.90    6.69
   3  -5  10    4.63    1.38
   3  -5  10    4.37    1.25
   3   5  10    4.18    0.68
   3  -5  11  544.64   12.96
   3   5  11  565.18   10.11
   3  -5  12   23.73    2.49
   3   5  12   25.08    1.53
   3  -5  13  375.10   10.51
   3   5  13  381.70    7.94
   3  -5  14    9.01    1.86
   3   5  14    8.53    1.15
   3  -5  15   85.40    4.83
   3  -5  16   19.04    2.54
   3  -5  17  120.00    6.06
   3  -5  18   10.93    2.20
   3  -5  19   97.48    5.68
   3  -5  20    5.44    1.87
  -3  -7  20   20.17    3.08
  -3  -7  19   50.50    4.68
  -3  -7  18   74.75    5.26
  -3  -7  17  409.80   12.80
  -3  -7  16   41.68    3.85
  -3  -7  15  328.52   10.88
  -3  -7  14   14.90    2.45
  -3  -7  13  320.13   10.13
  -3  -7  12  158.60    6.63
  -3  -7  11   10.13    1.90
  -3  -7  10    0.45    1.30
   3  -7  -9  809.93   12.41
   3   7  -9  854.01   17.36
  -3  -7   9  823.95   17.18
   3  -7  -9  801.68   12.40
   3  -7  -8    0.31    0.35
   3   7  -8    2.57    1.29
   3   7  -8    2.42    1.11
  -3  -7   8    1.39    1.23
   3  -7  -8    0.88    0.38
   3   7  -7 1407.23   24.98
   3   7  -7 1364.43   25.13
   3  -7  -7 1371.91   21.33
  -3  -7   7 1344.97   25.02
   3  -7  -6   51.46    1.97
   3   7  -6   53.44    3.12
   3   7  -6   51.49    3.03
  -3  -7   6   46.45    3.06
   3  -7  -5 1880.68   29.43
   3   7  -5 1927.18   32.14
  -3  -7   5 1900.62   32.07
   3   7  -4    6.11    1.36
   3  -7  -4    7.13    1.01
  -3  -7   4    6.46    1.54
   3  -7  -4    4.41    0.57
  -3  -7   3 1673.90   27.90
   3   7  -3 1649.79   27.88
   3  -7  -3 1620.47   25.36
   3  -7  -3 1661.26   26.37
  -3  -7   2  148.47    4.91
   3   7  -2  161.28    5.01
   3  -7  -2  152.07    3.88
   3  -7  -2  152.53    4.42
   3   7  -1  198.23    5.60
  -3  -7   1  194.94    5.56
   3  -7  -1  195.36    4.84
   3  -7  -1  201.26    5.36
  -3  -7   0   48.22    2.45
   3   7   0   47.47    2.43
   3  -7   0   49.37    2.27
   3  -7   0   46.49    2.50
   3   7   1 1020.75   17.74
  -3  -7  -1 1033.25   17.75
   3  -7   1 1028.06   17.97
   3  -7   1 1045.97   18.50
  -3  -7  -2  213.67    5.24
   3   7   2  205.65    5.18
   3  -7   2  212.76    5.79
   3  -7   2  209.61    6.06
  -3  -7  -3  503.80    9.47
   3  -7   3  521.64   11.17
   3   7   3  498.48    9.47
   3  -7   3  507.35   10.81
  -3  -7  -4    3.28    0.66
   3  -7   4    1.78    1.11
   3   7   4    3.18    0.64
   3  -7   4    4.12    1.15
  -3  -7  -4    3.48    0.61
   3  -7   5  498.76   11.37
   3   7   5  491.53    8.71
  -3  -7  -5  499.34    8.20
   3  -7   5  515.86   11.38
  -3  -7  -5  500.95    8.72
   3  -7   6   21.85    2.11
  -3   7  -6   22.26    2.16
   3  -7   6   19.75    2.14
   3  -7   7  291.12    8.30
   3  -7   7  300.70    8.49
  -3   7  -7  290.50    8.31
   3  -7   8  347.77    9.56
   3  -7   8  363.90    9.80
  -3   7  -8  351.48    9.62
   3  -7   9   75.84    4.24
   3  -7  10   10.77    1.95
   3  -7  11  667.70   15.52
   3  -7  12   52.98    3.80
   3  -7  13  291.03    9.54
   3  -7  14    1.24    1.38
   3  -7  15   92.07    5.44
   3  -7  16   40.29    3.78
   3  -7  17  106.40    6.11
   3  -7  18    4.84    1.96
   3  -7  19  109.44    6.35
   3  -7  20    5.41    2.29
  -3  -9  17  223.29    9.60
  -3  -9  16  247.16    9.96
  -3  -9  15  727.48   18.61
  -3  -9  14    4.16    1.96
  -3  -9  13  127.42    6.56
  -3  -9  12   10.24    2.23
  -3  -9  11  343.99   10.81
  -3  -9  10   56.55    4.10
  -3  -9   9  717.63   16.78
   3  -9  -9  744.31   11.73
   3  -9  -9  748.27   11.74
  -3  -9   8   21.35    2.50
   3  -9  -8   20.84    1.18
  -3  -9   7  619.78   14.53
   3  -9  -7  621.38   11.08
   3  -9  -6   14.18    1.23
  -3  -9   6   12.85    1.94
   3  -9  -5 1377.15   23.07
   3   9  -5 1502.38   26.16
  -3  -9   5 1374.65   25.70
   3  -9  -5 1395.73   21.29
   3   9  -4   11.53    1.70
   3  -9  -4   13.66    1.38
  -3  -9   4   15.82    2.03
   3  -9  -4   10.68    0.90
  -3  -9   3  996.52   19.22
   3  -9  -3  981.55   16.62
   3   9  -3 1037.37   19.42
   3  -9  -3 1001.75   17.84
  -3  -9   2  669.36   14.00
   3  -9  -2  654.42   12.25
   3  -9  -2  691.67   13.35
   3   9  -2  682.71   14.15
  -3  -9   1 1316.55   23.65
   3  -9  -1 1321.77   22.43
   3   9  -1 1376.22   23.86
   3  -9  -1 1358.23   23.45
  -3  -9   0  135.76    4.70
   3  -9   0  131.76    4.36
   3  -9   0  136.51    4.90
   3   9   0  137.20    4.74
  -3  -9  -1 1833.59   30.40
   3  -9   1 1853.13   30.56
   3   9   1 1845.86   30.52
   3  -9   1 1854.59   31.22
  -3  -9  -2   10.76    1.30
   3  -9   2   11.41    1.45
   3   9   2    8.64    1.19
   3  -9   2   11.51    1.76
  -3  -9  -3 1283.62   21.55
   3  -9   3 1263.30   23.38
   3  -9   3 1315.34   23.08
   3   9   3 1245.53   21.45
  -3  -9  -4   94.30    3.27
   3  -9   4   90.42    4.37
   3   9   4   89.83    3.21
   3  -9   4  100.87    4.37
   3  -9   5  763.45   16.55
   3  -9   5  831.92   16.65
  -3  -9  -5  795.44   12.73
  -3  -9  -5  778.33   13.73
  -3  -9  -6    2.28    0.61
   3  -9   6    3.18    1.18
   3  -9   6    1.08    1.30
   3  -9   7  142.44    6.02
   3  -9   8   67.58    4.19
   3  -9   9  195.22    7.46
   3  -9  10   12.00    2.25
   3  -9  11  447.18   12.66
   3  -9  12  204.21    8.18
   3  -9  13  272.23    9.77
   3  -9  14    0.85    1.66
   3  -9  15   59.66    4.65
   3  -9  16    1.02    1.84
   3  -9  17  115.06    6.76
  -3 -11  15   40.03    4.19
  -3 -11  14   17.06    2.90
  -3 -11  13   98.79    6.12
  -3 -11  12   26.50    3.31
  -3 -11  11  387.43   12.35
  -3 -11  10    6.57    2.15
  -3 -11   9  112.93    5.89
   3 -11  -9  110.46    2.86
  -3 -11   8   62.30    4.38
   3 -11  -8   63.46    2.39
  -3 -11   7  218.25    8.09
   3 -11  -7  225.71    5.62
  -3 -11   6  219.25    7.96
   3 -11  -6  222.84    5.89
   3 -11  -5  208.94    5.88
  -3 -11   5  205.30    7.49
   3 -11  -5  210.10    4.43
  -3 -11   4  132.15    5.75
   3 -11  -4  136.12    4.73
   3 -11  -4  139.87    3.80
  -3 -11   3  368.62   10.19
   3 -11  -3  377.56    9.11
   3 -11  -3  376.26    8.01
  -3 -11   2   54.61    3.46
   3 -11  -2   48.13    2.93
   3 -11  -2   49.76    2.55
   3  11  -2   54.23    3.39
  -3 -11   1  362.28    9.62
   3 -11  -1  381.08    9.53
   3 -11  -1  362.79    8.60
   3  11  -1  388.11    9.89
  -3 -11   0    8.58    1.51
   3 -11   0    9.57    1.34
   3  11   0    8.20    1.39
   3 -11   0   12.08    1.86
   3 -11   1  724.46   15.58
  -3 -11  -1  729.13   14.92
   3 -11   1  738.60   14.91
   3  11   1  730.94   14.96
  -3 -11  -2  153.05    5.25
   3 -11   2  152.09    5.96
   3 -11   2  158.30    5.65
   3  11   2  155.96    5.27
  -3 -11  -3  814.44   15.82
   3 -11   3  824.70   17.59
   3 -11   3  850.89   17.15
  -3 -11  -4    9.05    1.25
   3 -11   4   10.18    1.93
   3 -11   4   10.41    1.72
   3 -11   5  253.95    8.51
  -3 -11  -5  251.88    6.42
  -3 -11  -5  268.85    5.37
   3 -11   6   29.32    2.93
  -3 -11  -6   34.49    1.90
   3 -11   7   54.98    4.00
  -3 -11  -7   54.42    2.11
   3 -11   8   94.66    5.30
   3 -11   9  247.53    9.13
   3 -11  10   15.46    2.64
   3 -11  11  450.64   13.46
   3 -11  12   31.03    3.49
   3 -11  13  129.50    7.05
   3 -11  14   24.03    3.31
   3 -11  15   86.02    5.96
  -3 -13  12   11.89    2.90
  -3 -13  11  398.72   13.18
  -3 -13  10  104.52    6.32
  -3 -13   9  348.26   11.73
  -3 -13   8   13.41    2.46
   3 -13  -7   53.26    2.71
  -3 -13   7   54.15    4.20
  -3 -13   6   47.97    3.89
   3 -13  -6   44.49    2.64
  -3 -13   5  732.53   17.48
   3 -13  -5  754.41   15.11
   3 -13  -4   26.46    2.29
  -3 -13   4   21.83    2.70
   3 -13  -4   19.54    1.47
  -3 -13   3  367.81   10.83
   3 -13  -3  369.45    9.73
   3 -13  -3  388.36    8.58
  -3 -13   2   12.03    2.02
   3 -13  -2   12.45    1.46
   3 -13  -2    9.67    1.71
   3 -13  -1  192.87    6.87
  -3 -13   1  199.78    7.25
   3 -13  -1  200.53    6.23
  -3 -13   0   28.51    2.71
   3 -13   0   26.65    2.29
   3 -13   0   25.84    2.60
   3 -13   1  504.48   12.86
  -3 -13  -1  505.18   12.28
   3 -13   1  512.25   12.09
   3 -13   2  300.67    9.53
  -3 -13  -2  309.95    8.75
   3 -13   2  326.76    9.19
  -3 -13  -3  636.30   13.73
   3 -13   3  626.25   15.33
  -3 -13  -4   17.99    1.89
   3 -13   4   18.55    2.71
  -3 -13  -4   17.57    1.41
  -3 -13  -5  117.87    4.40
   3 -13   5  113.89    5.90
  -3 -13  -5  120.30    3.32
   3 -13   6    0.03    1.71
  -3 -13  -6   -0.38    0.71
   3 -13   7   70.19    4.89
  -3 -13  -7   70.79    2.83
   3 -13   8   64.62    4.75
   3 -13   9  266.19   10.13
   3 -13  10    1.15    1.73
   3 -13  11  325.40   11.76
   3 -13  12    1.39    1.76
  -3 -15   9   91.63    6.13
  -3 -15   8   -1.03    1.64
  -3 -15   7  131.04    7.04
  -3 -15   6    3.67    1.81
   3 -15  -5  675.88   14.69
  -3 -15   5  667.84   17.29
  -3 -15   4   47.84    4.06
   3 -15  -4   53.81    3.56
   3 -15  -3  685.28   15.50
  -3 -15   3  682.78   16.98
   3 -15  -2    7.31    1.66
  -3 -15   2    4.14    1.58
  -3 -15   1  109.93    5.67
   3 -15  -1  115.00    5.56
  -3 -15   0    0.70    1.34
   3 -15   0    3.88    1.69
   3 -15   1  342.92   10.76
  -3 -15  -1  355.21   10.34
   3 -15   2   36.70    3.51
  -3 -15  -2   36.34    3.03
   3 -15   3  459.98   13.33
  -3 -15  -3  468.07   11.76
   3 -15   4    4.45    2.02
  -3 -15  -4    0.38    0.98
  -3 -15  -5   98.73    4.33
   3 -15   5   99.03    5.91
   3 -15   6   17.34    2.79
   3 -15   7   44.06    4.24
   3 -15   8   17.62    2.92
   3 -15   9  244.01   10.25
  -3 -17   6    5.37    2.36
  -3 -17   5  460.79   14.39
  -3 -17   4   48.63    4.34
   3 -17  -3  366.20   10.79
  -3 -17   3  349.75   11.99
  -3 -17   2    4.11    1.85
   3 -17  -2    6.95    1.76
   3 -17  -1  112.24    5.98
  -3 -17   1  110.22    6.11
  -3 -17   0    8.51    2.09
   3 -17   0    3.46    1.65
   3 -17   1   62.88    4.70
  -3 -17  -1   66.26    4.49
  -3 -17  -2    0.09    1.35
   3 -17   2    0.28    1.61
   3 -17   3  247.54    9.90
   3 -17   4    3.14    1.86
   3 -17   5   57.50    4.87
  -3 -19   2   84.35    5.88
  -3 -19   1   28.58    3.46
   3 -19   0    2.33    1.76
   3 -19   1   41.34    4.16
  -4   0  19   -4.87    2.35
  -4   0  18   46.97    4.33
  -4   0  18   45.27    3.05
  -4   0  17   -1.26    1.62
  -4   0  17    1.56    1.17
   4   0 -16   15.80    1.84
  -4   0  16   11.99    2.41
  -4   0  16   16.82    1.91
  -4   0  15   -0.67    1.37
   4   0 -15    0.33    0.92
  -4   0  15    0.78    1.09
  -4   0  14    1.85    1.63
   4   0 -14    1.91    0.91
  -4   0  14    1.75    1.00
   4   0 -13    1.72    0.80
  -4   0  13    1.63    1.01
   4   0 -12  711.06   14.14
  -4   0  12  743.80   14.28
   4   0 -11    2.29    0.84
  -4   0  11    0.88    0.85
   4   0 -10  713.03   13.69
  -4   0  10  736.76   13.74
   4   0  -9    0.32    0.69
  -4   0   9    0.83    0.84
  -4   0   8   17.95    1.52
   4   0  -8   18.07    1.46
  -4   0   7    0.63    0.82
   4   0  -7    1.17    0.73
   4   0  -6 1454.54   23.51
  -4   0   6 1481.04   23.51
   4   0  -5    1.29    0.74
  -4   0   5    1.15    0.91
   4   0  -4  612.93   10.78
  -4   0   4  621.85   10.81
   4   0  -3    1.49    0.77
  -4   0   3    1.29    0.93
   4   0  -2 1805.97   27.58
  -4   0   1    0.90    0.87
   4   0   0 1733.38   26.73
  -4   0   0 1782.23   26.75
   4   0   1    1.14    0.66
  -4   0  -1    1.22    0.82
  -4   0  -2 5534.32   81.21
   4   0   2 5550.33   81.16
   4   0   2 5534.38   80.40
  -4   0  -3    2.84    0.95
   4   0   3    2.46    0.80
  -4   0  -4 3059.30   46.34
   4   0   4 3091.36   46.37
  -4   0  -5   -0.49    0.89
   4   0   5   -0.43    0.73
   4   0   6 1692.36   27.08
   4   0   7    0.34    0.74
   4   0   7    0.18    0.71
   4   0   8  386.17    8.61
   4   0   8  401.39    8.11
   4   0   9   -0.02    0.77
   4   0   9    0.42    0.74
   4   0  10 1556.60   25.65
   4   0  10 1578.24   26.71
   4   0  10 1571.12   27.50
   4   0  11    1.71    0.90
   4   0  11    1.01    0.81
   4   0  11   -2.26    1.40
   4   0  12  876.60   16.21
   4   0  12  886.70   17.35
   4   0  12  886.75   18.26
   4   0  13    0.24    0.75
   4   0  13    1.49    1.00
   4   0  13    0.15    1.20
   4   0  14  410.37    9.49
   4   0  14  416.09   10.63
   4   0  14  401.58   11.47
   4   0  15   -0.07    1.48
   4   0  15    0.13    0.92
   4   0  16  861.78   19.90
   4   0  16  861.94   16.77
   4   0  17   -1.98    1.70
   4   0  17    0.00    0.88
   4   0  18  275.26   10.46
   4   0  19    0.66    1.73
  -4  -2  19   -1.61    1.59
  -4   2  19   -0.52    1.67
  -4  -2  19    1.75    1.28
  -4  -2  18  195.66    8.65
  -4  -2  18  188.74    7.21
  -4  -2  17    3.21    1.68
  -4  -2  17    0.42    1.29
  -4  -2  16   14.62    2.58
  -4  -2  16   15.04    2.02
   4  -2 -15    5.31    1.05
   4   2 -15    6.78    1.42
  -4  -2  15    5.46    1.89
  -4  -2  15    5.04    1.47
   4  -2 -14  112.70    3.99
   4   2 -14  103.11    4.69
  -4  -2  14  104.94    5.42
  -4  -2  14  110.53    4.81
  -4   2  14  115.99    4.05
   4   2 -13   80.44    3.98
  -4  -2  13   88.89    4.72
   4  -2 -13   90.65    3.41
  -4  -2  13   90.05    4.25
  -4   2  13   91.80    3.45
  -4  -2  12 1200.17   23.08
   4  -2 -12 1180.36   20.29
  -4  -2  12 1157.67   21.89
   4   2 -12 1213.71   22.05
  -4   2  12 1221.81   20.39
   4   2 -11   15.33    1.65
  -4  -2  11   14.99    1.96
   4  -2 -11   11.87    1.19
  -4  -2  11   14.46    1.71
  -4   2  11   13.61    1.30
  -4  -2  10  680.84   14.28
  -4  -2  10  686.67   13.73
   4  -2 -10  667.01   12.29
   4   2 -10  671.40   13.68
  -4   2  10  679.87   12.34
  -4  -2   9   13.39    1.68
   4   2  -9   12.01    1.46
   4  -2  -9   12.07    1.10
  -4  -2   9   10.01    1.46
  -4  -2   8    3.49    1.12
   4   2  -8    5.28    1.18
   4  -2  -8    3.82    0.75
  -4  -2   8    5.54    1.16
  -4  -2   7   20.74    1.77
   4   2  -7   21.93    1.71
   4  -2  -7   19.04    1.26
  -4  -2   7   20.47    1.75
  -4  -2   6  796.65   14.15
   4   2  -6  770.56   14.08
  -4  -2   6  794.92   14.22
   4  -2  -6  753.48   12.98
  -4  -2   5   91.93    3.10
   4   2  -5   89.02    3.16
  -4  -2   5   89.79    3.25
   4  -2  -5   79.13    2.51
  -4  -2   4 1708.13   26.20
  -4  -2   4 1686.53   26.66
   4   2  -4 1662.58   26.56
   4  -2  -4 1637.77   25.68
  -4  -2   3  157.34    3.72
   4   2  -3  156.00    3.71
  -4  -2   3  157.35    4.16
   4   2  -3  157.77    4.09
  -4   2   3  156.89    3.58
   4   2  -2   52.32    1.75
   4   2  -2   51.58    2.10
  -4  -2   2   52.76    2.22
  -4   2   2   51.87    1.85
   4  -2  -2   49.81    1.79
  -4  -2   1   18.41    1.37
   4   2  -1   18.38    1.27
  -4   2   1   17.94    1.19
   4  -2  -1   18.81    1.17
   4  -2   0  260.21    5.25
  -4   2   0  257.54    5.23
  -4  -2   0  255.49    5.19
   4   2   0  251.35    5.14
  -4   2  -1    6.22    1.04
   4  -2   1    4.18    0.88
   4   2   1    5.09    0.80
  -4  -2  -1    3.82    0.90
   4  -2   2 1176.42   19.06
  -4   2  -2 1177.52   19.07
  -4  -2  -2 1181.00   18.50
   4   2   2 1176.05   18.44
   4   2   2 1177.86   18.30
  -4   2  -3   22.12    1.39
   4  -2   3   19.87    1.47
  -4   2  -3   19.61    1.63
  -4  -2  -3   19.14    1.22
   4   2   3   20.52    1.20
  -4   2  -4  694.65   12.52
   4   2   4  690.21   11.55
  -4  -2  -4  677.36   11.53
   4  -2   4  691.64   12.46
  -4   2  -4  679.79   12.10
   4   2   5  373.01    7.10
  -4  -2  -5  366.89    7.09
   4  -2   5  367.96    7.99
  -4   2  -5  362.38    7.76
   4  -2   5  381.92    7.86
   4  -2   6  110.36    3.88
   4   2   6  114.90    3.28
  -4  -2  -6  111.61    3.24
   4  -2   6  108.25    3.79
   4  -2   6  122.97    3.90
   4   2   7  121.27    3.56
   4  -2   7  128.22    4.35
   4  -2   7  126.65    4.09
   4  -2   7  118.64    4.16
   4  -2   8  313.14    7.81
   4   2   8  296.78    6.71
   4   2   8  304.51    5.94
   4  -2   8  302.68    7.70
   4  -2   8  304.41    7.36
   4   2   9  100.95    2.86
   4   2   9   97.15    3.42
   4  -2   9  102.46    4.19
   4  -2   9  103.03    3.89
   4  -2   9   99.22    4.24
   4   2  10  809.15   13.75
   4  -2  10  788.53   15.47
   4   2  10  808.91   14.99
   4  -2  10  857.97   16.48
   4  -2  10  825.22   16.48
   4   2  11   34.96    1.71
   4  -2  11   31.18    2.34
   4  -2  11   35.31    2.65
   4   2  11   32.58    2.15
   4  -2  11   38.51    2.96
   4   2  12  541.56   10.22
   4  -2  12  548.97   12.05
   4   2  12  545.39   11.59
   4  -2  12  562.45   12.91
   4  -2  12  540.14   13.08
   4   2  13    0.40    0.58
   4  -2  13    0.87    0.93
   4   2  13    1.00    0.84
   4  -2  13    0.72    1.27
   4  -2  14  279.25    8.08
   4   2  14  287.47    6.53
   4   2  14  279.76    7.84
   4  -2  14  283.26    9.31
   4   2  15   70.89    2.84
   4  -2  15   72.81    3.92
   4   2  15   67.85    3.60
   4  -2  15   69.86    4.60
   4  -2  16  582.88   13.52
   4   2  16  599.15   11.35
   4   2  16  562.44   13.24
   4  -2  16  561.86   15.31
   4   2  17    5.10    1.91
   4  -2  17    5.65    1.89
   4  -2  17    8.62    1.64
   4  -2  18  265.19   10.29
   4   2  18  274.94   10.41
   4  -2  18  264.64    8.49
   4   2  19    4.09    1.90
   4  -2  19   11.71    2.66
  -4  -4  20   32.67    3.50
  -4  -4  19    3.36    1.62
  -4  -4  18   33.47    3.65
  -4  -4  18   29.42    3.06
  -4  -4  17   47.65    4.22
  -4  -4  17   42.91    3.60
  -4  -4  16    8.51    2.16
  -4  -4  16    3.25    1.50
  -4  -4  15    5.76    2.01
  -4  -4  15    4.23    1.60
   4  -4 -14   29.61    1.63
  -4  -4  14   26.31    2.88
  -4  -4  14   24.85    2.69
   4  -4 -13   16.53    1.21
  -4  -4  13   17.84    2.37
  -4  -4  13   16.88    2.16
   4   4 -12  524.83   12.59
  -4  -4  12  531.75   13.15
   4  -4 -12  550.82    9.84
  -4  -4  12  506.45   12.46
  -4  -4  11    1.03    1.28
   4   4 -11    2.09    1.07
  -4  -4  11    2.55    1.33
   4  -4 -11    1.10    0.48
  -4  -4  10  444.06   10.93
  -4  -4  10  442.76   10.77
   4   4 -10  458.45   10.89
   4  -4 -10  449.22    8.32
  -4  -4   9  221.73    6.79
   4   4  -9  234.23    6.84
  -4  -4   9  221.95    6.79
   4  -4  -9  218.81    4.85
  -4  -4   8  218.93    6.36
   4  -4  -8  199.57    4.52
  -4  -4   8  208.55    6.33
   4   4  -8  215.39    6.39
   4   4  -7   17.62    1.79
   4   4  -7   15.47    1.63
  -4  -4   7   14.08    1.75
   4  -4  -7   13.91    1.00
   4   4  -6  801.49   14.98
   4   4  -6  812.50   15.37
  -4  -4   6  805.67   15.26
  -4   4   6  815.50   13.05
   4  -4  -6  782.96   13.24
   4   4  -5   59.10    2.68
  -4  -4   5   54.76    2.84
   4   4  -5   54.64    2.71
  -4   4   5   54.51    1.81
  -4  -4   4 1560.71   25.35
   4   4  -4 1538.15   25.29
   4   4  -4 1513.52   24.72
  -4   4   4 1512.44   23.30
   4   4  -3  571.89   10.99
  -4  -4   3  593.60   11.13
  -4   4   3  572.30    9.62
   4  -4  -3  553.20    9.59
  -4  -4   2    4.65    1.19
   4   4  -2    5.69    1.04
  -4   4   2    6.73    0.89
   4  -4  -2    3.59    0.69
   4   4  -1  752.95   13.21
  -4  -4   1  764.88   13.29
   4  -4  -1  737.51   12.60
  -4   4   1  754.80   12.61
   4   4   0   52.60    2.17
  -4  -4   0   59.87    2.37
  -4   4   0   58.46    2.26
   4  -4   0   54.26    2.17
   4   4   1   59.54    2.19
  -4   4  -1   60.70    2.47
   4  -4   1   60.27    2.40
  -4  -4  -1   62.65    2.26
   4   4   2  713.83   12.04
   4  -4   2  727.43   12.96
  -4  -4  -2  720.59   12.03
   4   4   3  150.94    3.47
   4  -4   3  158.51    4.52
  -4  -4  -3  152.09    3.54
  -4  -4  -3  154.21    3.50
   4   4   4  849.15   13.50
   4  -4   4  869.86   15.51
  -4   4  -4  830.29   15.28
   4  -4   4  872.85   15.57
  -4  -4  -4  845.97   13.73
   4   4   5   92.65    2.24
  -4   4  -5   96.63    3.55
   4  -4   5   97.43    3.71
   4  -4   5   97.08    3.70
  -4  -4  -5   91.84    2.55
   4   4   5   94.48    2.59
  -4   4  -6  792.06   14.88
   4  -4   6  802.21   14.97
   4  -4   6  791.98   15.11
  -4  -4  -6  772.16   12.84
   4   4   6  779.63   12.05
   4   4   6  768.97   12.84
  -4   4  -7   77.09    3.48
   4  -4   7   84.63    3.68
   4  -4   7   78.17    3.58
  -4  -4  -7   76.79    2.42
   4   4   7   78.89    2.44
   4   4   7   78.06    1.72
   4  -4   8  325.57    8.45
   4   4   8  313.03    6.40
  -4   4  -8  314.65    8.27
   4  -4   8  316.31    8.19
   4  -4   9   20.25    2.01
   4   4   9   18.68    1.31
   4  -4   9   19.25    1.96
   4  -4  10 1121.83   21.01
   4  -4  10 1160.97   21.68
   4   4  10 1100.74   18.68
   4  -4  10 1126.24   21.52
   4  -4  11  180.19    6.31
   4   4  11  183.07    4.96
   4  -4  11  206.55    6.97
   4  -4  11  182.36    6.65
   4  -4  12  345.55    9.54
   4   4  12  353.53    7.86
   4  -4  12  346.98   10.01
   4  -4  13   88.35    4.54
   4   4  13   94.61    3.58
   4  -4  13   87.69    4.86
   4  -4  14  106.79    5.14
   4   4  14  113.70    4.16
   4  -4  14  114.41    5.77
   4  -4  15   -0.59    1.19
   4   4  15    0.58    0.77
   4  -4  15   -0.72    1.54
   4  -4  16  476.00   13.76
   4  -4  16  461.61   12.44
   4  -4  17    0.05    1.57
   4  -4  17    2.47    1.53
   4  -4  18  219.89    9.31
   4  -4  18  204.80    8.00
   4  -4  19   49.99    3.93
  -4  -6  20   20.50    3.16
  -4  -6  19    2.84    1.74
  -4  -6  18   51.35    4.35
  -4  -6  17   17.78    2.84
  -4  -6  16  121.32    6.26
  -4  -6  15   67.87    4.56
  -4  -6  14   39.69    3.49
  -4   6  14   43.04    1.90
  -4  -6  13  328.43   10.29
  -4   6  13  358.74    6.92
  -4   6  13  357.48    6.93
   4  -6 -12  791.84   12.37
  -4  -6  12  768.22   17.52
  -4   6  12  832.52   13.33
   4  -6 -11    2.17    0.44
  -4  -6  11    2.87    1.47
  -4   6  11    2.96    0.59
  -4  -6  10  546.13   13.21
   4  -6 -10  552.25    9.33
  -4   6  10  568.73    9.30
   4   6  -9   68.29    3.83
  -4  -6   9   64.72    3.79
   4  -6  -9   66.49    2.05
   4   6  -9   70.42    3.80
  -4   6   9   68.18    1.81
   4   6  -8  192.33    6.40
  -4  -6   8  176.64    6.22
   4   6  -8  189.25    6.22
  -4   6   8  183.47    3.52
   4  -6  -8  177.70    4.04
   4   6  -7  368.83    9.32
  -4  -6   7  342.47    9.08
  -4   6   7  356.16    6.06
   4   6  -7  362.72    9.06
   4   6  -6 1360.35   23.77
  -4  -6   6 1303.22   23.57
  -4   6   6 1310.45   20.00
   4   6  -6 1344.97   23.35
   4   6  -5  227.99    6.62
  -4  -6   5  218.73    6.54
   4   6  -5  232.08    6.37
  -4   6   5  228.59    4.40
   4   6  -4 1944.08   31.33
  -4  -6   4 1874.16   31.18
  -4   6   4 1891.49   28.48
   4  -6  -4 1845.57   28.49
   4   6  -3  723.98   13.88
  -4  -6   3  730.99   13.94
  -4   6   3  719.62   11.94
   4  -6  -3  690.28   11.93
   4   6  -2  563.61   11.32
  -4  -6   2  560.44   11.30
   4  -6  -2  548.68    9.96
   4   6  -1  759.46   14.20
  -4  -6   1  769.71   14.20
   4  -6  -1  774.20   13.38
   4   6   0  177.36    4.85
  -4  -6   0  173.89    4.78
   4  -6   0  165.97    4.53
  -4  -6  -1    8.42    1.09
   4   6   1    7.81    1.04
   4  -6   1    6.39    1.16
   4   6   2  360.10    7.30
  -4  -6  -2  359.91    7.33
   4  -6   2  356.59    8.29
   4  -6   2  352.36    8.00
   4   6   3   27.12    1.48
   4  -6   3   27.53    2.13
   4  -6   3   30.19    2.08
  -4  -6  -3   26.44    1.47
   4   6   4 1476.17   22.35
   4  -6   4 1408.29   24.66
   4  -6   4 1399.34   24.53
  -4  -6  -4 1409.74   22.27
  -4  -6  -4 1411.62   22.10
   4   6   5   77.24    2.22
  -4  -6  -5   80.36    2.24
   4  -6   5   84.86    3.75
   4  -6   5   79.30    3.72
   4   6   6  956.08   14.90
   4  -6   6 1009.26   18.62
  -4  -6  -6  960.63   15.20
   4  -6   6  966.51   18.48
  -4   6  -6 1000.54   18.47
  -4  -6  -7   45.64    1.52
   4  -6   7   49.08    3.08
  -4   6  -7   50.96    3.09
   4  -6   7   44.76    3.00
   4  -6   8  909.57   18.11
  -4   6  -8  897.21   17.83
   4  -6   8  854.42   17.61
   4  -6   9   85.05    4.31
  -4   6  -9   79.71    4.11
   4  -6   9   79.34    4.17
   4  -6  10 1131.36   22.30
   4   6  10 1165.18   18.25
   4  -6  11  265.35    8.58
   4   6  11  289.18    5.74
   4  -6  12  489.98   12.77
   4   6  12  510.39    9.22
   4  -6  13   70.44    4.35
   4   6  13   72.66    2.53
   4  -6  14  103.43    5.44
   4  -6  15   30.30    3.14
   4  -6  16  429.48   12.59
   4  -6  17   23.88    3.01
   4  -6  18  194.00    8.35
   4  -6  19   32.33    3.57
   4  -6  20   48.22    4.30
  -4  -8  18   35.75    3.85
  -4  -8  17   52.86    4.52
  -4  -8  16    6.49    2.24
  -4  -8  15    7.44    2.22
  -4  -8  14   92.50    5.62
  -4  -8  13  122.59    6.22
  -4  -8  12   65.38    4.48
  -4  -8  11  125.59    5.98
   4  -8 -10  495.13    7.98
   4  -8 -10  486.45    7.96
  -4  -8  10  472.22   12.67
   4  -8  -9  178.23    3.87
  -4  -8   9  157.48    6.56
   4  -8  -9  179.60    3.88
   4  -8  -8  482.02    8.75
   4   8  -8  484.16   11.96
  -4  -8   8  476.26   12.10
   4  -8  -7  344.99    7.01
   4   8  -7  354.46    9.69
   4   8  -7  346.21    9.39
  -4  -8   7  336.23    9.52
   4   8  -6  623.96   13.68
   4  -8  -6  620.92   11.39
   4   8  -6  636.80   14.11
  -4  -8   6  608.78   13.87
   4  -8  -5  222.12    5.49
   4   8  -5  236.10    7.21
  -4  -8   5  220.67    6.97
   4  -8  -5  219.98    4.45
   4  -8  -4  930.86   16.28
   4   8  -4  951.52   18.16
  -4  -8   4  922.93   18.01
   4  -8  -4  907.79   15.10
   4   8  -3  261.42    7.28
  -4  -8   3  248.46    7.17
   4  -8  -3  246.65    5.49
   4  -8  -3  245.51    6.24
   4   8  -2  497.33   10.91
  -4  -8   2  474.51   10.71
   4  -8  -2  480.57    9.35
   4  -8  -2  471.46   10.05
  -4  -8   1    1.98    1.06
   4  -8  -1    4.28    1.00
   4   8  -1    2.92    0.98
   4  -8  -1    3.58    1.13
   4   8   0  358.21    8.36
  -4  -8   0  348.79    8.31
   4  -8   0  356.34    8.02
   4  -8   0  359.81    8.56
   4   8   1  182.61    5.29
  -4  -8  -1  190.51    5.39
   4  -8   1  183.67    5.40
   4  -8   1  189.18    5.84
  -4  -8  -2  529.87   10.60
   4   8   2  528.99   10.59
   4  -8   2  532.70   11.31
   4  -8   2  537.75   11.77
  -4  -8  -3   43.69    2.20
   4   8   3   44.52    2.19
   4  -8   3   46.89    2.99
   4  -8   3   41.30    2.63
   4  -8   4  426.86   10.34
   4   8   4  409.74    8.31
   4  -8   4  423.19   10.09
  -4  -8  -4  413.09    7.85
  -4  -8  -4  410.22    8.28
   4   8   5  100.73    3.06
   4  -8   5  109.58    4.77
   4  -8   5  109.15    4.65
  -4  -8  -5  104.72    3.09
  -4  -8  -5  107.23    2.78
  -4  -8  -6  817.12   12.83
   4  -8   6  845.96   17.05
   4   8   6  791.22   13.32
   4  -8   6  830.42   16.98
   4  -8   7   18.50    2.12
   4  -8   7   16.47    2.13
  -4   8  -7   18.05    2.06
   4  -8   8  724.86   16.20
   4  -8   9  118.29    5.54
   4  -8  10  828.58   18.29
   4  -8  11    1.21    1.37
   4  -8  12  269.50    9.28
   4  -8  13    1.87    1.58
   4  -8  14  200.21    8.22
   4  -8  15   69.55    4.91
   4  -8  16  259.81    9.92
   4  -8  17   11.06    2.50
   4  -8  18  137.97    7.42
   4  -8  19    8.57    2.32
  -4 -10  16  268.03   10.77
  -4 -10  15   12.22    2.65
  -4 -10  14   21.73    3.06
  -4 -10  13   24.96    3.21
  -4 -10  12   73.37    5.03
  -4 -10  11   10.02    2.12
   4 -10 -10  376.29    6.33
  -4 -10  10  394.72   11.69
   4 -10 -10  373.30    6.31
   4 -10  -9  130.79    3.37
  -4 -10   9  129.46    6.19
   4 -10  -8  579.13   10.61
  -4 -10   8  560.75   14.40
   4 -10  -7  105.29    3.48
  -4 -10   7  111.37    5.40
   4 -10  -6  612.10   11.88
  -4 -10   6  613.48   14.54
   4 -10  -5   28.30    1.96
  -4 -10   5   28.54    2.73
   4 -10  -5   29.28    1.37
  -4 -10   4  156.64    6.00
   4 -10  -4  149.67    3.94
   4  10  -4  149.75    5.92
   4 -10  -4  144.51    4.78
  -4 -10   3  242.64    7.59
   4 -10  -3  238.75    5.80
   4  10  -3  258.89    7.85
   4 -10  -3  241.92    6.71
  -4 -10   2  564.03   12.78
   4 -10  -2  556.94   11.16
   4  10  -2  601.73   13.14
   4 -10  -2  560.77   12.11
  -4 -10   1    6.05    1.42
   4 -10  -1    6.20    1.04
   4 -10  -1    4.01    1.18
   4  10  -1    8.06    1.44
  -4 -10   0  960.70   18.24
   4 -10   0  938.47   17.56
   4 -10   0  939.68   18.42
   4  10   0  969.97   18.33
  -4 -10  -1   24.25    2.08
   4 -10   1   21.80    1.92
   4 -10   1   24.71    2.34
   4  10   1   24.34    2.01
  -4 -10  -2  343.59    8.39
   4 -10   2  346.13    8.93
   4  10   2  351.70    8.48
   4 -10   2  356.22    9.48
  -4 -10  -3    9.78    1.33
   4 -10   3    8.02    1.40
   4  10   3    8.45    1.18
   4 -10   3   10.27    1.79
  -4 -10  -4  223.69    5.88
   4 -10   4  217.27    7.38
   4  10   4  217.79    5.80
   4 -10   4  223.05    7.20
   4 -10   5   87.05    4.55
   4 -10   5   88.90    4.46
  -4 -10  -5   86.98    3.17
  -4 -10  -5   88.82    2.66
   4 -10   6  323.78    9.93
  -4 -10  -6  345.89    6.08
  -4 -10  -6  351.35    7.22
   4 -10   7    1.77    1.44
   4 -10   8  321.93   10.12
   4 -10   9   97.42    5.40
   4 -10  10  305.21   10.14
   4 -10  11    2.86    1.74
   4 -10  12  239.98    9.32
   4 -10  13   17.00    3.27
   4 -10  14  147.08    7.42
   4 -10  15   -1.04    1.80
   4 -10  16  177.58    8.49
  -4 -12  13   37.28    3.90
  -4 -12  12   18.30    2.91
  -4 -12  11   31.54    3.59
  -4 -12  10  113.12    6.43
  -4 -12   9   15.48    2.69
   4 -12  -8  449.50    9.22
  -4 -12   8  435.53   12.86
   4 -12  -7    6.27    1.03
  -4 -12   7    4.43    1.84
   4 -12  -6  163.48    5.19
  -4 -12   6  153.59    6.84
   4 -12  -5    3.03    1.06
  -4 -12   5    3.01    1.62
   4 -12  -5    2.28    0.63
   4 -12  -4   38.53    2.65
  -4 -12   4   41.33    3.38
   4 -12  -4   37.32    1.97
  -4 -12   3   93.27    4.93
   4 -12  -3  106.34    4.54
   4 -12  -3  104.62    3.72
   4 -12  -2  189.96    6.41
  -4 -12   2  184.59    6.89
   4 -12  -2  181.95    5.50
   4 -12  -1   50.73    3.31
  -4 -12   1   50.94    3.46
   4 -12  -1   53.58    2.98
   4 -12   0  709.26   15.68
  -4 -12   0  695.24   15.40
   4 -12   0  736.40   14.88
   4  12   0  734.39   15.58
  -4 -12  -1   12.62    1.85
   4 -12   1   12.85    1.69
   4  12   1   13.20    1.72
   4 -12   1   12.74    2.02
  -4 -12  -2  146.20    5.37
   4 -12   2  134.85    5.90
   4 -12   2  145.77    5.62
   4  12   2  142.02    5.28
  -4 -12  -3   11.46    1.57
   4 -12   3   10.76    1.75
   4  12   3   10.15    1.45
   4 -12   3   12.27    2.12
  -4 -12  -4   49.17    2.83
   4 -12   4   52.14    3.85
   4 -12   5   25.85    2.90
  -4 -12  -5   26.65    1.98
  -4 -12  -5   26.49    1.48
   4 -12   6  220.72    8.26
  -4 -12  -6  210.25    4.16
  -4 -12  -6  210.66    4.14
  -4 -12  -6  208.01    5.58
   4 -12   7    1.14    1.44
  -4 -12  -7    2.54    0.73
   4 -12   8  166.52    7.44
   4 -12   9    8.82    2.20
   4 -12  10  213.82    8.92
   4 -12  11   14.27    2.69
   4 -12  12  358.47   12.31
   4 -12  13    9.63    2.34
  -4 -14  11   18.34    3.21
  -4 -14  10   57.86    4.80
  -4 -14   9    3.94    1.91
  -4 -14   8  348.41   11.97
  -4 -14   7   27.22    3.23
  -4 -14   6  197.05    8.36
   4 -14  -6  195.82    6.24
   4 -14  -5    8.92    1.52
  -4 -14   5    8.47    2.21
   4 -14  -4  106.00    4.77
  -4 -14   4   88.89    5.38
  -4 -14   3    4.08    1.49
   4 -14  -3    3.35    1.29
   4 -14  -2  257.67    8.27
  -4 -14   2  252.31    8.83
   4 -14  -1   55.45    3.84
  -4 -14   1   52.47    3.78
   4 -14  -1   61.25    3.41
  -4 -14   0  636.89   15.05
   4 -14   0  626.34   15.18
   4 -14   0  641.60   14.13
  -4 -14  -1   86.60    4.63
   4 -14   1   86.46    4.93
   4 -14   1   84.46    4.39
  -4 -14  -2  218.17    7.34
   4 -14   2  206.24    7.99
   4 -14   3   17.97    2.53
  -4 -14  -3   17.34    2.02
   4 -14   4  126.50    6.40
  -4 -14  -4  136.15    5.21
   4 -14   5   23.94    3.02
  -4 -14  -5   28.15    2.19
   4 -14   6  362.33   11.89
  -4 -14  -6  371.44    8.78
   4 -14   7   40.40    3.93
   4 -14   8  290.51   10.80
   4 -14   9   35.53    3.82
   4 -14  10  125.35    7.07
   4 -14  11    2.84    2.16
  -4 -16   7    0.37    1.66
  -4 -16   6  275.96   10.67
  -4 -16   5    4.77    2.20
   4 -16  -4   19.20    2.30
  -4 -16   4   25.48    3.21
  -4 -16   3   20.75    2.86
   4 -16  -3   22.42    2.56
  -4 -16   2  131.59    6.64
   4 -16  -2  133.75    6.13
   4 -16  -1    2.65    1.56
  -4 -16   1   12.91    2.65
   4 -16   0  157.48    7.05
  -4 -16   0  167.14    7.26
  -4 -16  -1   -0.83    1.21
   4 -16   1    3.43    1.77
   4 -16   2    3.82    1.68
  -4 -16  -2    7.39    1.83
   4 -16   3   -0.31    1.59
  -4 -16  -3    0.46    1.23
   4 -16   4   40.81    4.01
   4 -16   5    0.19    1.84
   4 -16   6  372.32   12.82
   4 -16   7    5.01    2.31
  -4 -18   4   17.32    2.81
  -4 -18   3    6.51    2.04
  -4 -18   2   98.91    6.08
  -4 -18   1    7.62    2.02
   4 -18  -1    7.38    1.98
   4 -18   0  137.72    7.04
  -4 -18   0  154.27    7.34
  -4 -18  -1    1.83    1.41
   4 -18   1    1.71    1.56
   4 -18   2   11.05    2.45
   4 -18   3    2.80    1.80
  -5   1  19  285.97   10.97
  -5  -1  19  293.00   11.17
  -5   1  18   16.83    3.02
  -5  -1  18   11.87    2.44
  -5  -1  18   13.67    1.97
  -5  -1  17   37.27    3.78
  -5   1  17   30.09    3.44
  -5  -1  17   33.24    2.91
  -5   1  17   31.83    2.49
  -5  -1  16    0.63    1.51
   5   1 -16    1.47    1.13
  -5  -1  16    0.69    1.06
  -5   1  16    0.42    0.98
   5   1 -15   95.75    4.50
   5  -1 -15   95.76    4.09
  -5  -1  15   98.30    5.41
  -5  -1  15   99.74    4.57
  -5   1  15  101.50    4.21
  -5  -1  14   34.15    3.13
   5   1 -14   38.79    2.72
   5  -1 -14   35.79    2.39
  -5   1  14   40.71    2.63
  -5  -1  14   40.46    2.91
  -5  -1  13   10.38    1.96
   5   1 -13   11.03    1.55
   5  -1 -13   10.21    1.30
  -5  -1  13    9.55    1.54
  -5   1  13   10.07    1.40
  -5  -1  12   23.48    2.45
   5  -1 -12   24.57    1.88
   5   1 -12   26.90    2.18
  -5   1  12   23.08    1.91
  -5  -1  12   28.30    2.25
  -5  -1  11  477.38   11.23
   5   1 -11  418.98    9.96
   5  -1 -11  434.19    9.46
  -5  -1  11  452.82   10.18
  -5   1  11  450.63    9.58
  -5  -1  10    2.67    1.19
   5   1 -10    2.01    0.82
  -5  -1  10    5.51    1.21
   5  -1 -10    2.82    0.79
  -5   1  10    2.64    0.99
  -5  -1   9   84.58    3.81
   5  -1  -9   85.31    3.21
   5   1  -9   85.55    3.51
  -5   1   9   86.55    3.25
  -5  -1   9   86.82    3.55
  -5  -1   8   28.69    2.21
   5   1  -8   25.23    1.85
   5  -1  -8   27.35    1.75
  -5   1   8   32.00    1.91
  -5  -1   8   30.65    2.07
  -5  -1   7  158.21    4.77
   5   1  -7  148.00    4.52
   5  -1  -7  145.72    4.15
  -5   1   7  153.25    4.26
  -5  -1   7  153.05    4.57
  -5  -1   6  693.35   12.63
   5  -1  -6  663.58   12.12
   5   1  -6  667.24   12.58
  -5  -1   6  693.33   12.63
  -5  -1   5  267.26    5.95
   5   1  -5  263.25    6.10
  -5  -1   5  266.01    6.13
   5  -1  -5  254.48    5.71
  -5  -1   4   36.19    1.72
   5   1  -4   36.25    1.93
  -5  -1   4   37.43    2.02
   5  -1  -4   35.61    1.73
  -5  -1   3 1342.87   20.74
  -5  -1   3 1359.25   21.60
   5  -1  -3 1333.68   21.26
   5   1  -3 1323.46   21.56
  -5  -1   2 1305.41   19.82
  -5   1   2 1322.88   20.73
   5   1  -2 1274.22   20.85
  -5  -1   2 1339.19   21.05
  -5   1   1 5003.34   73.35
   5   1  -1 4950.48   73.39
   5  -1  -1 4978.16   73.30
  -5   1   0 1195.50   19.13
   5  -1   0 1196.60   19.10
  -5  -1   0 1198.94   19.14
   5  -1   1  574.36   10.25
  -5   1  -1  593.14   10.32
   5   1   1  581.22   10.14
  -5  -1  -1  570.50   10.18
  -5   1  -2  194.58    3.96
   5  -1   2  200.40    4.70
  -5  -1  -2  197.32    4.53
  -5   1  -2  205.26    4.80
   5   1   2  194.18    4.50
   5   1   3  410.93    7.78
   5  -1   3  420.40    8.11
  -5   1  -3  413.20    8.15
  -5  -1  -3  415.08    7.85
  -5   1  -3  395.97    7.40
   5  -1   3  399.94    7.39
   5   1   4  294.33    6.21
  -5   1  -4  290.06    6.59
  -5  -1  -4  294.53    6.22
   5  -1   4  287.81    6.55
   5  -1   4  298.96    6.11
  -5   1  -5  262.91    6.30
   5   1   5  261.77    5.96
  -5  -1  -5  265.53    5.95
   5  -1   5  273.83    6.43
   5  -1   5  270.15    6.05
   5  -1   6    1.79    0.92
  -5  -1  -6    0.49    0.87
   5   1   6    0.08    0.72
   5  -1   6    0.40    0.79
  -5  -1  -7  494.09    9.84
   5   1   7  484.32    9.82
   5  -1   7  496.55   10.38
   5  -1   7  499.84   10.27
   5   1   8    8.15    1.15
   5  -1   8    9.85    1.33
   5  -1   8   10.69    1.33
   5   1   8   11.72    1.14
   5  -1   8   12.36    1.46
   5  -1   9  126.80    4.65
   5   1   9  127.58    4.34
   5  -1   9  117.66    4.53
   5   1   9  128.18    3.73
   5  -1   9  129.45    4.28
   5  -1  10   70.39    3.51
   5   1  10   66.57    3.17
   5   1  10   65.27    2.67
   5  -1  10   65.49    3.09
   5  -1  10   69.73    3.59
   5  -1  11  267.57    7.15
   5   1  11  273.25    6.50
   5  -1  11  290.07    7.99
   5   1  11  284.30    7.48
   5  -1  11  270.73    8.07
   5  -1  12    0.51    0.94
   5   1  12    1.78    1.02
   5  -1  12    0.40    1.02
   5  -1  12    1.35    0.96
   5   1  12    0.33    0.73
   5   1  13  582.14   11.58
   5  -1  13  569.07   12.39
   5  -1  13  598.88   13.60
   5   1  13  580.82   12.88
   5  -1  13  576.19   13.98
   5  -1  14   75.56    3.76
   5   1  14   83.77    3.44
   5   1  14   83.01    4.10
   5   1  14   66.21    4.34
   5  -1  14   75.22    4.55
   5   1  15  171.93    5.26
   5  -1  15  170.55    5.94
   5   1  15  171.84    6.34
   5  -1  15  172.72    7.22
   5   1  15  173.58    7.28
   5  -1  16   81.80    5.12
   5   1  16   82.39    5.12
   5   1  16   90.92    3.70
   5  -1  16   85.76    4.14
   5  -1  17   16.08    2.71
   5   1  17   13.47    2.52
   5  -1  17   17.57    2.02
   5  -1  18    1.81    1.54
   5   1  18    2.43    1.82
   5  -1  18    3.96    1.24
   5   1  19   32.88    3.78
   5  -1  19   31.11    3.71
  -5  -3  19  118.98    6.93
  -5  -3  19  101.11    5.52
  -5  -3  18   12.46    2.62
  -5  -3  18   10.75    2.12
  -5  -3  17    5.69    2.10
  -5  -3  17    9.89    2.11
  -5  -3  16    6.81    1.84
  -5  -3  16   10.87    1.93
  -5  -3  15    8.12    2.21
   5  -3 -15    8.62    1.19
  -5  -3  15    7.32    1.85
  -5  -3  14  135.41    6.25
   5  -3 -14  145.90    4.48
  -5  -3  14  145.66    5.90
   5   3 -13   19.00    2.12
  -5  -3  13   23.24    2.65
  -5  -3  13   20.08    2.26
   5  -3 -13   20.27    1.56
   5   3 -12    7.41    1.42
  -5  -3  12    5.50    1.67
   5  -3 -12    7.31    1.02
  -5  -3  12    6.48    1.48
  -5  -3  11  239.51    7.57
   5   3 -11  243.74    7.31
  -5  -3  11  235.82    7.25
   5  -3 -11  239.50    5.78
  -5  -3  10  213.15    6.76
   5  -3 -10  203.14    5.14
  -5  -3  10  206.56    6.53
   5   3 -10  226.24    6.70
  -5  -3   9    2.78    1.30
   5  -3  -9    1.91    0.60
   5   3  -9    3.06    1.12
  -5  -3   9    2.94    1.22
  -5  -3   8    3.69    1.19
   5   3  -8    1.98    0.82
   5  -3  -8    2.11    0.63
  -5  -3   8    2.62    1.19
  -5  -3   7   63.78    3.05
  -5  -3   7   69.30    3.28
   5   3  -7   66.48    3.17
   5  -3  -7   65.04    2.37
  -5  -3   6  369.55    8.08
   5   3  -6  350.33    8.21
  -5  -3   6  359.56    8.30
   5  -3  -6  349.79    7.03
   5   3  -5  284.60    6.53
  -5  -3   5  288.28    6.58
   5   3  -5  286.07    6.97
  -5  -3   5  283.00    6.96
  -5   3   5  288.88    5.88
   5   3  -4  556.24   10.23
   5   3  -4  538.07   10.71
  -5  -3   4  547.91   10.84
  -5   3   4  553.84    9.70
   5   3  -3  219.76    5.38
   5   3  -3  203.82    4.76
  -5   3   3  213.30    4.65
  -5  -3   3  205.83    5.40
   5   3  -2  374.54    7.77
  -5   3   2  374.16    7.15
  -5  -3   2  386.86    7.85
   5  -3  -2  368.66    7.10
   5   3  -1  551.29   10.30
  -5   3   1  570.35    9.99
   5  -3  -1  546.52    9.93
  -5  -3   1  564.19   10.36
   5   3   0   69.09    2.46
  -5   3   0   69.55    2.53
   5  -3   0   63.82    2.43
  -5  -3   0   72.67    2.57
   5   3   1    8.48    0.95
  -5   3  -1   10.90    1.37
   5  -3   1    8.85    1.14
  -5  -3  -1    8.94    1.07
   5  -3   2  272.83    6.36
  -5   3  -2  279.32    6.38
  -5  -3  -2  292.94    5.88
   5   3   2  279.50    5.64
  -5   3  -3  214.12    5.47
   5  -3   3  210.13    5.41
  -5  -3  -3  213.18    4.74
   5   3   3  212.65    4.51
  -5   3  -4   10.23    1.18
   5  -3   4   11.35    1.33
  -5  -3  -4    9.09    1.01
  -5   3  -4   11.47    1.55
   5   3   4   10.10    0.88
   5   3   4   10.63    1.02
  -5   3  -5  339.16    7.63
  -5  -3  -5  348.94    6.92
   5  -3   5  351.74    8.11
   5   3   5  348.86    6.91
   5  -3   6   -1.08    1.04
  -5   3  -6    1.05    0.85
  -5  -3  -6    0.30    0.67
   5  -3   6    0.12    0.81
   5   3   6   -0.97    0.74
   5  -3   7   95.22    3.94
  -5  -3  -7   89.02    2.98
   5   3   7   93.66    3.04
   5  -3   7   98.96    3.88
  -5   3  -7   93.64    3.79
   5  -3   7   91.53    3.70
   5  -3   8  155.63    5.33
   5   3   8  146.44    4.14
   5  -3   8  145.61    5.05
   5  -3   8  151.25    5.06
   5  -3   9   16.89    1.88
   5   3   9   12.36    1.19
   5   3   9   16.62    1.01
   5  -3   9   15.43    1.78
   5  -3   9   17.49    1.84
   5   3  10  135.54    3.30
   5   3  10  125.64    4.10
   5  -3  10  133.73    5.25
   5  -3  10  126.30    4.83
   5  -3  10  130.47    5.20
   5  -3  11   93.13    4.24
   5   3  11   90.54    2.67
   5   3  11   88.85    3.51
   5  -3  11  102.59    4.65
   5  -3  11   97.61    4.65
   5   3  12   28.61    1.45
   5   3  12   27.88    2.02
   5  -3  12   30.88    2.75
   5  -3  12   28.57    2.45
   5   3  13   70.04    2.36
   5  -3  13   62.21    3.67
   5   3  13   62.23    3.16
   5  -3  13   67.03    4.18
   5   3  14   11.82    1.00
   5  -3  14    9.70    1.78
   5   3  14    9.22    1.39
   5  -3  14   12.62    2.17
   5   3  15   33.60    1.63
   5  -3  15   27.48    2.62
   5   3  15   28.73    2.30
   5  -3  15   35.21    3.37
   5  -3  16   -0.44    1.48
   5  -3  16    1.99    1.29
   5  -3  17    1.35    1.88
   5  -3  17   -0.94    1.18
   5   3  18   92.07    5.94
   5  -3  18   98.89    6.12
   5  -3  18   96.36    5.17
   5   3  19   75.25    5.40
   5  -3  19   77.49    5.61
   5  -3  19   58.48    4.10
  -5  -5  20    4.01    2.06
  -5  -5  19   43.52    3.98
  -5  -5  18   11.38    2.50
  -5  -5  18   14.30    2.43
  -5  -5  17    4.15    1.92
  -5  -5  17    3.65    1.72
  -5  -5  16   16.84    2.74
  -5  -5  16   13.08    2.25
  -5  -5  15   -1.79    1.84
  -5  -5  15    1.01    1.40
   5  -5 -14   91.18    2.83
  -5  -5  14   92.42    5.29
  -5  -5  14   91.68    4.97
  -5  -5  13  137.12    6.28
   5  -5 -13  143.60    3.74
  -5  -5  13  143.96    6.14
  -5  -5  12    5.81    1.64
  -5  -5  12    5.55    1.64
   5  -5 -12    5.06    0.71
   5  -5 -11   58.79    2.20
  -5  -5  11   57.52    3.65
  -5  -5  10   68.83    3.87
   5  -5 -10   69.68    2.44
   5   5 -10   69.92    3.86
  -5   5  10   71.28    2.53
   5  -5  -9   70.94    2.47
  -5  -5   9   70.93    3.82
   5   5  -9   74.71    3.83
  -5   5   9   78.42    2.52
   5   5  -8    0.71    0.88
   5   5  -8    1.18    0.90
  -5  -5   8    1.10    1.18
   5  -5  -8    0.79    0.52
  -5   5   8    1.61    0.61
   5   5  -7    6.00    1.31
  -5  -5   7    4.90    1.29
   5   5  -7    7.68    1.44
   5  -5  -7    4.67    0.75
  -5   5   7    5.66    0.76
   5   5  -6  482.02   10.72
  -5  -5   6  450.69   10.55
  -5   5   6  473.34    8.38
   5   5  -6  466.29   10.19
  -5  -5   5  285.98    7.37
   5   5  -5  275.90    7.27
   5   5  -5  273.72    6.88
  -5   5   5  281.52    5.57
   5   5  -4   64.58    3.13
  -5  -5   4   68.09    3.21
   5   5  -4   62.86    2.80
  -5   5   4   60.13    2.12
   5  -5  -4   60.94    2.14
  -5  -5   3  795.61   14.50
   5   5  -3  783.54   14.46
  -5   5   3  776.26   12.92
   5  -5  -3  728.48   12.82
   5   5  -2  134.73    4.31
  -5  -5   2  142.85    4.39
   5  -5  -2  132.30    3.59
  -5   5   2  135.40    3.64
   5   5  -1    2.84    0.93
  -5  -5   1    1.72    1.03
  -5   5   1    2.53    0.87
   5  -5  -1    0.70    0.72
  -5  -5   0   18.33    1.59
   5   5   0   16.93    1.43
   5  -5   0   15.25    1.34
  -5   5   0   18.03    1.48
   5   5   1   49.19    2.17
   5  -5   1   46.08    2.32
  -5   5  -1   55.78    2.53
  -5  -5  -1   47.57    2.20
   5   5   2   23.18    1.48
   5  -5   2   23.18    1.80
  -5  -5  -2   24.79    1.51
   5   5   3   89.22    2.80
   5  -5   3   94.20    3.61
  -5  -5  -3   95.63    2.88
  -5  -5  -3   95.37    2.87
   5   5   4   43.77    1.81
   5  -5   4   48.77    2.68
  -5  -5  -4   46.77    1.91
   5   5   5  535.98    9.30
  -5  -5  -5  539.86    9.61
   5  -5   5  568.17   11.77
  -5   5  -5  539.10   11.28
   5  -5   5  554.14   11.65
   5   5   6   12.76    0.85
   5  -5   6   12.58    1.74
  -5   5  -6   16.25    1.71
  -5  -5  -6   13.55    1.03
   5  -5   6   14.69    1.76
   5   5   7  163.89    3.31
   5  -5   7  170.97    5.73
  -5   5  -7  169.98    5.60
  -5  -5  -7  164.46    4.00
   5  -5   7  185.79    6.02
   5   5   7  169.66    4.04
   5   5   8    0.47    0.26
   5  -5   8    1.90    1.26
  -5   5  -8    0.71    0.95
   5  -5   8   -0.32    0.97
  -5  -5  -8    0.19    0.51
   5   5   8   -0.23    0.48
  -5   5  -9   21.48    2.14
   5  -5   9   15.37    1.91
   5  -5   9   20.92    2.13
   5   5   9   16.45    1.14
   5  -5  10   25.33    2.47
   5   5  10   24.89    1.51
   5  -5  11   36.38    2.92
   5   5  11   40.43    2.02
   5  -5  12   39.71    3.18
   5   5  12   47.34    2.29
   5  -5  13    3.63    1.40
   5   5  13    1.91    0.79
   5  -5  14   10.96    1.92
   5   5  14   13.74    1.39
   5  -5  15    2.32    1.42
   5  -5  16   12.47    2.14
   5  -5  17    4.69    1.74
   5  -5  18   65.62    4.64
   5  -5  19   16.42    2.60
   5  -5  20    1.88    1.66
  -5  -7  19   52.12    4.54
  -5  -7  18   96.43    6.10
  -5  -7  17   -1.06    1.74
  -5  -7  16   29.73    3.43
  -5  -7  15   23.46    3.03
  -5  -7  14   18.61    2.75
  -5  -7  13   35.16    3.36
  -5   7  13   38.65    1.29
  -5   7  13   38.48    1.28
  -5  -7  12    0.53    1.45
   5  -7 -12    1.18    0.35
  -5   7  12    0.93    0.33
  -5   7  12    0.39    0.32
  -5  -7  11   78.81    4.63
   5  -7 -11   78.36    2.23
  -5   7  11   80.36    1.86
  -5  -7  10    6.32    1.72
   5  -7 -10    6.69    0.72
  -5   7  10    5.55    0.47
  -5  -7   9    0.13    1.20
   5   7  -9    0.19    0.93
  -5   7   9    1.21    0.35
   5  -7  -9    0.55    0.45
  -5  -7   8    1.51    1.34
  -5   7   8    0.26    0.36
   5   7  -8    1.58    0.97
   5   7  -8    1.73    1.08
  -5  -7   7    9.33    1.74
  -5   7   7    8.64    0.67
   5   7  -7   10.69    1.66
   5   7  -7    7.52    1.44
   5   7  -6  132.86    5.16
  -5  -7   6  121.62    5.05
  -5   7   6  127.67    3.01
   5   7  -6  127.22    4.85
  -5  -7   5    6.05    1.45
   5   7  -5    7.12    1.35
   5   7  -5    5.76    1.31
  -5   7   5    5.17    0.67
   5   7  -4   65.33    3.32
  -5  -7   4   67.91    3.51
  -5   7   4   64.21    2.22
   5  -7  -4   62.38    2.22
   5   7  -3  230.65    6.68
  -5  -7   3  224.66    6.60
  -5   7   3  238.16    5.26
   5  -7  -3  224.09    5.21
   5   7  -2  249.47    6.77
  -5  -7   2  243.72    6.71
   5  -7  -2  240.63    5.69
   5   7  -1  136.48    4.60
  -5  -7   1  145.60    4.73
   5  -7  -1  134.74    4.09
   5   7   0   59.08    2.77
  -5  -7   0   55.96    2.78
   5  -7   0   60.24    2.72
   5   7   1    1.55    0.71
  -5  -7  -1    2.04    0.93
   5  -7   1    3.34    0.97
   5   7   2   58.57    2.55
   5  -7   2   60.31    3.13
   5  -7   2   60.75    3.00
  -5  -7  -2   59.41    2.61
   5   7   3  163.69    4.44
   5  -7   3  169.82    5.57
   5  -7   3  167.06    5.41
  -5  -7  -3  172.43    4.54
   5   7   4  208.97    4.91
   5  -7   4  209.73    6.43
   5  -7   4  210.67    6.36
  -5  -7  -4  192.24    4.65
  -5  -7  -4  205.35    4.90
   5   7   5  258.41    5.57
   5  -7   5  283.18    7.81
  -5  -7  -5  268.38    5.56
   5  -7   5  268.77    7.72
  -5  -7  -6    7.34    0.79
   5  -7   6    7.80    1.43
   5   7   6    7.63    0.75
  -5   7  -6    9.77    1.54
   5  -7   6    9.07    1.72
  -5  -7  -7  160.62    3.57
   5  -7   7  165.72    6.08
  -5   7  -7  153.04    5.69
   5   7   7  151.99    3.22
   5  -7   7  159.12    5.97
   5  -7   8    5.91    1.47
  -5  -7  -8    7.16    0.68
  -5   7  -8    8.74    1.65
   5  -7   8    9.39    1.76
   5  -7   9  141.63    5.89
   5  -7  10  142.59    6.08
   5  -7  11   75.90    4.51
   5  -7  12    6.86    1.84
   5  -7  13   50.45    3.86
   5  -7  14    4.46    1.89
   5  -7  15   81.53    5.18
   5  -7  16    3.75    1.89
   5  -7  17   17.56    2.70
   5  -7  18    9.34    2.40
   5  -7  19  138.06    7.31
   5  -7  20    1.61    1.70
  -5  -9  17   -1.30    1.63
  -5  -9  16   75.77    5.45
  -5  -9  15    4.76    1.81
  -5  -9  14    7.51    2.04
  -5  -9  13   15.99    2.69
  -5  -9  12   13.08    2.43
  -5  -9  11   12.77    2.37
   5  -9 -11    8.02    0.52
   5  -9 -11    8.14    0.54
   5  -9 -10   43.09    1.67
  -5  -9  10   44.61    3.73
   5  -9 -10   42.56    1.65
   5  -9  -9   42.90    1.86
  -5  -9   9   36.91    3.32
   5  -9  -8    7.71    0.93
  -5  -9   8    5.96    1.65
   5  -9  -7    2.38    0.73
  -5  -9   7    1.83    1.36
   5   9  -6  104.60    4.76
   5  -9  -6  101.20    3.58
  -5  -9   6  101.86    4.93
   5  -9  -5   87.67    3.42
   5   9  -5   85.43    4.40
  -5  -9   5   97.65    4.62
   5  -9  -5   87.64    2.66
   5  -9  -4   65.34    3.00
   5   9  -4   62.98    3.64
  -5  -9   4   65.07    3.72
   5  -9  -4   63.03    2.40
   5   9  -3  149.31    5.53
  -5  -9   3  138.47    5.37
   5  -9  -3  132.21    3.98
   5  -9  -3  140.31    4.70
  -5  -9   2  440.29   10.54
   5   9  -2  453.25   10.64
   5  -9  -2  430.41    9.12
   5  -9  -2  432.38    9.88
  -5  -9   1  100.85    4.24
   5   9  -1   99.55    4.22
   5  -9  -1   97.73    3.68
   5  -9  -1  100.02    4.11
  -5  -9   0   51.26    2.98
   5   9   0   55.38    3.00
   5  -9   0   49.86    2.70
   5  -9   0   52.75    3.02
  -5  -9  -1    7.99    1.29
   5  -9   1   10.51    1.42
   5  -9   1   10.99    1.73
   5   9   1    9.95    1.37
  -5  -9  -2   25.10    1.94
   5  -9   2   23.24    2.04
   5  -9   2   27.81    2.40
   5   9   2   21.50    1.78
  -5  -9  -3    6.23    1.11
   5   9   3    6.33    1.06
   5  -9   3    9.15    1.69
   5  -9   3    6.71    1.36
   5   9   4  230.21    5.86
   5  -9   4  234.41    7.55
   5  -9   4  243.28    7.37
  -5  -9  -4  239.40    5.60
  -5  -9  -4  235.58    5.92
   5  -9   5   45.74    3.33
   5   9   5   46.10    2.16
   5  -9   5   46.01    3.23
  -5  -9  -5   43.16    1.88
  -5  -9  -5   45.38    2.15
   5   9   6   27.28    1.52
   5  -9   6   22.29    2.50
  -5  -9  -6   24.44    1.25
  -5  -9  -6   25.25    1.47
  -5  -9  -7    1.62    0.42
   5  -9   7    1.07    1.35
   5  -9   8    7.83    1.84
   5  -9   9  109.70    5.60
   5  -9  10   14.76    2.35
   5  -9  11   27.81    3.07
   5  -9  12    7.87    2.17
   5  -9  13   32.01    3.41
   5  -9  14   20.16    2.97
   5  -9  15   23.78    3.29
   5  -9  16    8.00    2.22
   5  -9  17   24.44    3.27
  -5 -11  15   15.85    2.98
  -5 -11  14   61.32    4.98
  -5 -11  13    5.23    1.96
  -5 -11  12   85.90    5.64
  -5 -11  11   -0.69    1.54
  -5 -11  10    3.23    1.91
   5 -11  -9   45.94    2.09
  -5 -11   9   40.10    3.74
   5 -11  -8    1.25    0.82
  -5 -11   8    0.90    1.54
   5 -11  -7   36.87    2.21
  -5 -11   7   33.53    3.28
   5 -11  -6  518.29   10.92
  -5 -11   6  486.56   13.12
   5 -11  -5    1.18    0.89
  -5 -11   5    2.90    1.62
   5 -11  -5    1.98    0.60
  -5 -11   4   40.27    3.24
   5 -11  -4   50.81    2.29
   5 -11  -4   46.48    2.82
  -5 -11   3  173.82    6.53
   5 -11  -3  169.35    4.93
   5 -11  -3  172.90    5.79
  -5 -11   2   62.50    3.77
   5 -11  -2   58.46    2.88
   5  11  -2   61.71    3.70
   5 -11  -2   63.19    3.48
  -5 -11   1   24.81    2.42
   5 -11  -1   27.69    2.06
   5  11  -1   29.89    2.53
   5 -11  -1   30.65    2.57
  -5 -11   0   89.12    4.22
   5 -11   0   91.57    3.98
   5 -11   0   87.03    4.35
   5  11   0   89.58    4.21
  -5 -11  -1    6.34    1.45
   5 -11   1    7.89    1.35
   5 -11   1    5.86    1.59
   5  11   1    7.09    1.33
  -5 -11  -2  165.66    5.61
   5 -11   2  170.27    5.99
   5 -11   2  165.30    6.36
   5  11   2  159.93    5.51
  -5 -11  -3    5.54    1.15
   5 -11   3    7.19    1.72
   5  11   3    4.83    1.13
   5 -11   3    8.18    1.52
   5  11   4   90.48    3.70
   5 -11   4   94.26    4.92
  -5 -11  -4   92.13    3.76
   5  11   5    5.31    1.05
   5 -11   5    4.55    1.55
  -5 -11  -5    6.10    1.03
  -5 -11  -5    4.01    0.77
   5 -11   6    2.06    1.43
  -5 -11  -6    4.40    0.89
  -5 -11  -6    2.04    0.50
   5 -11   7    0.88    1.49
   5 -11   8   43.92    3.75
   5 -11   9    2.62    3.84
   5 -11  10   -0.94    1.71
   5 -11  11   64.78    4.80
   5 -11  12   45.12    4.29
   5 -11  13   19.87    2.98
   5 -11  14   -0.54    1.68
   5 -11  15   71.68    5.46
  -5 -13  12    6.19    2.33
  -5 -13  11   10.42    2.56
  -5 -13  10  199.96    8.90
  -5 -13   9   67.84    5.05
  -5 -13   8  282.05   10.37
  -5 -13   7   41.67    3.87
   5 -13  -7   40.31    2.50
  -5 -13   6    0.90    1.40
   5 -13  -6    1.48    0.90
  -5 -13   5   16.59    2.49
   5 -13  -5   18.75    2.04
  -5 -13   4   59.51    4.16
   5 -13  -4   58.56    3.45
   5 -13  -4   61.08    2.70
  -5 -13   3   -1.43    1.49
   5 -13  -3    1.12    0.78
   5 -13  -3    0.38    1.06
   5 -13  -2  493.99   12.25
  -5 -13   2  494.04   12.94
   5 -13  -2  512.11   11.19
   5 -13  -1  127.73    5.60
  -5 -13   1  124.06    5.71
   5 -13  -1  134.25    5.05
   5 -13   0   78.90    4.49
  -5 -13   0   78.14    4.33
   5 -13   0   93.63    4.31
  -5 -13  -1    1.71    1.20
   5 -13   1    0.81    0.90
   5 -13   1   -0.18    1.39
   5  13   2   21.50    2.17
   5 -13   2   16.82    2.29
  -5 -13  -2   20.24    2.23
   5  13   3   19.69    2.03
   5 -13   3   17.44    2.46
  -5 -13  -3   16.71    1.97
   5 -13   4  145.84    6.74
  -5 -13  -4  158.74    5.52
   5 -13   5   23.91    2.92
  -5 -13  -5   29.78    1.72
  -5 -13  -5   32.92    2.33
   5 -13   6   -1.59    1.72
  -5 -13  -6    1.57    0.94
   5 -13   7    1.18    1.73
   5 -13   8   59.48    4.67
   5 -13   9  111.59    6.46
   5 -13  10    6.92    2.32
   5 -13  11    6.79    2.15
   5 -13  12    1.25    1.62
  -5 -15   9   52.77    4.80
  -5 -15   8   28.66    3.57
  -5 -15   7   76.76    5.37
  -5 -15   6   16.03    2.80
  -5 -15   5   12.87    2.61
   5 -15  -5   15.62    2.02
   5 -15  -4   14.39    1.98
  -5 -15   4   12.25    2.41
   5 -15  -3    3.01    1.50
  -5 -15   3    4.54    1.86
   5 -15  -2   12.98    2.06
  -5 -15   2   14.22    2.30
   5 -15  -1    0.47    1.25
  -5 -15   1    0.37    1.36
   5 -15   0    8.71    1.84
  -5 -15   0    9.33    2.00
   5 -15   1    1.47    1.49
  -5 -15  -1    0.49    1.19
   5 -15   2    7.23    2.07
  -5 -15  -2    4.89    1.62
  -5 -15  -3   98.03    4.72
   5 -15   3   93.46    5.59
   5 -15   4    3.55    1.82
  -5 -15  -4    1.30    0.93
   5 -15   5   60.06    4.67
   5 -15   6   23.26    3.19
   5 -15   7   42.30    4.19
   5 -15   8   -1.48    1.73
   5 -15   9   65.30    5.28
  -5 -17   5   -1.36    2.05
  -5 -17   4    2.33    2.01
  -5 -17   3    2.53    1.70
   5 -17  -3    2.49    1.33
  -5 -17   2    8.26    2.12
   5 -17  -2   12.87    2.30
   5 -17  -1   13.58    2.27
  -5 -17   1   11.88    2.41
   5 -17   0    4.90    1.94
  -5 -17   0    4.08    1.76
   5 -17   1    8.75    2.23
  -5 -17  -1    7.31    1.91
   5 -17   2    6.65    2.01
  -5 -17  -2    8.24    1.89
   5 -17   3    1.22    1.58
   5 -17   4   19.60    2.98
   5 -17   5   -0.33    1.75
  -6   0  19   -0.20    1.57
  -6   0  18   57.46    4.78
  -6   0  18   58.87    3.69
  -6   0  17    1.57    1.73
  -6   0  17   -0.57    1.08
  -6   0  16  362.37   11.42
   6   0 -16  338.34    9.45
  -6   0  16  360.42    9.60
  -6   0  15    1.59    1.62
   6   0 -15   -0.13    0.84
  -6   0  15    1.06    1.02
  -6   0  14  904.12   19.32
   6   0 -14  861.74   17.28
  -6   0  14  869.92   17.29
   6   0 -13    0.33    0.77
  -6   0  13   -0.90    1.02
   6   0 -12   83.35    3.73
  -6   0  12   82.31    3.73
   6   0 -11    0.44    0.73
  -6   0  11    0.97    1.05
   6   0 -10 1171.52   20.76
  -6   0  10 1181.29   20.83
   6   0  -9    0.74    0.76
  -6   0   9   -0.37    0.91
   6   0  -8 1450.61   24.64
  -6   0   8 1503.12   24.71
   6   0  -7    0.49    0.71
  -6   0   7    0.70    0.86
   6   0  -6 1675.63   27.58
  -6   0   6 1741.40   27.65
   6   0  -5   -0.07    0.71
  -6   0   5    0.07    0.96
   6   0  -4  394.36    8.02
   6   0  -3    0.52    0.79
   6   0  -2 1073.95   17.74
  -6   0   1    0.37    1.02
  -6   0   0   94.42    3.15
   6   0   0  103.41    3.12
  -6   0  -1   -0.20    1.02
   6   0   1   -0.01    0.85
   6   0   2  264.99    4.75
  -6   0  -2  273.92    6.01
   6   0   2  263.24    5.89
   6   0   3    0.42    0.59
  -6   0  -3    0.74    1.05
   6   0   3    0.69    0.89
   6   0   4   16.38    1.43
  -6   0  -4   16.73    1.54
   6   0   4   17.94    1.26
   6   0   5   -1.19    0.92
  -6   0  -5   -0.26    1.02
   6   0   5    0.17    0.76
  -6   0  -6  233.14    5.93
   6   0   6  217.46    5.84
   6   0   6  231.50    5.67
   6   0   7   -0.79    0.95
  -6   0  -7   -0.16    0.98
   6   0   7    1.48    0.95
   6   0   8  469.54   10.23
   6   0   8  477.83   10.28
   6   0   9   -0.16    0.83
   6   0   9   -1.08    0.86
   6   0   9    1.64    1.04
   6   0  10  120.73    4.61
   6   0  10  121.05    4.14
   6   0  10  117.86    4.76
   6   0  11    0.00    0.89
   6   0  11   -1.42    0.99
   6   0  11    0.10    0.79
   6   0  12   80.89    3.48
   6   0  12   82.21    4.03
   6   0  12   73.13    4.10
   6   0  13   -1.70    1.00
   6   0  13   -0.71    1.20
   6   0  13   -0.14    0.80
   6   0  14  109.92    5.45
   6   0  14  114.34    4.41
   6   0  15    1.36    1.36
   6   0  15    0.11    0.88
   6   0  16    0.74    1.37
   6   0  16    2.02    1.05
   6   0  17    0.60    1.29
   6   0  17    0.81    0.91
   6   0  18   -1.43    1.83
   6   0  19    3.09    1.82
  -6   2  19    0.35    1.74
  -6  -2  19    3.80    1.99
  -6  -2  19    0.48    1.35
  -6  -2  18   -1.61    1.76
  -6  -2  18    3.21    1.42
  -6  -2  17   -0.46    1.53
  -6  -2  17    0.99    1.44
  -6  -2  16  491.66   13.85
  -6  -2  16  490.28   12.48
  -6  -2  15    2.72    1.69
   6  -2 -15    2.09    0.82
  -6  -2  15   -0.06    1.27
  -6  -2  14  448.59   12.32
   6   2 -14  446.36   11.29
   6  -2 -14  439.99    9.97
  -6  -2  14  454.02   11.37
   6   2 -13   27.10    2.37
  -6  -2  13   29.67    2.84
   6  -2 -13   27.56    2.00
  -6  -2  13   26.91    2.45
  -6  -2  12  130.00    5.53
   6   2 -12  128.43    5.06
   6  -2 -12  124.12    4.31
  -6  -2  12  125.40    5.06
  -6  -2  11    6.39    1.50
   6   2 -11    7.50    1.34
   6  -2 -11    6.22    1.02
  -6  -2  11    8.35    1.48
  -6  -2  10  349.49    8.98
   6   2 -10  334.32    8.58
   6  -2 -10  328.62    7.58
  -6  -2  10  339.37    8.65
  -6  -2   9    6.72    1.45
   6  -2  -9    4.97    0.93
  -6  -2   9    6.95    1.48
   6   2  -9    6.61    1.28
  -6  -2   8 1112.44   19.94
   6   2  -8 1120.10   20.07
   6  -2  -8 1093.52   18.91
  -6  -2   8 1144.18   20.09
  -6  -2   7   59.72    2.84
   6   2  -7   56.94    2.86
   6  -2  -7   54.31    2.39
  -6  -2   7   55.39    2.86
  -6  -2   6  678.48   12.52
   6   2  -6  666.64   12.90
  -6  -2   6  669.06   12.91
   6  -2  -6  652.06   12.04
  -6  -2   5   41.06    2.03
   6   2  -5   33.74    2.07
   6  -2  -5   36.60    1.90
  -6  -2   5   38.84    2.29
  -6  -2   4  917.77   15.27
   6   2  -4  904.50   16.16
  -6   2   4  923.22   15.48
  -6  -2   4  915.55   16.16
  -6  -2   3   25.17    1.35
   6   2  -3   25.01    1.78
  -6   2   3   22.57    1.59
  -6  -2   3   25.04    1.86
   6   2  -2   75.06    2.09
   6  -2  -2   72.05    2.58
   6   2  -2   75.67    2.83
  -6  -2   2   78.05    2.92
  -6   2   2   71.77    2.63
   6   2  -1    3.00    0.52
   6   2  -1    4.79    0.92
  -6   2   1    3.60    1.10
   6  -2  -1    2.78    0.86
  -6  -2   1    3.80    1.20
  -6   2   0 1019.83   16.88
   6   2   0 1002.84   16.74
   6  -2   0 1003.53   16.82
  -6   2  -1   32.77    2.00
   6  -2   1   31.83    1.80
   6   2   1   31.60    1.69
  -6  -2  -1   30.09    1.81
  -6   2  -2 1545.67   24.76
   6  -2   2 1541.55   24.69
   6   2   2 1505.80   24.20
  -6  -2  -2 1524.77   24.32
  -6   2  -3  200.17    4.63
  -6  -2  -3  204.62    4.90
  -6   2  -3  211.15    5.43
   6  -2   3  213.27    5.36
   6   2   3  201.21    4.85
  -6   2  -4 1115.08   18.59
  -6   2  -4 1167.74   19.53
  -6  -2  -4 1139.71   18.73
   6  -2   4 1111.19   19.49
   6   2   4 1133.68   18.69
  -6   2  -5    5.43    0.94
   6  -2   5    7.17    1.02
  -6   2  -5    7.59    1.35
   6  -2   5    5.27    1.11
  -6  -2  -5    6.36    1.04
   6   2   5    6.10    0.96
   6   2   6 1204.06   20.15
   6  -2   6 1208.43   21.23
  -6   2  -6 1222.68   21.23
  -6  -2  -6 1210.78   20.20
   6  -2   6 1219.99   20.67
  -6  -2  -7   55.85    2.54
   6   2   7   56.59    2.54
   6  -2   7   61.87    3.08
   6  -2   7   54.54    2.77
   6   2   8  938.51   16.70
   6  -2   8  949.63   17.89
  -6  -2  -8  921.73   16.63
   6  -2   8  960.57   17.52
   6  -2   8  933.29   17.24
   6   2   9  105.80    3.82
   6  -2   9  106.64    4.40
   6  -2   9  104.27    4.29
   6  -2   9  105.97    4.12
   6   2   9  101.44    3.18
   6  -2  10  164.52    5.79
   6   2  10  158.73    5.02
   6  -2  10  153.05    5.25
   6   2  10  154.80    4.25
   6  -2  10  154.95    5.59
   6  -2  11    0.99    1.12
   6   2  11    1.11    0.87
   6   2  11    0.22    0.56
   6  -2  11    0.47    0.95
   6  -2  11    1.50    1.12
   6   2  12 1368.11   22.40
   6  -2  12 1326.44   24.29
   6   2  12 1337.83   23.90
   6  -2  12 1378.48   25.44
   6  -2  12 1344.17   25.44
   6   2  13    2.64    0.70
   6   2  13    3.27    1.04
   6  -2  13    4.90    1.45
   6  -2  13    3.60    1.38
   6  -2  14  515.69   12.28
   6   2  14  529.96   10.52
   6   2  14  535.12   12.19
   6  -2  14  526.43   13.67
   6  -2  15  291.13    8.67
   6   2  15  304.61    7.05
   6   2  15  289.34    8.46
   6  -2  15  297.06    9.89
   6  -2  16  227.26    8.72
   6   2  16  225.39    8.70
   6   2  16  218.28    5.80
   6  -2  16  216.60    7.33
   6  -2  17  247.86    9.57
   6   2  17  229.40    9.24
   6  -2  17  241.42    8.03
   6   2  18  267.93   10.19
   6  -2  18  253.31   10.12
   6  -2  18  258.09    8.50
   6   2  19   13.10    2.39
   6  -2  19   20.82    3.22
  -6  -4  20   20.83    2.77
  -6  -4  19    0.01    1.37
  -6  -4  18    2.02    1.67
  -6  -4  18    4.54    1.76
  -6  -4  17  113.59    6.49
  -6  -4  17  115.40    5.92
  -6  -4  16  294.65   10.34
  -6  -4  16  271.01    9.26
  -6  -4  15    1.38    1.64
  -6  -4  15   -0.36    1.23
  -6  -4  14  772.20   18.00
   6  -4 -14  789.48   14.33
  -6  -4  14  771.89   17.33
  -6  -4  13   16.62    2.38
   6  -4 -13   22.81    1.62
  -6  -4  13   17.75    2.26
  -6  -4  12   51.10    3.58
  -6  -4  12   52.05    3.47
   6  -4 -12   52.42    2.41
  -6  -4  11   39.47    3.01
   6  -4 -11   36.82    1.95
  -6  -4  11   37.03    2.88
   6   4 -11   40.35    2.97
  -6  -4  10  334.55    9.05
  -6  -4  10  341.91    9.18
   6   4 -10  337.96    9.10
   6  -4 -10  332.61    7.27
  -6  -4   9  304.53    8.22
   6   4  -9  315.14    8.51
   6  -4  -9  298.94    6.69
  -6  -4   9  309.46    8.49
  -6  -4   8  852.39   16.22
  -6  -4   8  839.91   16.56
   6   4  -8  842.36   16.50
  -6   4   8  849.51   14.47
   6  -4  -8  793.18   14.41
  -6  -4   7  155.72    5.40
   6   4  -7  160.59    5.39
  -6   4   7  158.56    4.13
   6  -4  -7  149.66    4.14
   6   4  -6 1233.72   21.54
  -6  -4   6 1251.82   22.27
   6   4  -6 1270.86   22.27
  -6   4   6 1263.35   20.29
   6   4  -5    5.90    0.98
   6   4  -5    6.90    1.30
  -6  -4   5    7.17    1.33
  -6   4   5    7.36    0.96
   6   4  -4  505.84   10.57
  -6  -4   4  519.26   10.66
   6   4  -4  499.22    9.82
  -6   4   4  500.85    9.30
   6   4  -3   19.79    1.42
   6   4  -3   16.13    1.52
  -6  -4   3   20.09    1.86
   6  -4  -3   16.56    1.28
  -6   4   3   19.25    1.36
   6   4  -2  300.96    7.03
  -6   4   2  308.90    6.46
   6  -4  -2  297.87    6.39
  -6  -4   2  302.98    7.09
   6   4  -1    0.58    0.75
  -6  -4   1   -0.92    1.11
  -6   4   1   -0.65    0.89
   6  -4  -1    0.16    0.75
   6   4   0  714.47   12.82
  -6   4   0  702.23   12.71
   6  -4   0  692.74   12.72
  -6  -4   0  714.41   12.81
   6   4   1  248.28    5.70
  -6   4  -1  249.00    6.02
   6  -4   1  244.41    6.02
  -6  -4  -1  253.59    5.77
   6  -4   2 1194.85   20.37
  -6   4  -2 1204.01   20.31
  -6  -4  -2 1190.86   19.55
   6   4   2 1189.12   19.43
   6  -4   3  122.69    4.18
  -6   4  -3  121.16    4.11
   6   4   3  120.21    3.34
  -6  -4  -3  114.65    3.44
  -6   4  -4  112.59    3.81
  -6  -4  -4  108.33    3.26
   6  -4   4  111.86    4.07
  -6   4  -4  111.40    4.10
   6   4   4  105.11    3.01
   6   4   5    1.73    0.58
  -6   4  -5    2.19    0.92
   6  -4   5    2.34    1.00
  -6  -4  -5    2.81    0.85
   6   4   5    2.22    0.69
  -6   4  -6  768.47   14.76
   6  -4   6  781.86   15.33
  -6  -4  -6  773.86   13.44
   6   4   6  771.00   13.42
   6   4   6  764.24   12.73
   6  -4   7  251.61    7.07
  -6   4  -7  256.42    6.95
   6  -4   7  256.20    7.28
  -6  -4  -7  245.33    5.72
   6   4   7  250.45    5.76
   6   4   7  253.90    5.07
   6  -4   8  371.71    9.18
  -6   4  -8  370.66    9.11
   6  -4   8  374.25    9.47
  -6  -4  -8  355.54    7.57
   6   4   8  356.98    7.60
   6   4   8  359.98    6.66
   6  -4   9   13.48    1.81
   6  -4   9   13.40    1.79
   6   4   9   10.03    1.07
   6   4  10  147.73    4.48
   6  -4  10  162.90    6.05
   6   4  10  152.70    3.47
   6  -4  10  156.75    5.75
   6   4  11  166.46    3.61
   6   4  11  156.83    4.78
   6  -4  11  158.47    5.95
   6   4  12  209.13    4.20
   6  -4  12  201.39    7.01
   6   4  12  198.85    5.70
   6  -4  12  193.75    7.33
   6  -4  13  821.99   18.02
   6   4  13  879.83   13.71
   6   4  13  838.65   16.16
   6  -4  13  854.43   18.94
   6   4  14  225.22    4.26
   6  -4  14  205.11    7.51
   6   4  14  218.27    6.41
   6  -4  14  224.39    8.38
   6  -4  15   19.84    2.71
   6  -4  15   17.60    2.34
   6  -4  16    1.19    1.59
   6  -4  16   -1.28    1.32
   6  -4  17    5.54    2.13
   6  -4  17    0.70    1.39
   6  -4  18   95.18    5.37
   6  -4  19  172.77    7.50
  -6  -6  20   89.81    5.99
  -6  -6  19   13.10    2.44
  -6  -6  18   36.07    3.70
  -6  -6  17   37.83    3.74
  -6  -6  16  410.74   12.45
  -6  -6  15    0.07    1.44
  -6  -6  14  859.10   19.93
  -6   6  14  923.29   15.86
   6  -6 -13  415.42    8.07
  -6  -6  13  412.86   11.88
  -6   6  13  441.20    8.59
   6  -6 -12  266.75    5.79
  -6  -6  12  238.17    8.51
  -6   6  12  267.50    5.93
   6  -6 -11    6.23    0.83
  -6  -6  11    7.55    1.73
  -6   6  11    5.50    0.85
   6  -6 -10  251.80    5.73
  -6  -6  10  254.18    8.20
  -6   6  10  258.87    5.57
   6   6  -9    6.25    1.53
   6   6  -9    3.93    1.19
  -6  -6   9    2.12    1.19
   6  -6  -9    3.41    0.71
  -6   6   9    4.55    0.79
  -6  -6   8 1167.13   22.82
   6   6  -8 1238.94   22.94
   6   6  -8 1236.66   22.47
  -6   6   8 1230.54   19.37
   6  -6  -8 1181.25   19.95
   6   6  -7  223.11    6.93
  -6  -6   7  204.31    6.78
  -6   6   7  210.88    4.67
   6   6  -7  204.45    6.36
   6   6  -6  718.82   14.85
  -6  -6   6  697.76   14.73
  -6   6   6  699.77   12.03
   6   6  -6  696.05   14.12
  -6  -6   5  655.96   13.90
   6   6  -5  677.32   13.88
   6   6  -5  666.90   13.24
  -6   6   5  660.34   11.57
  -6  -6   4  631.66   13.04
   6   6  -4  618.61   13.02
  -6   6   4  626.91   11.05
   6  -6  -4  606.01   11.06
  -6  -6   3  139.24    4.81
   6   6  -3  128.60    4.68
  -6   6   3  132.39    3.76
   6  -6  -3  132.67    3.74
  -6  -6   2  620.16   12.44
   6   6  -2  619.33   12.40
   6  -6  -2  592.55   11.25
  -6   6   2  616.55   11.28
  -6  -6   1  110.93    3.98
   6   6  -1  104.04    3.84
   6  -6  -1  109.71    3.61
  -6   6   1  109.07    3.59
   6   6   0 1239.83   21.24
   6  -6   0 1222.53   21.03
  -6   6   0 1242.95   20.98
  -6  -6   0 1272.10   21.27
   6   6   1  111.91    3.81
   6  -6   1  117.92    4.07
  -6   6  -1  117.18    4.03
  -6  -6  -1  120.00    3.87
   6   6   2  332.96    7.38
   6  -6   2  347.84    8.14
  -6  -6  -2  340.71    7.36
   6   6   3   55.89    2.39
   6  -6   3   60.20    3.06
  -6  -6  -3   60.91    2.46
  -6  -6  -3   64.23    2.51
   6   6   4  128.20    3.62
   6  -6   4  132.15    4.80
  -6  -6  -4  133.02    3.71
   6   6   5   30.62    1.57
   6  -6   5   30.09    2.32
  -6  -6  -5   30.56    1.63
   6  -6   5   28.23    2.35
   6   6   6  291.63    5.97
  -6  -6  -6  308.41    6.41
   6  -6   6  324.81    8.57
  -6   6  -6  327.09    8.37
   6  -6   6  311.58    8.43
   6   6   7  198.44    4.19
  -6  -6  -7  201.20    4.71
   6  -6   7  214.89    6.90
   6  -6   7  199.74    6.66
  -6   6  -7  208.39    6.58
   6   6   8  542.39    8.88
  -6   6  -8  567.18   12.74
   6  -6   8  550.13   12.83
   6  -6   8  577.59   13.19
  -6  -6  -8  541.40    9.97
   6  -6   9  130.81    5.54
  -6   6  -9  143.29    5.65
   6  -6  10   80.99    4.44
   6   6  10   88.17    2.92
   6  -6  11    3.97    1.40
   6   6  11    2.41    0.67
   6  -6  12  416.35   11.64
   6   6  12  438.09    8.74
   6  -6  13    2.59    1.46
   6   6  13   -0.49    0.59
   6  -6  14    8.23    1.92
   6  -6  15  216.13    8.32
   6  -6  16   11.52    2.25
   6  -6  17   40.15    3.73
   6  -6  18    1.38    1.63
   6  -6  19    0.34    1.50
   6  -6  20   20.11    2.98
  -6  -8  18   39.22    4.07
  -6  -8  17   82.22    5.66
  -6  -8  16  209.53    9.07
  -6  -8  15    5.06    1.92
  -6  -8  14  416.12   12.81
  -6  -8  13   37.55    3.59
  -6  -8  12  229.15    8.65
   6  -8 -11   19.94    1.19
  -6  -8  11   20.48    2.60
  -6  -8  10  466.91   12.69
   6  -8 -10  474.16    8.94
  -6  -8   9  280.51    9.10
  -6   8   9  286.67    4.92
   6  -8  -9  288.99    6.39
  -6  -8   8  400.64   11.12
  -6   8   8  420.38    7.14
   6   8  -8  401.88   10.68
  -6  -8   7    4.18    1.48
  -6   8   7    1.42    0.51
   6   8  -7    3.46    1.17
   6   8  -6  358.92    9.66
  -6  -8   6  344.10    9.61
   6   8  -6  347.11    9.23
  -6   8   6  342.99    6.68
  -6  -8   5   71.33    3.88
   6   8  -5   75.28    3.90
  -6   8   5   71.47    2.45
   6  -8  -5   65.33    2.39
  -6  -8   4  330.96    9.03
   6   8  -4  363.59    9.30
   6  -8  -4  338.96    7.13
  -6  -8   3   26.26    2.35
   6  -8  -3   26.96    1.69
   6   8  -3   26.75    2.22
   6   8  -2  464.75   10.51
  -6  -8   2  436.77   10.39
   6  -8  -2  434.90    9.17
  -6  -8   1    3.76    1.26
   6   8  -1    3.71    1.03
   6  -8  -1    4.20    0.92
   6   8   0  538.24   11.35
  -6  -8   0  523.44   11.27
   6  -8   0  518.65   10.95
   6   8   1   21.21    1.79
  -6  -8  -1   20.96    1.82
   6  -8   1   21.65    2.04
   6  -8   1   20.90    1.83
   6   8   2  224.89    6.00
   6  -8   2  225.61    6.86
   6  -8   2  222.45    6.51
  -6  -8  -2  218.05    5.92
   6   8   3   53.00    2.54
   6  -8   3   59.52    3.42
   6  -8   3   60.14    3.28
  -6  -8  -3   51.10    2.51
   6   8   4   37.56    2.04
   6  -8   4   39.61    2.93
   6  -8   4   42.43    2.87
  -6  -8  -4   35.46    1.95
  -6  -8  -4   38.56    2.04
   6  -8   5   16.62    2.14
   6   8   5   13.98    1.21
   6  -8   5   18.07    2.07
  -6  -8  -5   14.28    1.20
  -6  -8  -5   17.73    1.35
   6   8   6  281.34    6.01
  -6  -8  -6  283.19    6.00
   6  -8   6  292.55    8.59
   6  -8   6  285.29    8.63
  -6  -8  -7    8.50    0.86
  -6   8  -7    8.34    1.61
   6   8   7    8.56    0.80
   6  -8   7    7.54    1.70
  -6  -8  -8   44.06    1.67
   6  -8   8   40.85    3.30
   6   8   8   38.43    1.26
   6  -8   9  153.10    6.43
   6  -8  10  310.57    9.84
   6  -8  11  117.62    5.89
   6  -8  12  156.53    7.00
   6  -8  13   22.13    2.84
   6  -8  14   30.06    3.31
   6  -8  15   34.28    3.56
   6  -8  16    2.12    1.67
   6  -8  17    4.07    1.94
   6  -8  18   17.28    2.78
  -6 -10  16   39.81    4.25
  -6 -10  15   -1.56    1.95
  -6 -10  14  164.30    8.01
  -6 -10  13   50.53    4.35
  -6 -10  12  435.13   13.27
  -6 -10  11   12.68    2.49
   6 -10 -10  753.73   13.09
  -6 -10  10  721.10   17.83
   6 -10  -9    9.22    1.05
  -6 -10   9    7.47    2.11
   6 -10  -8  766.09   14.04
  -6 -10   8  748.71   17.72
   6 -10  -7   84.06    3.36
  -6 -10   7   84.90    4.83
   6 -10  -6  729.57   14.16
  -6 -10   6  749.73   16.81
   6 -10  -5   51.91    2.80
  -6 -10   5   54.60    3.68
   6 -10  -5   51.12    2.16
   6 -10  -4  647.14   13.13
  -6 -10   4  619.07   14.51
   6 -10  -4  632.27   11.88
   6  10  -3   80.80    4.20
  -6 -10   3   80.24    4.24
   6 -10  -3   82.81    3.23
   6 -10  -3   82.20    3.75
   6  10  -2  984.01   18.99
  -6 -10   2  923.92   18.67
   6 -10  -2  919.55   17.03
   6 -10  -2  942.53   18.12
  -6 -10   1   23.87    2.33
   6 -10  -1   22.92    1.91
   6 -10  -1   24.13    2.25
   6  10  -1   22.43    2.18
   6  10   0  730.30   14.96
  -6 -10   0  723.35   14.91
   6 -10   0  719.84   14.45
   6 -10   0  688.06   14.99
  -6 -10  -1    2.64    1.14
   6 -10   1    0.47    1.17
   6  10   1    1.41    0.89
   6 -10   1    1.44    0.94
   6  10   2  453.18   10.38
   6 -10   2  460.08   11.55
   6 -10   2  469.17   11.10
  -6 -10  -2  469.11   10.48
  -6 -10  -3    1.78    0.90
   6 -10   3    0.77    1.25
   6  10   3    1.74    0.77
   6 -10   3    1.95    0.92
   6  10   4  171.23    5.19
   6 -10   4  172.63    6.66
   6 -10   4  180.44    6.50
  -6 -10  -4  184.74    4.99
  -6 -10  -4  182.74    5.33
   6 -10   5  250.82    8.34
   6  10   5  242.27    6.22
  -6 -10  -5  250.32    5.84
  -6 -10  -5  257.62    6.32
  -6 -10  -6   94.37    2.89
   6 -10   6   88.33    4.87
   6  10   6   89.29    3.16
  -6 -10  -7  209.62    4.44
   6 -10   7  206.21    7.83
   6  10   7  203.35    4.84
   6 -10   8  571.24   14.57
  -6 -10  -8  556.63    8.89
   6 -10   9   27.79    3.09
   6 -10  10  189.84    7.93
   6 -10  11    9.65    2.30
   6 -10  12  211.88    8.79
   6 -10  13    3.01    2.00
   6 -10  14   52.30    4.62
   6 -10  15    0.39    1.50
   6 -10  16   33.60    3.82
  -6 -12  13    3.96    2.00
  -6 -12  12  224.89    9.60
  -6 -12  11    8.86    2.15
  -6 -12  10  309.40   11.04
  -6 -12   9    7.11    2.29
  -6 -12   8  270.64    9.83
   6 -12  -8  266.35    6.86
   6 -12  -7   35.25    2.36
  -6 -12   7   33.99    3.41
   6 -12  -6  238.68    6.87
  -6 -12   6  225.38    8.56
   6 -12  -5   31.25    2.42
  -6 -12   5   29.70    3.06
   6 -12  -5   27.65    1.69
  -6 -12   4  210.58    7.90
   6 -12  -4  225.07    6.98
   6 -12  -4  221.88    5.81
   6 -12  -3    2.61    1.21
  -6 -12   3    3.18    1.39
   6 -12  -3    3.31    0.98
  -6 -12   2    2.94    1.45
   6 -12  -2    4.61    1.14
   6 -12  -2    6.58    1.59
  -6 -12   1   28.81    2.79
   6 -12  -1   29.17    2.28
   6 -12  -1   26.24    2.57
  -6 -12   0   82.31    4.36
   6 -12   0   81.69    3.99
   6 -12   0   86.49    4.59
   6  12   0   87.23    4.37
  -6 -12  -1    4.51    1.39
   6 -12   1    4.98    1.28
   6 -12   1    3.52    1.35
   6  12   1    6.32    1.39
  -6 -12  -2  133.44    5.29
   6 -12   2  132.80    5.98
   6  12   2  135.52    5.26
   6 -12   2  134.92    5.50
   6 -12   3   77.72    4.63
   6  12   3   72.90    3.69
  -6 -12  -3   80.52    3.88
   6 -12   4   33.81    3.23
   6  12   4   38.95    2.55
  -6 -12  -4   37.04    2.58
   6  12   5   42.80    2.56
   6 -12   5   46.90    3.82
  -6 -12  -5   46.89    2.25
  -6 -12  -5   44.65    2.58
   6 -12   6   54.50    4.21
  -6 -12  -6   55.67    2.21
  -6 -12  -6   56.46    2.73
   6 -12   7    2.97    1.75
   6 -12   8  386.61   12.20
   6 -12   9   39.27    3.83
   6 -12  10  209.79    8.91
   6 -12  11    4.37    1.89
   6 -12  12    6.58    2.13
   6 -12  13    7.68    2.07
  -6 -14  10  313.04   11.67
  -6 -14   9   42.78    4.10
  -6 -14   8  259.02   10.20
  -6 -14   7   43.29    4.12
   6 -14  -6  502.13   11.78
  -6 -14   6  490.37   14.33
  -6 -14   5   10.01    2.35
   6 -14  -5    7.80    1.64
  -6 -14   4  522.67   14.34
   6 -14  -4  532.32   12.83
  -6 -14   3    5.03    1.79
   6 -14  -3    5.44    1.44
  -6 -14   2    8.75    2.06
   6 -14  -2    4.97    1.69
  -6 -14   1    3.70    1.51
   6 -14  -1    2.11    1.00
   6 -14  -1    5.91    1.74
   6 -14   0   85.97    4.95
  -6 -14   0   89.59    4.86
   6 -14   0   90.68    4.56
  -6 -14  -1   54.49    3.70
   6 -14   1   53.79    4.03
   6 -14   2  482.64   13.34
  -6 -14  -2  481.46   12.13
   6 -14   3  126.93    6.35
  -6 -14  -3  131.16    5.45
   6 -14   4   35.93    3.66
  -6 -14  -4   35.48    2.68
   6 -14   5   -0.80    1.50
  -6 -14  -5    0.30    0.88
   6 -14   6  153.73    7.46
   6 -14   7   23.07    3.14
   6 -14   8  172.74    8.21
   6 -14   9   35.81    3.96
   6 -14  10  240.09   10.17
  -6 -16   7   24.08    3.33
  -6 -16   6  290.08   11.05
  -6 -16   5   -0.62    1.67
  -6 -16   4  199.56    8.73
   6 -16  -4  212.40    7.68
   6 -16  -3   11.22    1.94
  -6 -16   3   11.49    2.41
   6 -16  -2   19.55    2.52
  -6 -16   2   18.71    2.73
   6 -16  -1   28.00    3.05
  -6 -16   1   25.61    3.04
   6 -16   0   26.08    2.99
  -6 -16   0   30.82    3.22
   6 -16   1    6.92    2.18
  -6 -16  -1    3.45    1.41
   6 -16   2  237.70    9.29
  -6 -16  -2  247.36    8.48
   6 -16   3   70.60    5.06
  -6 -16  -3   69.51    4.15
   6 -16   4  248.52    9.86
   6 -16   5    9.20    2.37
   6 -16   6    3.35    1.72
  -6 -18   3    0.75    1.51
  -6 -18   2   26.59    3.24
  -6 -18   1   72.64    5.14
   6 -18  -1   70.77    4.97
  -6 -18   0   20.04    2.92
   6 -18   0   22.25    3.07
   6 -18   1   -2.16    2.00
   6 -18   2  179.70    8.43
  -7   1  19  240.22   10.05
  -7  -1  19  238.35    9.97
  -7   1  18    0.87    1.55
  -7  -1  18    1.98    1.55
  -7  -1  18    1.77    1.24
  -7   1  17  238.08    9.47
  -7  -1  17  242.72    9.51
  -7  -1  17  256.93    8.32
  -7  -1  16   10.03    2.20
  -7   1  16   12.29    2.25
  -7  -1  16   12.46    1.91
  -7  -1  15   66.63    4.49
   7  -1 -15   61.56    3.45
  -7  -1  15   63.74    3.83
  -7  -1  14   54.67    3.92
   7  -1 -14   48.76    2.96
   7   1 -14   57.49    3.46
  -7  -1  14   54.12    3.45
  -7  -1  13  208.51    7.42
   7   1 -13  196.00    6.55
   7  -1 -13  206.05    6.31
  -7  -1  13  206.04    6.76
  -7  -1  12    0.90    1.27
   7  -1 -12   -0.02    0.71
   7   1 -12    0.79    0.85
  -7  -1  12    0.49    1.02
  -7   1  12    0.16    0.90
  -7  -1  11  968.54   19.48
   7  -1 -11  992.99   18.32
   7   1 -11 1002.23   19.01
  -7  -1  11 1003.42   18.93
  -7  -1  10   25.94    2.30
   7   1 -10   26.27    2.12
   7  -1 -10   31.33    2.12
  -7  -1  10   27.45    2.25
  -7  -1   9 1058.83   19.36
   7   1  -9 1036.56   19.19
   7  -1  -9 1030.11   18.62
  -7  -1   9 1062.00   19.22
  -7  -1   8   55.10    2.91
   7  -1  -8   51.74    2.61
   7   1  -8   51.48    2.76
  -7  -1   8   47.02    2.68
  -7  -1   7  447.14    9.50
   7  -1  -7  434.04    9.32
   7   1  -7  442.42    9.77
  -7  -1   7  469.78    9.88
  -7  -1   6   96.85    3.36
   7   1  -6   91.94    3.56
  -7  -1   6   93.40    3.59
   7  -1  -6   89.41    3.32
  -7  -1   5 2234.04   34.69
   7   1  -5 2227.80   35.61
  -7  -1   5 2285.61   35.67
   7  -1  -5 2227.55   35.21
  -7  -1   4  194.85    4.52
  -7  -1   4  199.22    5.37
   7  -1  -4  195.96    5.10
   7   1  -4  204.96    5.37
  -7  -1   3    7.29    0.77
   7   1  -3    6.45    1.08
  -7   1   3    6.63    1.21
  -7  -1   2  318.93    5.52
   7   1  -2  312.49    6.97
  -7   1   2  318.45    6.94
  -7   1   1  441.25    8.89
   7  -1  -1  458.50    8.90
  -7  -1   1  451.35    9.00
   7   1  -1  449.26    8.92
  -7  -1   0   19.28    1.74
  -7   1   0   20.65    1.78
   7  -1   0   19.71    1.53
  -7   1  -1 4910.60   73.04
   7   1   1 4856.94   72.89
   7  -1   1 4894.55   73.02
  -7  -1  -1 4901.28   72.93
  -7   1  -2   59.31    1.82
  -7  -1  -2   59.41    2.60
  -7   1  -2   64.37    2.79
   7  -1   2   60.70    2.63
   7   1   2   58.07    2.49
  -7   1  -3 2183.02   33.55
  -7   1  -3 2265.22   35.09
   7  -1   3 2207.05   35.06
  -7  -1  -3 2263.96   34.75
   7   1   3 2212.79   34.78
   7  -1   4  203.59    5.46
  -7  -1  -4  209.38    5.28
   7   1   4  196.37    5.17
  -7   1  -4  199.88    5.42
   7  -1   4  191.34    4.58
  -7  -1  -5 1045.01   17.61
   7   1   5 1000.24   17.47
  -7   1  -5 1006.93   17.87
   7  -1   5  983.67   17.94
   7  -1   5 1001.52   16.97
  -7   1  -6  388.75    8.84
   7   1   6  387.72    8.47
  -7  -1  -6  397.26    8.54
   7  -1   6  387.98    8.90
   7  -1   6  380.37    8.25
   7   1   7 1694.53   27.89
   7  -1   7 1732.65   28.48
  -7   1  -7 1652.47   28.24
  -7  -1  -7 1649.01   27.75
   7  -1   7 1708.46   27.81
   7   1   8  380.03    8.75
  -7  -1  -8  373.97    8.71
   7  -1   8  389.66    9.24
   7  -1   8  389.89    8.93
   7  -1   9 1464.84   25.21
   7   1   9 1406.05   24.44
   7  -1   9 1407.19   24.73
   7  -1   9 1387.14   24.15
   7  -1  10    8.71    1.46
   7   1  10    7.34    1.35
   7  -1  10    9.58    1.40
   7   1  10    9.26    1.16
   7  -1  10    9.87    1.62
   7  -1  11 1041.74   19.91
   7   1  11 1009.27   19.13
   7  -1  11 1018.56   18.86
   7  -1  11 1000.16   19.75
   7   1  11  996.00   17.94
   7  -1  12   43.79    3.09
   7   1  12   39.77    2.78
   7   1  12   39.15    3.03
   7  -1  12   38.19    2.61
   7  -1  12   39.27    2.94
   7   1  12   39.22    2.35
   7  -1  13  321.72    8.57
   7   1  13  333.98    8.00
   7   1  13  334.75    9.11
   7   1  13  327.76    9.70
   7  -1  13  326.41    9.71
   7   1  14    5.73    1.28
   7   1  14    2.97    0.82
   7  -1  14    3.33    1.32
   7  -1  14    4.33    1.29
   7   1  14    5.02    1.53
   7   1  15  376.74   11.38
   7  -1  15  369.44   11.30
   7   1  15  392.89    9.10
   7  -1  15  375.07    9.79
   7   1  16   23.25    2.80
   7  -1  16   25.42    2.99
   7  -1  16   26.50    2.45
   7   1  16   32.70    2.32
   7   1  17   43.67    3.88
   7  -1  17   41.14    3.83
   7  -1  17   47.47    3.27
   7   1  18   29.19    3.33
   7  -1  18   18.17    2.75
   7  -1  19    6.51    2.00
   7   1  19   12.28    2.60
  -7  -3  19  128.81    7.24
  -7  -3  19  114.05    6.00
  -7  -3  18   -0.80    1.77
  -7  -3  18    2.71    1.49
  -7  -3  17  236.25    9.37
  -7  -3  17  244.52    8.70
  -7  -3  16   22.18    2.91
  -7  -3  16   18.21    2.45
  -7  -3  15  198.85    8.00
  -7  -3  15  193.14    7.30
  -7  -3  14   58.83    4.04
   7  -3 -14   59.31    2.98
  -7  -3  14   57.68    3.86
  -7  -3  13  279.10    8.93
   7  -3 -13  274.93    7.11
  -7  -3  13  270.79    8.46
   7   3 -12   15.63    2.02
  -7  -3  12   14.03    2.11
   7  -3 -12   17.43    1.59
  -7  -3  12   18.77    2.20
  -7  -3  11  841.28   17.25
   7   3 -11  841.48   17.16
   7  -3 -11  815.86   15.27
  -7  -3  11  832.27   17.07
  -7  -3  10   10.30    1.68
   7  -3 -10    7.59    1.09
   7   3 -10   10.72    1.62
  -7  -3  10    9.86    1.67
  -7  -3   9  556.07   12.07
   7  -3  -9  537.93   10.87
   7   3  -9  570.27   12.40
  -7  -3   9  541.34   12.20
  -7  -3   8   62.28    3.16
   7   3  -8   65.81    3.37
  -7  -3   8   63.85    3.37
   7  -3  -8   64.72    2.76
  -7  -3   7  795.39   14.86
   7   3  -7  824.50   15.65
  -7  -3   7  771.79   15.38
   7  -3  -7  770.38   14.16
  -7  -3   6   80.08    3.17
   7   3  -6   81.04    3.56
  -7   3   6   78.27    2.92
  -7  -3   6   81.14    3.57
   7  -3  -6   75.41    2.95
   7   3  -5 2125.84   34.70
  -7   3   5 2141.98   33.44
  -7  -3   5 2143.81   34.69
   7   3  -4   18.53    1.37
   7   3  -4   17.64    1.66
  -7  -3   4   20.31    1.80
  -7   3   4   18.56    1.47
   7   3  -3 2339.21   36.00
   7   3  -3 2388.90   37.54
  -7  -3   3 2398.87   37.52
  -7   3   3 2372.50   36.65
   7   3  -2    8.20    0.84
   7   3  -2    6.86    1.11
   7  -3  -2    9.16    1.14
  -7  -3   2    8.89    1.43
  -7   3   2    7.15    1.19
  -7   3   1  645.01   11.74
   7   3  -1  627.35   11.92
   7  -3  -1  627.21   11.65
  -7  -3   1  637.64   11.95
  -7   3   0   63.17    2.73
   7  -3   0   56.02    2.54
  -7  -3   0   62.88    2.71
   7   3   0   61.62    2.58
  -7   3  -1 3537.64   53.03
   7  -3   1 3404.29   53.03
  -7  -3  -1 3486.08   52.75
   7   3   1 3469.15   52.57
  -7   3  -2  351.65    7.80
   7  -3   2  341.57    7.75
  -7  -3  -2  336.02    7.31
   7   3   2  342.39    7.12
  -7   3  -3 1522.59   25.39
   7  -3   3 1501.86   25.43
   7   3   3 1519.83   24.34
  -7  -3  -3 1555.02   24.68
  -7   3  -4  362.91    7.73
   7  -3   4  384.96    8.67
  -7   3  -4  374.06    8.54
  -7  -3  -4  368.96    7.74
   7   3   4  358.47    7.34
   7   3   4  367.85    7.70
  -7   3  -5  663.11   12.54
  -7  -3  -5  662.36   12.27
   7  -3   5  682.01   13.40
  -7   3  -5  666.80   13.30
   7   3   5  662.17   12.24
  -7   3  -6   30.29    2.00
  -7  -3  -6   27.40    1.81
  -7   3  -6   30.07    2.27
   7  -3   6   29.02    2.22
   7   3   6   28.35    1.82
   7  -3   7 1269.37   22.57
  -7  -3  -7 1232.13   20.96
   7   3   7 1241.09   21.00
   7  -3   8    6.30    1.46
   7  -3   8    3.49    1.08
  -7  -3  -8    4.28    1.02
   7   3   8    3.74    0.95
   7  -3   9 1571.14   27.11
  -7  -3  -9 1481.34   25.08
   7   3   9 1482.31   25.05
   7  -3   9 1479.39   26.33
   7  -3   9 1501.01   26.27
   7  -3  10   80.80    4.13
   7   3  10   78.62    3.35
   7  -3  10   78.39    3.95
   7  -3  10   73.52    3.77
   7   3  10   77.71    2.72
   7   3  11  593.81   12.38
   7   3  11  621.70   11.16
   7  -3  11  597.67   13.47
   7  -3  11  592.65   13.75
   7   3  12   58.88    2.36
   7   3  12   52.62    2.96
   7  -3  12   59.83    3.58
   7  -3  12   58.90    3.73
   7  -3  13  570.49   13.61
   7   3  13  613.98   11.18
   7   3  13  603.93   12.89
   7  -3  13  595.59   14.51
   7   3  14    7.82    0.92
   7   3  14    6.32    1.21
   7  -3  14   10.28    2.06
   7  -3  14    7.28    1.57
   7   3  15  179.55    4.63
   7  -3  15  175.65    6.71
   7   3  15  169.82    6.06
   7  -3  15  170.84    7.39
   7  -3  16   77.88    5.16
   7  -3  16   83.74    4.66
   7   3  17  363.85   11.90
   7  -3  17  358.72   11.89
   7  -3  17  328.43   10.15
   7  -3  18   58.63    4.88
   7   3  18   61.68    4.74
   7  -3  18   58.54    4.11
   7   3  19    2.96    1.50
  -7  -5  20    9.61    2.12
  -7  -5  19   91.61    5.68
  -7  -5  18    0.72    1.40
  -7  -5  17  115.41    6.17
  -7  -5  16    0.54    1.67
  -7  -5  16    1.67    1.53
  -7  -5  15  119.89    6.30
  -7  -5  15  106.53    5.71
  -7  -5  14    1.02    1.52
  -7  -5  14   -0.70    1.41
   7  -5 -13  152.56    4.47
  -7  -5  13  147.25    6.42
  -7  -5  12   34.05    3.05
   7  -5 -12   36.29    2.04
  -7   5  12   37.95    2.26
  -7  -5  11  128.18    5.68
   7  -5 -11  135.89    4.14
  -7   5  11  138.03    4.27
   7  -5 -10    2.92    0.74
  -7  -5  10    0.62    1.16
  -7   5  10    3.90    0.88
   7  -5  -9   11.93    1.20
   7   5  -9   16.54    2.03
  -7  -5   9   16.56    2.15
  -7   5   9   12.86    1.27
   7   5  -8    2.86    1.10
  -7  -5   8    5.94    1.53
  -7   5   8    1.32    0.69
   7  -5  -8    0.83    0.66
   7   5  -7   57.19    3.02
  -7  -5   7   54.77    3.31
   7   5  -7   60.63    3.56
  -7   5   7   53.01    2.29
   7   5  -6    7.06    1.23
   7   5  -6    8.67    1.46
  -7  -5   6    6.70    1.48
  -7   5   6    7.40    1.00
  -7  -5   5  982.39   18.69
   7   5  -5 1028.78   18.83
   7   5  -5  978.96   17.75
  -7   5   5 1002.66   16.81
   7   5  -4  182.49    5.69
   7   5  -4  173.57    4.95
  -7   5   4  183.58    4.66
  -7  -5   4  178.48    5.64
   7   5  -3 1003.86   18.31
  -7   5   3 1010.71   17.06
   7  -5  -3  989.51   17.04
  -7  -5   3 1006.84   18.32
   7   5  -2  240.86    6.46
  -7   5   2  249.41    5.89
   7  -5  -2  239.25    5.85
  -7  -5   2  255.12    6.58
   7   5  -1  817.34   14.96
   7  -5  -1  796.64   14.47
  -7   5   1  802.13   14.39
  -7  -5   1  796.94   14.90
   7   5   0  898.63   16.15
  -7   5   0  901.86   16.05
   7  -5   0  900.23   16.08
  -7  -5   0  898.70   16.11
   7   5   1  552.85   10.92
  -7   5  -1  566.32   11.25
   7  -5   1  555.88   11.28
  -7  -5  -1  569.63   10.94
   7   5   2   14.89    1.38
  -7   5  -2   17.65    1.80
   7  -5   2   15.45    1.62
  -7  -5  -2   15.48    1.46
  -7  -5  -2   16.61    1.51
   7   5   3  598.53   11.20
   7  -5   3  629.49   12.54
  -7   5  -3  600.56   12.37
  -7  -5  -3  607.01   11.38
   7   5   4    2.34    0.74
   7  -5   4    3.00    1.15
  -7   5  -4    1.10    1.16
  -7  -5  -4    1.91    0.86
  -7   5  -5  530.21   11.29
   7  -5   5  556.50   12.00
  -7  -5  -5  539.55   10.26
   7   5   5  537.76    9.87
   7   5   6    8.09    0.88
  -7   5  -6    8.56    1.30
   7  -5   6    7.09    1.31
  -7  -5  -6    9.33    1.10
  -7   5  -7 1694.68   28.94
   7  -5   7 1698.13   29.37
   7  -5   7 1789.20   29.86
  -7  -5  -7 1661.01   26.97
   7   5   7 1672.44   26.97
   7   5   7 1660.34   26.07
   7  -5   8   23.02    2.25
  -7   5  -8   23.27    2.16
   7  -5   8   24.76    2.34
  -7  -5  -8   21.94    1.54
   7   5   8   20.62    1.50
   7   5   8   22.20    1.21
  -7   5  -9 1264.61   23.72
   7  -5   9 1293.71   23.92
  -7  -5  -9 1246.57   21.30
   7  -5   9 1335.43   24.53
   7   5   9 1282.58   19.88
   7   5   9 1259.92   21.30
   7   5  10   19.59    1.02
   7  -5  10   23.21    2.44
   7   5  10   21.34    1.05
   7   5  10   23.40    1.68
   7  -5  11  758.75   16.97
   7   5  11  792.81   12.45
   7   5  11  783.41   14.60
   7   5  11  796.50   12.45
   7  -5  12  111.88    5.33
   7   5  12  117.73    4.06
   7  -5  13  264.62    8.80
   7   5  13  276.44    7.03
   7  -5  14  194.55    7.47
   7   5  14  188.81    5.71
   7  -5  15  674.19   16.34
   7  -5  16    2.22    1.69
   7  -5  17  360.95   11.34
   7  -5  18   23.34    3.04
   7  -5  19  100.52    5.86
  -7  -7  19   85.72    5.84
  -7  -7  18    4.80    1.90
  -7  -7  17  125.84    6.89
  -7  -7  16    3.81    1.76
  -7  -7  15  307.03   10.67
  -7  -7  14   15.27    2.53
  -7  -7  13  299.65   10.20
  -7   7  13  315.98    6.44
   7  -7 -12    0.96    0.62
  -7  -7  12    1.01    1.42
  -7   7  12    0.62    0.58
   7  -7 -11  494.68    9.73
  -7  -7  11  473.42   13.03
  -7   7  11  522.65    9.30
  -7  -7  10  177.38    7.08
  -7   7  10  196.48    4.46
   7  -7 -10  179.16    4.85
  -7  -7   9  733.27   16.43
   7   7  -9  738.74   15.91
  -7   7   9  741.32   12.57
   7  -7  -9  714.96   13.34
  -7  -7   8    2.89    1.37
  -7   7   8    2.29    0.63
   7   7  -8    1.04    1.03
  -7  -7   7  124.38    5.35
   7   7  -7  120.44    5.22
  -7   7   7  124.70    3.46
   7   7  -7  120.41    4.86
   7   7  -6   -0.75    1.12
  -7  -7   6    1.56    1.33
  -7   7   6    0.13    0.60
   7   7  -6    0.83    0.91
  -7  -7   5 1021.17   19.88
   7   7  -5 1066.55   19.97
   7   7  -5 1008.61   18.95
  -7   7   5 1021.82   17.23
  -7  -7   4  439.36   10.72
   7   7  -4  471.43   10.90
  -7   7   4  458.24    8.97
   7  -7  -4  441.69    8.96
  -7  -7   3 1010.78   18.99
   7   7  -3 1046.94   19.17
  -7   7   3  997.00   17.19
   7  -7  -3  965.82   17.19
  -7  -7   2    1.79    1.15
   7   7  -2    0.75    0.85
  -7   7   2    0.51    0.80
   7  -7  -2    0.86    0.73
   7   7  -1  840.13   15.97
   7  -7  -1  819.53   15.23
  -7   7   1  835.17   15.20
  -7  -7   1  828.95   15.93
   7   7   0  200.98    5.84
  -7   7   0  200.59    5.67
   7  -7   0  197.32    5.67
  -7  -7   0  200.89    5.84
   7   7   1  233.82    6.30
   7  -7   1  243.54    6.60
  -7  -7  -1  239.00    6.32
   7   7   2   47.08    2.46
   7  -7   2   53.18    2.94
  -7  -7  -2   50.81    2.56
   7   7   3   18.78    1.52
   7  -7   3   17.43    1.85
  -7  -7  -3   21.16    1.60
  -7  -7  -3   20.60    1.62
   7   7   4   54.95    2.47
   7  -7   4   54.21    3.15
  -7  -7  -4   53.57    2.42
   7   7   5 1018.12   17.33
  -7  -7  -5 1016.20   17.44
   7  -7   5 1065.22   20.06
   7  -7   5 1024.20   19.95
   7   7   6  142.66    3.82
   7  -7   6  145.93    5.66
  -7  -7  -6  137.89    3.99
  -7   7  -6  151.76    5.50
   7  -7   6  147.75    5.75
   7   7   7  869.74   14.52
  -7  -7  -7  864.61   15.10
   7  -7   7  946.05   18.60
  -7   7  -7  891.64   17.90
   7  -7   7  873.87   18.18
   7   7   8   11.80    0.85
  -7  -7  -8   10.79    1.05
   7  -7   8   12.53    2.09
  -7   7  -8   12.93    1.95
   7   7   9  317.27    5.46
  -7  -7  -9  338.65    6.88
   7  -7   9  326.36    9.71
   7  -7  10  415.14   11.49
   7  -7  11  137.88    6.22
   7  -7  12   -0.69    1.43
   7  -7  13   86.33    5.17
   7  -7  14   20.29    2.72
   7  -7  15  130.56    6.62
   7  -7  16   29.51    3.50
   7  -7  17  208.33    8.81
   7  -7  18   15.10    2.83
   7  -7  19    5.71    2.03
  -7  -9  16   13.01    2.75
  -7  -9  15  164.43    8.13
  -7  -9  14   19.24    3.03
  -7  -9  13  122.37    6.68
  -7  -9  12    0.88    1.52
  -7  -9  11  534.32   14.51
  -7  -9  10  247.02    8.88
   7  -9 -10  231.63    5.68
  -7  -9   9  782.00   18.13
  -7  -9   8   22.01    2.67
  -7  -9   7  226.27    8.08
   7   9  -6    2.26    1.06
  -7  -9   6    3.52    1.60
  -7  -9   5   67.10    4.01
   7  -9  -5   70.98    2.77
   7   9  -4   21.98    2.23
  -7  -9   4   18.84    2.25
   7  -9  -4   19.63    1.53
  -7  -9   3  940.83   18.78
   7   9  -3  963.86   18.86
   7  -9  -3  924.15   16.75
   7   9  -2    7.67    1.52
  -7  -9   2    6.95    1.56
   7  -9  -2    4.47    0.94
  -7  -9   1  723.69   14.98
   7   9  -1  738.55   15.01
   7  -9  -1  700.01   14.00
   7   9   0  338.03    8.55
   7  -9   0  317.79    8.15
  -7  -9   0  323.18    8.45
   7   9   1  721.48   14.24
   7  -9   1  684.71   14.78
   7  -9   1  698.82   14.38
  -7  -9  -1  684.29   14.06
   7   9   2   47.63    2.70
   7  -9   2   48.38    3.23
   7  -9   2   47.18    2.96
  -7  -9  -2   49.64    2.80
   7   9   3  425.57    9.51
   7  -9   3  427.75   11.00
   7  -9   3  453.54   10.86
  -7  -9  -3  432.74    9.58
   7   9   4  125.67    4.24
   7  -9   4  126.28    5.47
   7  -9   4  140.25    5.51
  -7  -9  -4  130.93    4.33
  -7  -9  -4  129.29    4.15
   7   9   5 2123.20   34.52
   7  -9   5 2161.39   37.89
   7  -9   5 2265.82   37.82
  -7  -9  -5 2191.70   34.38
  -7  -9  -5 2206.03   34.71
   7   9   6  251.40    5.88
  -7  -9  -6  246.29    5.76
   7  -9   6  246.79    8.27
   7   9   7 1662.65   26.44
  -7  -9  -7 1691.02   26.54
   7  -9   7 1710.35   31.25
  -7  -9  -8   18.26    1.16
   7   9   8   19.20    1.10
   7  -9   8   16.03    2.46
  -7  -9  -9  258.92    5.16
   7  -9   9  229.46    8.56
   7  -9  10    0.59    1.58
   7  -9  11  248.95    9.23
   7  -9  12    1.21    1.71
   7  -9  13  243.43    9.49
   7  -9  14  122.58    6.73
   7  -9  15  208.55    9.06
   7  -9  16   54.33    4.70
   7  -9  17  114.24    6.77
  -7 -11  14   57.01    4.91
  -7 -11  13   22.15    3.14
  -7 -11  12   86.02    5.72
  -7 -11  11  273.18   10.30
  -7 -11  10   23.72    3.14
   7 -11  -9  413.13    8.91
  -7 -11   9  373.24   12.10
   7 -11  -8    1.94    0.82
  -7 -11   8   -0.21    1.45
   7 -11  -7   58.61    3.01
  -7 -11   7   64.84    4.50
   7 -11  -6  116.98    4.50
  -7 -11   6  120.58    5.95
   7 -11  -5    3.76    1.13
  -7 -11   5    5.06    1.78
   7 -11  -5    3.83    0.89
   7 -11  -4   82.61    3.94
  -7 -11   4   73.71    4.42
   7 -11  -4   75.04    3.14
   7 -11  -3    3.56    1.22
  -7 -11   3    2.28    1.33
   7 -11  -3    3.03    0.91
   7 -11  -2    6.43    1.41
  -7 -11   2    4.80    1.55
   7 -11  -2    5.64    1.08
  -7 -11   1  672.01   15.04
   7  11  -1  699.11   15.17
   7 -11  -1  673.81   14.02
   7 -11  -1  676.53   14.93
  -7 -11   0  201.47    6.83
   7  11   0  210.08    6.88
   7 -11   0  204.19    6.50
   7 -11   0  199.76    7.01
  -7 -11  -1    7.69    1.56
   7 -11   1    9.21    1.75
   7  11   1    8.77    1.50
   7 -11   1    7.79    1.40
   7  11   2  136.60    5.19
   7 -11   2  143.21    6.05
   7 -11   2  150.88    5.77
  -7 -11  -2  147.28    5.34
   7 -11   3  574.90   14.18
   7  11   3  562.65   12.32
   7 -11   3  586.71   13.61
  -7 -11  -3  581.31   12.46
   7  11   4    3.91    1.04
   7 -11   4    2.50    1.51
  -7 -11  -4    3.07    0.98
  -7 -11  -4    3.77    1.02
   7 -11   5  469.79   12.96
   7  11   5  473.76   10.37
  -7 -11  -5  495.07    9.89
  -7 -11  -5  486.39   10.47
  -7 -11  -6   35.57    1.88
   7  11   6   31.92    2.01
   7 -11   6   32.78    3.28
  -7 -11  -7  592.60   10.42
   7 -11   7  553.40   14.87
   7  11   7  572.47   10.98
  -7 -11  -8   36.07    1.41
   7 -11   8   38.83    3.68
   7 -11   9   52.24    4.30
   7 -11  10    0.59    1.64
   7 -11  11   37.25    3.89
   7 -11  12    3.57    2.01
   7 -11  13  402.55   13.27
   7 -11  14   31.69    3.75
  -7 -13  11  124.55    7.12
  -7 -13  10   32.63    3.69
  -7 -13   9  489.32   14.75
   7 -13  -8   61.87    3.16
  -7 -13   8   56.80    4.62
  -7 -13   7  184.35    8.12
   7 -13  -7  177.74    5.90
  -7 -13   6   38.08    3.74
   7 -13  -6   38.36    2.71
  -7 -13   5   17.27    2.58
   7 -13  -5   16.90    2.03
  -7 -13   4   19.09    2.64
   7 -13  -4   19.36    2.22
  -7 -13   3  393.48   11.57
   7 -13  -3  397.41   10.71
   7 -13  -3  397.93    9.39
   7 -13  -2    9.86    1.86
  -7 -13   2    6.04    1.88
   7 -13  -2    6.04    1.15
  -7 -13   1  213.18    7.68
   7 -13  -1  207.08    6.73
   7 -13  -1  214.62    7.69
  -7 -13   0  107.60    5.24
   7 -13   0  108.34    5.39
   7 -13   0  109.18    4.86
   7 -13   1 1060.45   22.04
  -7 -13  -1 1042.14   20.99
   7  13   2  295.56    8.73
   7 -13   2  296.33    9.72
  -7 -13  -2  299.01    8.76
   7 -13   3  106.19    5.61
   7  13   3  100.62    4.59
  -7 -13  -3  105.44    4.70
   7  13   4   65.07    3.54
   7 -13   4   69.43    4.68
  -7 -13  -4   70.20    3.23
  -7 -13  -4   69.69    3.62
   7 -13   5  926.19   21.15
  -7 -13  -5  938.38   17.91
  -7 -13  -5  942.85   16.84
   7 -13   6    3.26    1.91
  -7 -13  -6    2.77    0.97
   7 -13   7  201.63    8.56
   7 -13   8    0.34    1.71
   7 -13   9   29.04    3.57
   7 -13  10   61.60    4.97
   7 -13  11  264.49   10.70
  -7 -15   8   -2.22    1.75
  -7 -15   7  128.99    7.18
  -7 -15   6    7.35    2.02
   7 -15  -5   96.21    4.79
  -7 -15   5   82.28    5.55
   7 -15  -4   22.92    2.51
  -7 -15   4   25.56    3.22
  -7 -15   3  102.72    5.97
   7 -15  -3  100.07    5.20
   7 -15  -2    3.37    1.54
  -7 -15   2    4.21    1.80
  -7 -15   1  448.20   12.75
   7 -15  -1  447.07   12.59
   7 -15   0    1.89    1.33
  -7 -15   0    3.54    1.59
   7 -15   1  108.90    5.93
  -7 -15  -1  108.41    5.49
   7 -15   2    0.71    1.46
  -7 -15  -2    0.05    1.25
   7 -15   3  195.43    8.35
  -7 -15  -3  198.59    7.13
   7 -15   4    7.06    1.88
  -7 -15  -4   10.76    1.64
   7 -15   5  140.73    7.22
   7 -15   6  272.82   10.57
   7 -15   7  171.50    8.29
   7 -15   8    3.61    1.84
  -7 -17   5  130.12    7.33
  -7 -17   4    0.14    1.57
  -7 -17   3  251.47   10.03
   7 -17  -3  263.16    9.30
   7 -17  -2    1.31    1.49
  -7 -17   2    2.65    1.80
   7 -17  -1  384.19   12.11
  -7 -17   1  401.01   12.50
   7 -17   0   11.37    2.27
  -7 -17   0   11.13    2.25
   7 -17   1   82.09    5.48
  -7 -17  -1   79.19    5.05
   7 -17   2    3.50    1.97
   7 -17   3  128.51    7.08
   7 -17   4   29.99    3.66
  -8   0  19    2.41    1.91
  -8   0  18    7.89    2.62
  -8   0  17    0.32    1.60
  -8   0  16  108.45    5.94
  -8   0  16  113.67    5.13
   8   0 -15   -1.12    0.91
  -8   0  15   -0.81    1.38
  -8   0  15   -0.02    1.08
  -8   0  14    7.49    1.95
   8   0 -14    6.07    1.40
  -8   0  14    7.53    1.56
  -8   0  13    2.99    1.46
   8   0 -13   -0.24    0.83
  -8   0  13    2.30    1.33
   8   0 -12   81.95    3.89
  -8   0  12   78.93    3.91
   8   0 -11    1.32    0.93
  -8   0  11    0.42    1.00
   8   0 -10   22.80    2.12
  -8   0  10   21.91    2.00
   8   0  -9   -0.22    0.86
  -8   0   9    0.75    0.98
   8   0  -8    1.01    0.77
  -8   0   8    3.26    1.14
   8   0  -7    1.46    0.84
   8   0  -6  319.51    7.66
   8   0  -5    0.21    0.79
   8   0  -4  236.93    6.05
   8   0  -3   -0.53    0.81
  -8   0   2   39.18    2.33
  -8   0   1   -0.43    1.10
   8   0   0  683.80   12.83
  -8   0   0  712.03   12.98
   8   0   1   -0.39    0.91
  -8   0  -1    3.34    1.29
  -8   0  -2  794.56   14.24
   8   0   2  767.41   14.24
   8   0   3    1.11    0.58
  -8   0  -3   -1.34    1.08
   8   0   3   -0.03    0.85
   8   0   4 1582.77   24.76
  -8   0  -4 1603.24   26.35
   8   0   4 1592.17   26.29
   8   0   5    0.93    0.79
  -8   0  -5    1.73    1.23
   8   0   5    1.34    1.04
   8   0   6 2365.27   37.79
  -8   0  -6 2359.99   37.74
   8   0   6 2346.87   36.78
   8   0   7    0.60    0.91
  -8   0  -7   -1.01    0.99
   8   0   7    1.82    0.90
  -8   0  -8  887.28   17.19
   8   0   8  937.11   17.45
   8   0   8  923.45   16.93
   8   0   9   -0.19    0.86
   8   0   9   -0.45    0.93
   8   0  10   33.19    2.52
   8   0  10   34.33    2.54
   8   0  11    1.33    0.96
   8   0  11    0.73    0.91
   8   0  11   -0.11    1.14
   8   0  12   30.82    2.58
   8   0  12   24.32    2.44
   8   0  12   27.69    2.25
   8   0  13   -1.06    1.35
   8   0  13    0.22    0.86
   8   0  14   64.00    4.15
   8   0  14   70.08    3.51
   8   0  15   -0.90    1.26
   8   0  15   -0.74    1.04
   8   0  16   39.16    3.55
   8   0  16   39.34    2.76
   8   0  17    1.61    1.50
   8   0  17   -0.21    1.13
   8   0  18    5.71    2.10
   8   0  19   -0.07    1.54
  -8   2  19   -0.08    1.66
  -8  -2  19    1.36    1.87
  -8  -2  19    1.32    1.31
  -8   2  18    2.25    1.86
  -8  -2  18   -1.23    1.58
  -8  -2  18    0.97    1.54
  -8  -2  17    6.94    2.07
  -8  -2  17    3.80    1.56
  -8  -2  16  109.67    5.95
  -8  -2  16   92.83    5.00
  -8  -2  15  111.65    5.86
   8  -2 -15  111.68    4.58
  -8  -2  15  115.43    5.43
  -8  -2  14   11.77    2.12
   8  -2 -14   18.14    1.85
  -8  -2  14   14.89    2.08
  -8  -2  13   12.35    2.06
   8  -2 -13   10.85    1.43
  -8  -2  13   13.31    1.97
  -8  -2  12    0.70    1.20
   8  -2 -12    0.87    0.84
  -8  -2  12    1.36    1.21
   8   2 -12    3.22    1.12
  -8  -2  11    4.68    1.30
  -8  -2  11    7.79    1.52
   8  -2 -11    7.86    1.21
   8   2 -11    8.65    1.59
  -8  -2  10   43.51    2.89
   8   2 -10   47.27    2.96
   8  -2 -10   43.08    2.54
  -8  -2  10   46.04    3.01
  -8  -2   9   21.50    2.01
  -8  -2   9   23.72    2.20
   8  -2  -9   20.74    1.78
   8   2  -9   24.34    2.19
  -8  -2   8  142.15    4.80
   8   2  -8  141.74    5.04
  -8  -2   8  141.58    5.08
   8  -2  -8  136.34    4.51
  -8  -2   7   52.40    2.66
   8   2  -7   53.55    2.93
  -8  -2   7   49.76    2.88
   8  -2  -7   48.68    2.51
  -8  -2   6   98.19    3.43
   8   2  -6   97.58    3.89
  -8  -2   6   92.37    3.90
   8  -2  -6   94.65    3.52
  -8  -2   5  226.35    5.40
   8   2  -5  225.26    6.25
  -8   2   5  230.92    5.84
   8  -2  -5  221.72    5.85
  -8  -2   5  232.80    6.32
  -8  -2   4  310.62    6.37
   8   2  -4  318.70    7.58
  -8  -2   4  297.61    7.45
  -8   2   4  317.32    7.16
  -8   2   3   89.50    3.33
   8   2  -3   94.56    3.55
  -8  -2   3   94.10    3.68
   8   2  -2    4.66    1.04
  -8   2   2    7.52    1.24
   8  -2  -2    6.98    1.12
   8   2  -1   58.85    1.53
  -8   2   1   65.88    2.83
   8   2  -1   57.80    2.66
   8  -2  -1   62.17    2.69
  -8   2   0  641.31   12.07
   8  -2   0  636.97   12.03
   8   2   0  636.01   11.96
  -8  -2   0  629.48   12.08
  -8   2  -1    2.90    1.14
  -8  -2  -1    4.63    1.17
   8   2   1    5.41    1.07
   8  -2   1    3.13    1.05
  -8   2  -2   50.90    1.93
  -8   2  -2   55.41    2.74
   8  -2   2   58.44    2.68
  -8  -2  -2   54.35    2.64
   8   2   2   53.48    2.46
  -8   2  -3  859.32   14.76
  -8   2  -3  909.49   16.30
  -8  -2  -3  902.01   15.82
   8  -2   3  901.45   16.31
   8   2   3  903.60   15.86
  -8   2  -4 2353.92   36.87
  -8  -2  -4 2415.89   37.75
  -8   2  -4 2410.43   38.37
   8  -2   4 2443.25   38.45
   8   2   4 2404.70   37.68
  -8   2  -5   83.09    3.03
  -8  -2  -5   82.30    3.30
  -8   2  -5   83.99    3.64
   8  -2   5   82.10    3.62
   8   2   5   84.14    3.24
  -8  -2  -6 1365.72   23.06
   8  -2   6 1378.31   23.94
  -8   2  -6 1337.92   23.79
   8   2   6 1361.08   23.01
   8  -2   7   68.27    3.10
   8   2   7   68.66    3.09
   8  -2   7   71.26    3.51
  -8  -2  -7   67.65    3.09
  -8   2  -7   66.93    3.45
   8  -2   8   45.99    2.71
  -8  -2  -8   47.27    2.67
   8   2   8   53.10    2.72
   8  -2   8   54.87    3.18
   8  -2   9  123.40    4.70
   8  -2   9  127.85    5.06
  -8  -2  -9  121.11    4.41
   8   2   9  121.67    4.42
   8  -2  10    5.01    1.27
   8  -2  10    5.26    1.28
   8  -2  10    5.89    1.38
   8   2  10    4.60    1.12
   8   2  11   49.29    2.95
   8  -2  11   54.55    3.45
   8  -2  11   47.97    3.21
   8  -2  11   48.39    3.07
   8   2  11   49.91    2.45
   8   2  12  658.30   14.11
   8  -2  12  665.92   15.09
   8  -2  12  656.30   14.38
   8   2  12  681.20   12.90
   8   2  13    2.97    0.96
   8  -2  13    4.71    1.53
   8   2  13    3.99    0.88
   8  -2  13    4.41    1.39
   8   2  14  259.17    6.61
   8  -2  14  252.95    7.91
   8   2  14  249.13    7.76
   8   2  14  252.18    8.71
   8  -2  14  245.09    8.65
   8  -2  15   43.15    3.61
   8   2  15   36.35    3.34
   8  -2  15   41.49    3.13
   8   2  15   42.40    2.40
   8   2  16   51.52    4.08
   8  -2  16   50.61    4.06
   8  -2  16   51.03    3.49
   8   2  17  129.79    6.62
   8  -2  17  122.96    6.60
   8  -2  17  117.28    5.47
   8   2  18  469.44   14.28
   8  -2  18  482.06   14.57
   8  -2  18  484.90   12.66
   8   2  19   41.26    4.00
  -8  -4  20   11.14    2.38
  -8  -4  19   40.17    3.90
  -8  -4  18   50.38    4.44
  -8  -4  18   51.05    4.19
  -8  -4  17   56.27    4.71
  -8  -4  17   48.47    4.10
  -8  -4  16    1.41    1.78
  -8  -4  16    0.04    1.37
  -8  -4  15    3.19    1.73
  -8  -4  15    4.17    1.80
  -8  -4  14   81.83    4.93
   8  -4 -14   86.64    3.60
  -8  -4  14   77.94    4.70
  -8  -4  13   38.04    3.30
   8  -4 -13   41.65    2.44
  -8  -4  13   36.23    3.16
  -8  -4  12   -0.94    1.25
  -8  -4  12    1.61    1.35
   8  -4 -12   -0.54    0.66
  -8  -4  11  267.88    8.20
   8  -4 -11  263.01    6.80
  -8  -4  11  283.56    8.53
  -8  -4  10    6.46    1.60
   8   4 -10    6.24    1.43
  -8  -4  10    7.73    1.58
   8  -4 -10    6.45    1.06
  -8   4  10    5.71    1.13
  -8  -4   9   29.02    2.37
   8   4  -9   32.06    2.57
  -8   4   9   31.11    2.02
   8  -4  -9   26.96    1.87
  -8  -4   9   35.20    2.81
   8   4  -8    3.88    1.18
  -8  -4   8    5.70    1.49
   8  -4  -8    3.44    0.88
  -8   4   8    4.24    0.98
   8   4  -7   17.49    1.87
  -8  -4   7   18.07    2.00
   8  -4  -7   16.43    1.49
  -8   4   7   17.83    1.55
  -8  -4   6   10.22    1.63
   8   4  -6    7.42    1.39
  -8   4   6   10.01    1.21
   8   4  -5  156.94    4.58
   8   4  -5  167.50    5.46
  -8   4   5  159.29    4.53
  -8  -4   5  158.27    5.36
   8   4  -4   50.07    2.82
   8   4  -4   44.49    2.13
  -8   4   4   46.17    2.28
  -8  -4   4   42.65    2.66
   8   4  -3  222.33    6.18
   8   4  -3  214.68    5.07
  -8   4   3  215.86    5.50
  -8  -4   3  218.91    6.16
   8  -4  -3  206.50    5.42
   8   4  -2   54.58    2.78
  -8   4   2   50.84    2.48
   8  -4  -2   47.04    2.40
  -8  -4   2   56.86    2.88
   8   4  -1   38.93    2.31
  -8   4   1   41.30    2.28
  -8  -4   1   38.89    2.40
   8  -4  -1   42.14    2.30
  -8   4   0  367.86    8.06
   8  -4   0  338.45    7.91
  -8  -4   0  347.36    7.94
   8   4   0  354.31    7.90
   8  -4   1  101.10    3.82
  -8   4  -1  106.74    3.86
   8   4   1  109.61    3.69
  -8  -4  -1  106.35    3.75
   8  -4   2   62.55    3.01
  -8   4  -2   67.18    3.12
   8   4   2   61.14    2.66
  -8  -4  -2   63.78    2.85
   8  -4   3   52.97    2.82
  -8   4  -3   52.75    2.88
  -8  -4  -3   50.37    2.52
   8   4   3   49.71    2.35
  -8   4  -4  159.71    4.73
  -8   4  -4  172.72    5.51
   8  -4   4  174.55    5.53
  -8  -4  -4  166.76    4.74
   8   4   4  161.84    4.46
  -8   4  -5   18.80    1.68
  -8   4  -5   17.73    1.93
  -8  -4  -5   19.22    1.61
   8  -4   5   23.48    2.12
   8   4   5   17.96    1.38
   8   4   5   20.45    1.58
  -8   4  -6  901.48   16.63
  -8  -4  -6  892.32   15.91
   8  -4   6  909.51   17.61
  -8   4  -6  887.82   17.44
   8   4   6  889.35   15.88
   8   4   6  877.88   15.25
  -8   4  -7   28.32    2.17
   8  -4   7   34.41    2.59
  -8  -4  -7   29.30    1.96
   8   4   7   32.51    2.00
   8   4   7   29.55    1.65
  -8   4  -8   17.70    1.84
  -8  -4  -8   15.56    1.50
   8  -4   8   17.02    2.01
   8   4   8   16.89    1.54
   8  -4   9   20.41    2.28
   8  -4   9   21.19    2.28
  -8  -4  -9   19.45    1.69
   8   4   9   17.17    1.61
   8  -4  10  129.47    5.34
  -8  -4 -10  130.05    4.50
   8   4  10  137.51    4.57
   8  -4  11   58.43    3.73
   8   4  11   60.00    2.29
   8   4  11   61.51    3.05
   8   4  12  205.37    6.18
   8  -4  12  207.80    7.36
   8   4  12  215.12    4.97
   8   4  13  576.94   10.20
   8   4  13  542.57   12.08
   8  -4  13  538.73   13.52
   8  -4  14   48.62    3.62
   8   4  14   52.81    2.01
   8   4  14   50.13    3.04
   8  -4  15   34.21    3.12
   8  -4  16   15.48    2.34
   8  -4  17   38.85    3.62
   8  -4  18   98.21    5.53
   8  -4  19   18.84    2.65
  -8  -6  19    9.31    2.39
  -8  -6  18    6.92    2.31
  -8  -6  17   61.21    4.65
  -8  -6  16    3.83    1.89
  -8  -6  15    9.39    2.19
  -8  -6  14    4.18    1.96
  -8   6  14    3.81    0.94
  -8  -6  13   24.43    2.79
  -8   6  13   28.30    1.94
   8  -6 -12    9.95    1.21
  -8  -6  12    9.87    1.99
  -8   6  12    8.07    1.16
  -8  -6  11   21.62    2.60
   8  -6 -11   15.80    1.45
  -8   6  11   15.38    1.44
   8  -6 -10  366.98    8.30
  -8  -6  10  374.03   10.61
  -8   6  10  391.05    8.15
  -8  -6   9    4.71    1.52
   8  -6  -9    2.44    0.74
  -8   6   9    4.20    0.91
   8   6  -8    7.62    1.45
  -8  -6   8    6.87    1.79
   8   6  -8    6.76    1.37
   8  -6  -8    8.09    1.11
  -8   6   8    8.60    1.09
   8   6  -7    2.89    1.07
   8   6  -7    3.24    1.36
  -8  -6   7    3.29    1.41
  -8   6   7    1.20    0.71
   8   6  -6  122.65    4.99
   8   6  -6  110.24    4.29
  -8   6   6  119.17    3.72
  -8  -6   6  118.26    4.95
   8   6  -5  470.04   11.12
   8   6  -5  460.34   10.11
  -8   6   5  472.95    9.38
  -8  -6   5  459.64   11.04
   8   6  -4  357.59    8.95
   8   6  -4  318.76    7.75
  -8   6   4  346.03    7.49
   8  -6  -4  325.79    7.39
  -8  -6   4  343.11    8.83
  -8  -6   3    6.14    1.41
   8   6  -3    7.60    1.28
  -8   6   3    7.61    1.10
   8  -6  -3    8.26    1.11
   8   6  -2  523.58   11.17
  -8   6   2  506.76   10.28
  -8  -6   2  508.38   11.14
   8  -6  -2  498.47   10.34
  -8  -6   1   -0.92    1.17
   8   6  -1    1.04    0.79
  -8   6   1    2.43    0.99
   8  -6  -1    0.65    0.77
   8   6   0  921.96   17.08
   8  -6   0  935.80   17.04
  -8   6   0  928.27   16.95
  -8  -6   0  938.02   17.10
   8   6   1  573.40   11.68
  -8   6  -1  588.21   12.04
   8  -6   1  593.37   12.11
  -8  -6  -1  578.27   11.68
   8   6   2   45.51    2.43
  -8   6  -2   43.72    2.71
   8  -6   2   47.34    2.77
  -8  -6  -2   46.97    2.51
  -8  -6  -2   48.31    2.57
   8   6   3    8.15    1.12
   8  -6   3    9.03    1.43
  -8   6  -3    6.76    1.41
  -8  -6  -3    6.19    1.02
   8   6   4  936.44   16.59
   8  -6   4  992.11   18.62
  -8  -6  -4  955.99   16.84
   8   6   5   18.40    1.43
  -8   6  -5   21.99    2.08
   8  -6   5   16.52    1.87
  -8  -6  -5   15.39    1.42
   8   6   6  353.88    7.36
  -8  -6  -6  347.54    7.74
   8  -6   6  355.64    9.50
  -8   6  -6  362.32    9.08
   8   6   7  197.36    4.78
  -8  -6  -7  191.31    5.21
   8  -6   7  213.06    7.02
  -8   6  -7  210.73    6.64
   8  -6   7  210.72    6.97
   8   6   8  272.08    5.82
  -8  -6  -8  280.94    6.60
  -8   6  -8  294.90    8.32
   8  -6   8  278.43    8.48
   8   6   9  626.85   10.77
  -8   6  -9  634.04   14.28
   8  -6   9  635.85   14.62
  -8  -6  -9  625.98   12.01
   8   6  10 1032.04   16.12
   8  -6  10  967.73   20.72
  -8  -6 -10 1027.67   17.94
   8   6  10 1023.45   17.91
   8   6  11   15.23    0.72
   8  -6  11   14.49    2.23
   8   6  11   14.67    0.72
   8   6  11   15.09    1.47
   8  -6  12  308.70    9.91
   8   6  12  340.87    7.80
   8  -6  13   -0.41    1.58
   8   6  13   -0.55    0.78
   8  -6  14    6.74    1.75
   8  -6  15   61.36    4.47
   8  -6  16   14.76    2.39
   8  -6  17   13.70    2.54
   8  -6  18   82.88    5.39
   8  -6  19    1.57    1.42
  -8  -8  17    8.99    2.58
  -8  -8  16    2.96    1.74
  -8  -8  15   30.00    3.60
  -8  -8  14    5.94    2.12
  -8  -8  13   27.47    3.29
  -8  -8  12    4.79    1.95
  -8   8  12    6.37    0.74
   8  -8 -11    6.20    0.97
  -8  -8  11    5.23    1.73
  -8   8  11    4.21    0.71
  -8  -8  10   17.04    2.58
  -8   8  10   24.76    1.39
   8  -8 -10   20.44    1.61
  -8  -8   9   24.82    2.72
  -8   8   9   26.15    1.47
   8  -8  -9   22.24    1.72
  -8  -8   8    9.87    1.98
  -8   8   8   16.07    1.22
   8   8  -8   14.89    1.88
  -8  -8   7   77.73    4.39
  -8   8   7   82.05    2.85
   8   8  -7   80.63    4.06
  -8  -8   6  408.19   10.99
   8   8  -6  400.08   10.15
  -8   8   6  421.17    8.44
   8   8  -5  141.96    5.68
  -8  -8   5  131.39    5.55
   8   8  -5  129.27    4.96
  -8   8   5  136.64    4.10
   8  -8  -5  133.11    4.07
  -8  -8   4  132.33    5.42
   8   8  -4  138.82    5.40
  -8   8   4  130.93    4.17
   8  -8  -4  130.13    4.18
   8   8  -3  704.58   14.52
  -8   8   3  654.72   12.70
  -8  -8   3  665.59   14.31
   8  -8  -3  633.39   12.65
   8   8  -2   34.43    2.57
  -8   8   2   34.07    2.22
   8  -8  -2   35.72    2.23
  -8  -8   2   35.69    2.71
  -8  -8   1    6.28    1.46
   8   8  -1    6.15    1.29
  -8   8   1    4.62    1.11
   8  -8  -1    8.22    1.26
   8   8   0  505.19   11.11
  -8   8   0  481.32   10.70
   8  -8   0  483.32   10.80
  -8  -8   0  489.71   10.99
   8   8   1   70.58    3.33
   8  -8   1   64.68    3.34
  -8  -8  -1   63.80    3.20
   8   8   2   69.74    3.21
   8  -8   2   77.59    3.76
  -8  -8  -2   68.09    3.21
   8   8   3  193.77    5.59
   8  -8   3  199.79    6.51
  -8  -8  -3  193.44    5.52
  -8  -8  -3  193.70    5.61
   8   8   4   18.33    1.58
   8  -8   4   18.32    2.22
   8  -8   4   15.49    1.93
  -8  -8  -4   16.67    1.55
   8   8   5   13.96    1.33
   8  -8   5   11.01    1.93
   8  -8   5   14.07    1.85
  -8  -8  -5   11.74    1.27
   8   8   6   30.08    1.80
  -8  -8  -6   30.40    1.87
   8  -8   6   33.15    2.91
  -8   8  -6   34.05    2.75
   8   8   7   45.00    2.01
  -8  -8  -7   39.83    2.10
   8  -8   7   40.91    3.32
   8   8   8    5.34    0.73
  -8  -8  -8    5.47    0.92
   8  -8   8    7.99    1.89
   8   8   9   26.44    1.18
  -8  -8  -9   27.87    1.64
   8  -8   9   25.62    2.74
   8  -8  10  466.14   12.92
   8  -8  11  377.69   11.43
   8  -8  12  195.98    8.06
   8  -8  13   25.32    3.10
   8  -8  14   34.11    3.55
   8  -8  15    0.23    1.61
   8  -8  16   20.80    2.99
   8  -8  17   54.65    4.69
   8  -8  18   86.35    5.92
  -8 -10  15    1.32    1.86
  -8 -10  14    2.08    1.63
  -8 -10  13   20.03    3.06
  -8 -10  12   22.75    3.13
  -8 -10  11   24.78    3.05
  -8 -10  10    5.62    2.11
  -8 -10   9    4.93    1.82
  -8 -10   8   15.65    2.39
  -8 -10   7   25.24    2.88
  -8 -10   6  175.07    7.05
  -8 -10   5    2.35    1.70
   8 -10  -5   -0.16    0.65
  -8 -10   4   63.66    4.01
   8 -10  -4   57.49    2.78
  -8 -10   3   66.89    3.97
   8 -10  -3   63.73    3.07
  -8 -10   2  934.94   19.15
   8  10  -2  985.74   19.39
   8 -10  -2  938.35   17.69
   8  10  -1  161.24    5.95
   8 -10  -1  157.53    5.42
  -8 -10   1  169.13    6.12
   8  10   0  737.67   15.37
   8 -10   0  712.93   15.60
   8 -10   0  725.31   15.01
  -8 -10   0  737.51   15.37
  -8 -10  -1    7.17    1.51
   8 -10   1    4.68    1.54
   8  10   1    6.11    1.31
   8 -10   1    3.96    1.10
   8  10   2  949.96   18.40
   8 -10   2  964.18   19.77
   8 -10   2 1001.16   19.45
  -8 -10  -2  972.22   18.48
   8  10   3   36.16    2.47
   8 -10   3   36.15    3.07
   8 -10   3   36.10    2.83
  -8 -10  -3   32.08    2.37
   8 -10   4  348.24   10.20
   8  10   4  345.63    8.42
  -8 -10  -4  347.68    8.48
  -8 -10  -4  359.16    8.33
   8 -10   5  110.18    5.49
   8  10   5  105.26    3.97
  -8 -10  -5  110.60    3.86
   8 -10   6   13.13    2.14
   8  10   6   16.21    1.48
  -8 -10  -6   16.41    1.38
  -8 -10  -7  329.08    7.04
   8  10   7  306.82    6.94
   8 -10   7  311.60   10.16
  -8 -10  -8  229.33    5.20
   8  10   8  208.82    4.98
   8 -10   8  219.93    8.47
  -8 -10  -9    0.79    0.53
   8 -10   9   -1.40    1.68
   8 -10  10  233.80    9.05
   8 -10  11   44.54    4.05
   8 -10  12  467.14   14.03
   8 -10  13   53.51    4.60
   8 -10  14  112.44    6.71
   8 -10  15   21.74    3.18
  -8 -12  12    4.26    2.03
  -8 -12  11  130.37    7.16
  -8 -12  10   50.87    4.47
   8 -12  -9    4.62    1.09
  -8 -12   9    4.06    1.82
   8 -12  -8  146.18    5.09
  -8 -12   8  144.05    7.19
   8 -12  -7    2.76    1.10
  -8 -12   7    3.13    1.84
   8 -12  -6   10.40    1.68
  -8 -12   6    9.86    2.24
   8 -12  -5   10.63    1.67
  -8 -12   5    8.64    1.98
   8 -12  -5   12.82    1.43
   8 -12  -4    7.80    1.64
  -8 -12   4    9.14    2.04
   8 -12  -4    7.43    1.18
   8 -12  -3   20.28    2.26
  -8 -12   3   20.41    2.62
   8 -12  -3   18.92    1.80
  -8 -12   2  112.25    5.47
   8 -12  -2  123.56    5.37
   8 -12  -2  116.98    4.69
   8 -12  -1  170.13    6.54
   8 -12  -1  163.21    5.81
  -8 -12   1  161.59    6.45
  -8 -12   0   23.35    2.47
   8 -12   0   17.11    2.31
   8 -12   0   20.39    2.14
   8  12   1   84.78    4.30
   8 -12   1   93.21    4.99
   8 -12   1   85.66    4.36
  -8 -12  -1   78.45    4.18
   8 -12   2   49.14    3.96
   8  12   2   46.27    3.11
  -8 -12  -2   45.67    3.15
   8  12   3  603.68   13.44
   8 -12   3  624.07   15.43
  -8 -12  -3  618.49   13.56
   8  12   4   33.51    2.56
   8 -12   4   33.06    3.29
  -8 -12  -4   32.78    2.25
  -8 -12  -4   34.24    2.49
   8 -12   5   22.55    2.91
   8  12   5   20.68    1.97
  -8 -12  -5   19.96    1.70
  -8 -12  -5   21.49    1.94
  -8 -12  -6   31.42    1.93
   8 -12   6   35.13    3.53
   8  12   6   31.81    2.13
   8 -12   7   49.03    4.16
   8 -12   8    2.00    1.64
   8 -12   9   -0.12    1.51
   8 -12  10   64.59    5.06
   8 -12  11    5.47    2.01
   8 -12  12   31.26    3.59
  -8 -14  10   26.65    3.52
  -8 -14   9    9.80    2.37
  -8 -14   8   -0.12    1.59
  -8 -14   7   -0.58    1.58
   8 -14  -6  133.93    5.48
  -8 -14   6  133.16    7.00
   8 -14  -5   47.65    3.33
  -8 -14   5   38.12    3.79
   8 -14  -4  254.66    8.33
  -8 -14   4  245.30    9.31
   8 -14  -3    3.13    1.35
  -8 -14   3   -1.51    1.70
   8 -14  -2   51.61    3.80
  -8 -14   2   55.27    4.11
   8 -14  -1   23.53    2.74
  -8 -14   1   26.10    2.91
   8 -14   0    9.07    2.01
  -8 -14   0    9.78    2.04
   8 -14   1   65.27    4.48
  -8 -14  -1   63.52    4.09
   8 -14   2  440.90   12.89
  -8 -14  -2  467.48   12.00
   8 -14   3    1.19    1.53
  -8 -14  -3   -0.19    1.11
   8 -14   4  105.12    6.05
  -8 -14  -4  116.65    5.02
  -8 -14  -4  115.24    4.43
   8 -14   5    6.16    1.94
  -8 -14  -5    6.91    1.41
   8 -14   6  249.62    9.88
   8 -14   7  144.48    7.49
   8 -14   8   95.54    6.17
   8 -14   9   24.32    3.45
  -8 -16   6  417.41   13.77
  -8 -16   5    3.24    1.84
   8 -16  -4   78.72    4.69
  -8 -16   4   79.47    5.47
   8 -16  -3   23.77    2.96
  -8 -16   3   27.67    3.42
   8 -16  -2    1.57    1.80
  -8 -16   2    2.39    1.58
   8 -16  -1   -1.23    1.50
  -8 -16   1   -1.24    1.42
   8 -16   0    4.82    1.82
  -8 -16   0    1.89    1.43
   8 -16   1   10.58    2.42
  -8 -16  -1    9.64    2.01
   8 -16   2  113.92    6.42
  -8 -16  -2  114.61    5.67
   8 -16   3    1.00    1.51
  -8 -16  -3    0.02    1.10
   8 -16   4  219.52    9.44
   8 -16   5   68.47    5.14
  -8 -18   2    4.61    1.87
   8 -18  -1   61.26    4.77
  -8 -18   1   62.45    4.75
   8 -18   0    2.67    1.90
  -8 -18   0    0.04    1.55
   8 -18   1    6.42    1.88
  -9  -1  19  126.53    7.09
  -9   1  19  123.29    7.05
  -9   1  18   41.91    4.37
  -9  -1  18   34.67    3.78
  -9  -1  18   34.97    3.24
  -9   1  17  494.23   14.48
  -9  -1  17  494.41   14.41
  -9  -1  17  516.86   13.28
  -9  -1  16   13.65    2.42
  -9   1  16   10.86    2.31
  -9  -1  16   11.16    1.95
  -9  -1  15  185.13    7.53
   9  -1 -15  168.50    6.24
  -9  -1  15  182.01    6.90
  -9  -1  14    2.81    1.70
   9  -1 -14    1.53    0.92
  -9  -1  14    0.40    1.18
  -9  -1  13   60.71    3.99
   9  -1 -13   60.42    3.39
   9   1 -13   60.03    3.57
  -9  -1  13   60.89    3.71
  -9  -1  12    4.96    1.43
   9   1 -12    5.73    1.39
   9  -1 -12    3.58    1.10
  -9  -1  12    4.92    1.43
  -9  -1  11   69.17    3.86
   9   1 -11   70.20    3.73
   9  -1 -11   69.13    3.49
  -9  -1  11   69.59    3.78
  -9  -1  10    0.28    1.06
   9  -1 -10    0.68    0.80
   9   1 -10    2.69    1.11
  -9  -1  10    1.21    1.11
  -9  -1   9 1805.56   30.30
   9  -1  -9 1753.99   30.07
   9   1  -9 1797.47   30.64
  -9  -1   9 1811.56   30.71
  -9  -1   8  188.93    5.67
   9  -1  -8  191.21    5.79
   9   1  -8  186.73    5.97
  -9  -1   8  191.73    6.06
  -9  -1   7  337.15    7.81
   9   1  -7  332.35    8.43
  -9  -1   7  342.82    8.51
   9  -1  -7  336.22    8.14
  -9  -1   6   31.96    1.92
   9   1  -6   34.07    2.34
   9  -1  -6   37.23    2.30
  -9  -1   6   33.52    2.34
  -9  -1   5  227.15    5.34
   9   1  -5  238.92    6.44
   9  -1  -5  223.25    6.09
  -9  -1   4  113.38    3.11
  -9   1   4  113.85    4.03
   9  -1  -4  112.15    4.02
   9   1  -4  110.74    4.05
  -9  -1   3 2212.52   33.20
   9   1  -3 2187.70   35.47
  -9   1   3 2233.74   35.34
  -9  -1   2   90.50    2.08
  -9  -1   2  101.39    3.83
  -9   1   2   90.14    3.51
   9   1  -2   91.87    3.58
   9  -1  -1  116.36    3.98
  -9  -1   1  121.02    4.13
   9   1  -1  108.94    3.88
  -9   1   1  117.47    4.07
  -9  -1   0   15.53    1.70
   9  -1   0   16.05    1.64
  -9   1   0   17.05    1.80
  -9   1  -1   30.89    1.14
  -9   1  -1   33.01    2.26
   9  -1   1   36.48    2.21
  -9  -1  -1   33.99    2.27
   9   1   1   32.88    2.13
   9   1   2    1.01    0.38
  -9   1  -2    1.32    0.47
  -9   1  -2    0.08    1.23
  -9  -1  -2    2.62    1.17
   9   1   2    1.90    0.89
   9  -1   2    2.72    1.08
   9   1   3 1626.36   24.89
  -9  -1  -3 1635.44   27.08
  -9   1  -3 1652.11   27.38
   9  -1   3 1649.94   27.38
   9   1   3 1670.33   27.15
   9   1   4    0.70    0.60
  -9  -1  -4    0.07    1.04
  -9   1  -4   -1.83    1.38
   9  -1   4    1.50    0.92
   9   1   4    2.03    0.97
   9  -1   5  603.06   11.21
  -9  -1  -5  618.53   12.33
   9  -1   5  614.10   12.58
  -9   1  -5  615.73   12.60
   9   1   5  620.23   12.33
   9  -1   6   63.74    2.75
   9  -1   6   62.33    3.17
   9   1   6   66.29    3.14
  -9   1  -6   58.20    3.10
  -9  -1  -6   58.23    2.95
   9  -1   7  270.25    6.81
   9   1   7  276.87    7.29
  -9   1  -7  277.19    7.62
  -9  -1  -7  273.44    7.25
   9  -1   7  294.46    7.76
   9   1   8   24.04    1.92
   9  -1   8   21.67    1.89
  -9  -1  -8   21.67    2.00
  -9   1  -8   26.17    2.35
   9  -1   8   27.35    2.33
   9   1   8   23.10    1.98
   9   1   9   89.97    3.98
  -9   1  -9   88.39    4.17
   9  -1   9  101.37    4.44
  -9  -1  -9   88.50    3.95
   9   1   9   91.27    3.95
   9  -1   9   93.89    4.01
   9   1  10   97.91    4.28
   9  -1  10  100.37    4.56
   9   1  10   93.67    4.23
   9  -1  10   91.79    4.23
   9   1  11   92.70    4.29
   9  -1  11   97.96    4.64
   9   1  11   92.44    4.37
   9  -1  11   95.59    4.20
   9  -1  11   95.74    4.55
   9   1  11   92.57    3.79
   9   1  12   50.38    3.24
   9   1  12   51.41    3.48
   9  -1  12   55.25    3.27
   9   1  12   49.73    2.80
   9  -1  12   57.91    3.66
   9   1  13   93.49    4.56
   9   1  13   87.85    4.73
   9  -1  13   88.76    4.27
   9  -1  13   91.02    4.80
   9   1  13   92.06    3.92
   9  -1  14   51.95    3.30
   9   1  14   51.31    3.78
   9  -1  14   53.75    3.85
   9   1  14   49.71    2.89
   9   1  15  289.42    9.79
   9  -1  15  287.88    9.79
   9   1  15  324.48    8.24
   9  -1  15  305.84    8.84
   9   1  16    2.58    1.05
   9  -1  16    2.91    1.24
   9   1  16   -0.06    1.41
   9  -1  16   -0.33    1.50
   9  -1  17    1.65    1.27
   9   1  17    1.44    1.47
   9  -1  17    2.86    1.32
   9  -1  18   12.04    2.37
   9   1  18   13.90    2.39
   9  -1  19  123.94    6.96
   9   1  19  145.50    7.55
  -9  -3  19   89.55    5.47
  -9  -3  18    0.65    1.70
  -9  -3  18    0.58    1.56
  -9  -3  17  107.38    6.18
  -9  -3  17  105.38    5.67
  -9  -3  16   10.62    2.22
  -9  -3  16   14.11    2.37
  -9  -3  15  689.37   16.81
  -9  -3  15  682.24   16.29
  -9  -3  14   45.18    3.63
   9  -3 -14   49.43    2.96
  -9  -3  14   47.27    3.59
  -9  -3  13   12.50    2.10
   9  -3 -13   14.52    1.73
  -9  -3  13   13.86    2.18
  -9  -3  12   97.32    4.82
   9  -3 -12   94.84    3.97
  -9  -3  12   97.64    4.83
  -9  -3  11  313.40    8.87
   9  -3 -11  308.60    7.93
  -9  -3  11  317.84    9.13
  -9  -3  10    2.22    1.17
  -9  -3  10   -1.73    1.40
   9   3 -10    0.99    1.07
   9  -3 -10    0.97    0.76
  -9  -3   9  722.72   14.70
   9   3  -9  749.83   15.51
  -9  -3   9  720.86   15.34
   9  -3  -9  711.04   14.11
  -9  -3   8  211.44    6.12
   9   3  -8  214.66    6.71
  -9   3   8  213.61    5.96
   9  -3  -8  203.97    5.87
  -9  -3   8  212.85    6.73
  -9  -3   7  246.23    6.45
   9   3  -7  243.57    7.17
   9  -3  -7  243.63    6.43
  -9   3   7  243.71    6.37
  -9  -3   7  227.41    6.95
  -9  -3   6  153.20    4.55
   9   3  -6  150.91    5.28
  -9  -3   6  145.43    5.26
   9  -3  -6  149.52    4.77
  -9   3   6  155.55    4.77
   9   3  -5    5.89    1.27
  -9   3   5    3.76    1.04
  -9  -3   5    4.38    1.44
   9   3  -4  513.06   11.22
  -9  -3   4  528.16   11.29
  -9   3   4  519.72   10.53
   9   3  -3  123.86    4.42
   9   3  -3  116.35    3.18
  -9   3   3  122.73    4.08
  -9  -3   3  126.36    4.50
   9   3  -2  406.26    7.39
  -9   3   2  423.39    8.99
   9   3  -2  410.28    9.27
   9  -3  -2  418.78    8.99
  -9  -3   2  420.57    9.34
   9   3  -1    3.80    0.58
   9   3  -1    3.39    1.08
   9  -3  -1    3.66    1.14
  -9   3   1    3.24    1.15
  -9   3   0   42.96    2.48
  -9  -3   0   38.14    2.39
   9   3   0   40.95    2.34
   9  -3   0   42.91    2.43
  -9   3  -1  308.07    7.51
   9  -3   1  309.86    7.52
   9   3   1  301.96    7.22
  -9  -3  -1  309.10    7.42
   9  -3   2  555.39   11.47
  -9   3  -2  550.77   11.46
  -9  -3  -2  546.67   11.12
   9   3   2  559.26   10.96
  -9   3  -3   85.68    2.94
  -9  -3  -3   86.61    3.45
   9  -3   3   91.47    3.79
  -9   3  -3   89.62    3.75
   9   3   3   83.49    3.20
  -9   3  -4   81.68    3.01
   9  -3   4   88.52    3.86
  -9   3  -4   87.95    3.79
  -9  -3  -4   82.12    3.37
   9   3   4   80.42    3.27
  -9   3  -5  852.42   15.45
  -9   3  -5  852.08   16.72
   9  -3   5  896.96   17.00
  -9  -3  -5  847.46   15.79
   9   3   5  878.42   15.87
  -9   3  -6    1.98    0.80
   9  -3   6    2.76    1.18
  -9  -3  -6    0.41    0.92
  -9   3  -6    0.92    1.24
   9   3   6    2.14    0.82
  -9   3  -7  234.78    7.21
   9  -3   7  246.70    7.35
  -9  -3  -7  239.25    6.45
   9   3   7  240.26    6.43
   9  -3   8  207.22    6.78
  -9  -3  -8  188.67    5.70
   9   3   8  198.80    5.82
   9  -3   9   13.40    1.78
  -9  -3  -9   13.65    1.60
   9   3   9   10.84    1.37
   9  -3  10  185.89    6.42
   9   3  10  194.00    5.93
  -9  -3 -10  175.22    5.73
   9  -3  11  538.74   12.88
   9  -3  11  529.68   12.62
   9   3  11  545.60   11.95
   9  -3  12   86.79    4.50
   9   3  12   92.84    3.35
   9  -3  12   92.48    4.70
   9   3  12   91.75    4.15
   9  -3  13   23.88    2.53
   9   3  13   22.57    1.69
   9  -3  13   17.95    2.18
   9   3  13   22.44    2.18
   9   3  14  164.46    4.77
   9   3  14  167.04    6.01
   9  -3  14  150.58    6.68
   9  -3  14  154.90    6.34
   9  -3  15    0.24    1.33
   9   3  15    1.73    0.79
   9  -3  15    1.32    1.17
   9  -3  16    1.15    1.45
   9  -3  16   -0.25    1.37
   9   3  16    0.14    1.38
   9  -3  17   25.07    2.70
   9  -3  17   28.75    3.31
   9   3  17   28.86    3.38
   9   3  18   81.94    5.51
   9  -3  18   83.43    5.67
   9  -3  18   82.10    4.93
  -9  -5  20    7.11    2.27
  -9  -5  19    2.94    1.75
  -9  -5  18    3.67    1.88
  -9  -5  17   76.61    5.21
  -9  -5  16   14.36    2.51
  -9   5  15  109.31    4.39
  -9  -5  15   99.68    5.65
  -9  -5  14   13.13    2.24
  -9   5  14   18.66    1.85
   9  -5 -13  543.10   11.52
  -9  -5  13  530.71   14.06
  -9   5  13  575.41   11.88
   9  -5 -12   11.89    1.42
  -9  -5  12    9.73    1.93
  -9   5  12   10.30    1.39
   9  -5 -11   33.17    2.18
  -9  -5  11   34.45    2.98
  -9   5  11   34.45    2.32
  -9  -5  10    3.83    1.51
   9  -5 -10    2.31    0.87
  -9   5  10    1.77    0.89
   9  -5  -9 1682.69   28.40
  -9   5   9 1750.87   28.23
  -9  -5   9 1693.99   30.68
   9   5  -8  392.11   10.33
   9  -5  -8  381.48    8.82
  -9  -5   8  386.55   10.28
  -9   5   8  399.28    8.64
   9   5  -7  331.38    9.11
  -9  -5   7  329.28    9.07
  -9   5   7  325.52    7.55
   9   5  -6  102.10    4.45
   9   5  -6   95.82    3.77
  -9   5   6   98.08    3.60
  -9  -5   6   96.80    4.45
   9   5  -5  562.80   12.27
   9   5  -5  522.29   10.84
  -9   5   5  541.28   10.79
  -9  -5   5  552.94   12.21
   9   5  -4  215.89    6.52
   9   5  -4  209.27    5.50
  -9   5   4  211.83    5.65
  -9  -5   4  211.88    6.52
   9   5  -3 1089.65   19.62
   9   5  -3 1038.24   17.81
  -9   5   3 1056.64   18.42
  -9  -5   3 1045.70   19.44
   9  -5  -3 1018.64   18.38
   9   5  -2  902.29   16.87
  -9   5   2  878.98   16.09
   9  -5  -2  874.52   16.08
  -9  -5   2  877.47   16.76
   9   5  -1  324.88    7.90
  -9   5   1  306.03    7.49
   9  -5  -1  301.55    7.51
  -9  -5   1  307.97    7.76
   9   5   0   71.33    3.19
   9  -5   0   65.34    3.14
  -9   5   0   68.22    3.16
  -9  -5   0   67.97    3.23
   9   5   1  456.24    9.80
  -9   5  -1  447.20   10.03
   9  -5   1  454.00   10.13
  -9  -5  -1  459.55    9.96
   9  -5   2  204.01    6.11
  -9   5  -2  207.45    6.09
   9   5   2  195.54    5.49
  -9  -5  -2  195.44    5.63
  -9   5  -3  416.11    9.79
   9  -5   3  415.93    9.89
  -9  -5  -3  402.35    8.94
   9   5   3  404.85    8.77
  -9   5  -4  179.32    5.94
   9  -5   4  181.47    6.00
   9   5   4  169.23    4.84
  -9  -5  -4  177.34    5.16
  -9   5  -5 1244.61   21.93
  -9   5  -5 1251.95   22.90
   9  -5   5 1298.03   23.12
  -9  -5  -5 1226.31   21.24
   9   5   5 1221.26   20.79
   9   5   6    3.24    0.75
  -9   5  -6    3.40    1.12
   9  -5   6    4.59    1.18
  -9  -5  -6    3.42    0.98
  -9   5  -7  195.48    6.12
   9  -5   7  188.14    6.59
  -9  -5  -7  178.79    5.29
   9   5   7  182.35    4.77
  -9   5  -8  188.06    6.20
  -9  -5  -8  182.11    5.34
   9   5   8  178.16    5.27
   9   5   8  186.60    4.73
  -9   5  -9  140.78    5.55
   9  -5   9  155.57    6.08
  -9  -5  -9  150.85    4.80
   9   5   9  149.86    4.06
   9   5   9  152.70    4.84
   9  -5  10  110.49    5.17
  -9  -5 -10  111.48    4.16
   9   5  10  114.32    3.35
   9   5  10  112.57    4.14
   9  -5  11   12.64    2.05
   9   5  11   14.01    1.54
   9   5  11   15.40    1.14
   9  -5  12   58.62    4.00
   9   5  12   64.62    2.25
   9   5  12   62.00    2.20
   9   5  12   58.09    3.05
   9  -5  13  397.26   11.51
   9   5  13  423.29    7.59
   9   5  13  392.70    9.59
   9  -5  14  236.67    8.61
   9  -5  15   74.90    4.76
   9  -5  16   34.66    3.37
   9  -5  17   20.25    2.82
   9  -5  18   50.42    4.23
   9  -5  19    8.68    2.40
  -9  -7  18    7.65    2.35
  -9  -7  17  124.38    6.94
  -9  -7  16    4.66    1.98
  -9  -7  15  377.97   12.25
  -9  -7  14  332.25   11.15
  -9   7  13  450.76    9.16
  -9  -7  13  401.06   12.46
   9  -7 -12   44.69    2.41
  -9   7  12   46.83    2.31
  -9  -7  12   45.12    3.84
  -9   7  11  554.54   10.54
  -9  -7  11  505.61   13.81
   9  -7 -11  518.80   10.93
  -9  -7  10    7.49    1.96
  -9   7  10    6.78    1.07
   9  -7 -10    3.23    0.91
  -9  -7   9   11.96    2.10
  -9   7   9   10.70    1.21
   9  -7  -9   11.00    1.30
  -9  -7   8   37.69    3.16
   9   7  -8   40.15    2.86
  -9   7   8   40.69    2.18
   9   7  -7  212.83    6.69
  -9   7   7  217.64    5.60
  -9  -7   7  210.43    7.36
   9   7  -6  323.84    8.39
  -9   7   6  321.04    7.36
  -9  -7   6  325.15    9.27
   9   7  -5   67.89    3.78
   9   7  -5   61.71    3.16
  -9   7   5   58.83    2.76
  -9  -7   5   66.51    3.86
   9   7  -4  538.61   12.20
   9   7  -4  477.13   10.67
  -9   7   4  512.42   10.41
  -9  -7   4  510.08   11.94
   9  -7  -4  492.62   10.39
   9   7  -3  377.28    9.61
  -9   7   3  373.35    8.44
   9  -7  -3  362.68    8.42
  -9  -7   3  364.77    9.49
   9   7  -2    0.35    0.91
  -9  -7   2   -0.33    1.12
  -9   7   2    2.10    0.97
   9  -7  -2    1.14    0.83
   9   7  -1   27.98    2.25
  -9  -7   1   27.96    2.29
  -9   7   1   28.38    2.16
   9  -7  -1   27.66    2.09
   9   7   0   33.46    2.37
   9  -7   0   29.49    2.20
  -9   7   0   30.46    2.27
  -9  -7   0   34.48    2.45
   9   7   1    0.25    0.79
   9  -7   1    2.59    0.96
  -9   7  -1    0.55    1.12
  -9  -7  -1    1.90    1.03
   9   7   2    0.12    0.78
   9  -7   2    0.50    0.94
  -9   7  -2    1.33    1.09
  -9  -7  -2    0.73    0.88
  -9  -7  -2    0.16    0.91
   9   7   3  379.69    8.64
  -9   7  -3  369.71    9.55
   9  -7   3  386.12    9.75
  -9  -7  -3  377.34    8.69
   9   7   4  104.68    3.76
   9  -7   4  101.08    4.57
  -9  -7  -4  100.70    3.80
   9   7   5    3.15    0.85
   9  -7   5    3.33    1.30
  -9  -7  -5    1.92    0.79
   9   7   6   12.64    1.26
  -9   7  -6   16.39    1.89
   9  -7   6   16.13    2.07
  -9  -7  -6   13.56    1.45
   9   7   7  274.35    6.28
  -9  -7  -7  277.17    6.80
  -9   7  -7  268.78    8.12
   9  -7   7  293.96    8.88
   9   7   8  128.70    3.64
  -9  -7  -8  125.09    4.16
   9  -7   8  114.40    5.48
   9   7   9   73.28    2.44
  -9  -7  -9   70.99    2.99
   9  -7   9   70.49    4.28
   9   7  10  576.74    9.82
  -9  -7 -10  575.15   11.37
   9  -7  10  560.40   14.38
   9  -7  11  248.99    8.65
   9   7  11  201.11    3.80
   9   7  11  217.23    3.85
   9  -7  12   17.17    2.58
   9  -7  13  264.68    9.50
   9  -7  14    6.66    2.06
   9  -7  15   10.72    2.24
   9  -7  16   15.12    2.77
   9  -7  17    8.73    2.21
   9  -7  18   53.74    4.62
  -9  -9  16   16.80    2.88
  -9  -9  15   97.35    6.22
  -9  -9  14   74.09    5.29
  -9  -9  13  202.19    8.73
  -9  -9  12    2.06    1.57
  -9  -9  11   83.08    5.27
  -9  -9  10  265.24    9.60
  -9   9  10  294.90    5.97
   9  -9 -10  266.84    7.03
  -9  -9   9   23.48    2.82
  -9   9   9   23.13    1.48
  -9  -9   8   16.90    2.36
  -9   9   8   23.41    1.57
  -9  -9   7  199.14    7.58
   9   9  -7  188.97    6.76
  -9   9   7  198.48    5.14
   9   9  -6  168.29    6.13
  -9   9   6  178.32    4.96
  -9  -9   6  175.36    6.88
   9   9  -5  183.58    6.29
  -9   9   5  200.61    5.40
   9  -9  -5  179.41    5.26
  -9  -9   5  174.86    6.79
  -9  -9   4   -1.16    1.37
  -9   9   4   -0.19    0.82
   9  -9  -4   -0.06    0.72
  -9  -9   3   25.73    2.54
   9   9  -3   25.81    2.43
  -9   9   3   23.40    1.90
   9  -9  -3   27.45    2.05
  -9  -9   2   25.55    2.47
   9   9  -2   25.33    2.31
  -9   9   2   24.93    2.08
   9  -9  -2   24.18    1.99
   9   9  -1  272.49    7.93
   9  -9  -1  270.08    7.44
  -9  -9   1  260.36    7.94
   9   9   0   41.49    2.81
   9  -9   0   47.14    2.91
  -9  -9   0   42.76    2.88
   9   9   1   70.03    3.58
   9  -9   1   78.01    3.84
  -9  -9  -1   71.05    3.63
   9   9   2   13.47    1.58
   9  -9   2   17.29    2.03
  -9  -9  -2   12.68    1.72
   9   9   3   44.99    2.68
   9  -9   3   44.34    3.12
  -9  -9  -3   40.01    2.54
  -9  -9  -3   38.32    2.52
   9  -9   4  160.97    6.50
   9   9   4  184.13    5.54
  -9  -9  -4  182.62    5.50
   9  -9   5   56.05    3.82
   9   9   5   55.86    2.78
  -9  -9  -5   60.12    2.88
   9   9   6  686.97   13.06
  -9  -9  -6  695.38   13.27
   9  -9   6  699.64   16.17
   9   9   7  126.90    3.93
  -9  -9  -7  129.33    4.17
   9  -9   7  119.99    5.90
  -9  -9  -8   17.22    1.47
   9  -9   8   22.12    2.73
   9   9   8   18.39    1.28
  -9  -9  -9   10.11    1.12
   9   9   9    9.34    0.87
   9  -9   9    9.53    2.11
  -9  -9 -10    6.47    0.97
   9  -9  10    4.39    1.76
   9  -9  11    3.65    1.67
   9  -9  12    3.02    1.95
   9  -9  13   77.26    5.30
   9  -9  14   62.96    4.90
   9  -9  15   -0.93    1.99
   9  -9  16    4.92    1.93
  -9 -11  13  474.36   14.84
  -9 -11  12   -0.65    1.69
  -9 -11  11  201.05    8.81
  -9 -11  10   -2.35    1.81
  -9 -11   9   77.22    5.15
  -9 -11   8    3.81    1.74
  -9 -11   7   52.09    4.09
  -9 -11   6   14.96    2.41
  -9 -11   5  126.24    6.05
   9 -11  -5  127.49    4.36
  -9 -11   4   24.98    2.77
   9 -11  -4   26.79    2.05
   9 -11  -3  633.47   13.33
  -9 -11   3  658.41   15.32
   9 -11  -2  416.48   10.90
   9 -11  -2  426.96   10.21
  -9 -11   2  419.39   11.36
   9 -11  -1   81.96    4.39
   9 -11  -1   77.17    3.83
  -9 -11   1   71.10    4.11
  -9 -11   0   21.55    2.36
   9 -11   0   23.37    2.61
   9 -11   0   27.79    2.49
   9  11   1  589.67   13.53
   9 -11   1  599.11   14.43
   9 -11   1  624.38   13.95
  -9 -11  -1  591.89   13.56
   9 -11   2  674.55   16.02
   9  11   2  702.54   14.88
  -9 -11  -2  694.30   14.87
   9 -11   3  247.96    8.53
   9  11   3  242.33    7.25
  -9 -11  -3  247.31    7.10
  -9 -11  -3  231.29    7.10
   9 -11   4   72.80    4.62
   9  11   4   66.88    3.45
  -9 -11  -4   68.62    3.33
  -9 -11  -4   65.61    3.42
   9 -11   5  111.64    5.81
   9  11   5  105.11    4.21
  -9 -11  -5  114.79    4.17
   9  11   6    0.20    0.75
   9 -11   6    0.70    1.50
  -9 -11  -6    0.91    0.77
  -9 -11  -7  145.40    4.36
   9 -11   7  140.68    6.81
   9  11   7  139.11    4.43
  -9 -11  -8  105.61    3.41
   9 -11   8  104.17    5.96
   9 -11   9   92.85    5.77
   9 -11  10   50.73    4.37
   9 -11  11  107.97    6.38
   9 -11  12   -0.18    1.60
   9 -11  13   41.81    4.26
  -9 -13  11  183.85    8.87
  -9 -13  10   -0.71    1.54
  -9 -13   9    6.80    2.39
   9 -13  -8    8.14    1.41
  -9 -13   8    4.14    1.86
   9 -13  -7   70.87    3.78
  -9 -13   7   73.73    5.13
   9 -13  -6   38.21    2.93
  -9 -13   6   42.56    3.98
   9 -13  -5   75.13    4.21
  -9 -13   5   68.58    4.77
   9 -13  -4    6.81    1.68
  -9 -13   4    6.21    1.94
   9 -13  -3    6.76    1.75
  -9 -13   3    6.34    1.83
   9 -13  -2  460.09   12.29
   9 -13  -2  461.37   11.17
  -9 -13   2  461.48   12.74
   9 -13  -1   17.29    2.46
  -9 -13   1   14.16    2.21
   9 -13  -1   18.32    2.07
   9 -13   0   62.59    4.25
  -9 -13   0   51.61    3.76
   9 -13   1    0.08    1.46
  -9 -13  -1    0.02    1.27
   9 -13   2  152.00    6.89
  -9 -13  -2  146.63    5.97
   9  13   3   71.99    4.00
   9 -13   3   66.53    4.66
  -9 -13  -3   65.58    3.80
   9 -13   4    0.59    1.54
   9  13   4    1.29    0.99
  -9 -13  -4    2.35    1.06
  -9 -13  -4    0.52    1.01
   9 -13   5   14.81    2.62
  -9 -13  -5   12.39    1.46
  -9 -13  -5   14.31    1.79
   9 -13   6   10.86    2.30
   9 -13   7   81.40    5.53
   9 -13   8  102.46    6.36
   9 -13   9   81.13    5.69
   9 -13  10   20.30    3.04
  -9 -15   7  153.37    7.95
  -9 -15   6   82.93    5.78
   9 -15  -5  174.83    6.87
  -9 -15   5  188.28    8.55
   9 -15  -4   12.84    2.08
  -9 -15   4   16.66    2.78
   9 -15  -3   68.54    4.49
  -9 -15   3   67.89    4.90
   9 -15  -2    1.09    1.32
  -9 -15   2    2.44    1.55
   9 -15  -1    5.92    1.96
  -9 -15   1    5.73    1.97
   9 -15   0   17.82    2.60
  -9 -15   0   19.28    2.67
   9 -15   1  115.81    6.22
  -9 -15  -1  115.59    5.77
   9 -15   2   -0.76    1.60
  -9 -15  -2    3.25    1.47
   9 -15   3   43.35    4.05
  -9 -15  -3   50.09    3.56
   9 -15   4   31.81    3.55
  -9 -15  -4   41.09    3.13
   9 -15   5   15.94    2.82
   9 -15   6  179.65    8.55
   9 -15   7  110.29    6.78
  -9 -17   4   86.21    5.90
   9 -17  -3    1.03    1.36
  -9 -17   3    3.20    1.87
   9 -17  -2   14.60    2.47
  -9 -17   2   11.03    2.45
   9 -17  -1   14.68    2.46
  -9 -17   1   11.07    2.23
   9 -17   0   -2.06    1.69
  -9 -17   0    0.30    1.50
   9 -17   1   37.21    3.79
  -9 -17  -1   35.06    3.41
   9 -17   2   -3.40    1.76
   9 -17   3    8.50    2.28
 -10   0  19    0.41    1.77
 -10   0  18  853.65   20.95
 -10   0  17    0.62    1.70
 -10   0  16   26.62    3.07
 -10   0  15    1.38    1.44
 -10   0  14  320.43   10.07
 -10   0  13    1.40    1.35
  10   0 -13    0.53    0.89
 -10   0  12 1596.23   29.08
  10   0 -12 1589.68   28.48
  10   0 -11   -0.10    0.84
  10   0 -10 1202.48   22.30
  10   0  -9    0.94    0.95
  10   0  -8 3744.33   58.73
  10   0  -7    1.18    0.94
  10   0  -6   94.78    3.94
  10   0  -5    0.26    0.88
  10   0  -4 2502.25   40.04
 -10   0   3    1.28    1.26
  10   0  -3   -0.15    0.95
 -10   0   2   28.21    2.17
 -10   0   1    0.52    1.19
  10   0   0 3945.43   59.98
 -10   0   0 3856.86   59.89
 -10   0  -1    0.98    1.18
  10   0   1    2.22    1.13
 -10   0  -2 5020.99   75.99
  10   0   2 5000.19   76.01
 -10   0  -3   -0.12    1.13
  10   0   3    0.58    0.97
  10   0   4  471.05    8.60
 -10   0  -4  474.33   10.47
  10   0   4  484.73   10.55
  10   0   5    0.79    0.68
 -10   0  -5   -1.00    1.21
  10   0   5    1.32    0.98
  10   0   6   16.97    1.44
 -10   0  -6   18.85    2.00
  10   0   6   19.25    1.91
  10   0   7   -0.13    0.72
 -10   0  -7    1.86    1.25
  10   0   7    0.04    0.88
 -10   0  -8 2256.02   38.19
  10   0   8 2369.87   38.41
  10   0   8 2306.31   37.15
 -10   0  -9    1.72    1.28
  10   0   9    0.78    1.07
  10   0   9   -0.76    0.91
  10   0  10  444.90   10.86
 -10   0 -10  414.01   10.58
  10   0  10  413.19   10.18
  10   0  11    2.25    1.17
  10   0  11    0.73    1.20
  10   0  12   48.08    3.31
  10   0  12   49.73    3.04
  10   0  13   -0.19    0.93
  10   0  13   -1.43    1.24
  10   0  14   23.75    2.60
  10   0  14   24.45    2.30
  10   0  15   -2.07    1.59
  10   0  15    0.51    1.14
  10   0  16  170.76    7.47
  10   0  16  170.07    6.21
  10   0  17   -1.44    1.41
  10   0  18   57.54    4.57
  10   0  19   -0.93    1.29
 -10  -2  19   28.01    3.23
 -10   2  18    3.99    1.76
 -10  -2  18    2.00    1.59
 -10  -2  18    1.77    1.44
 -10  -2  17    2.64    1.94
 -10  -2  17    0.41    1.28
 -10  -2  16   71.84    4.88
 -10  -2  16   72.11    4.62
 -10  -2  15    5.80    2.07
 -10  -2  15    2.11    1.45
 -10  -2  14   45.03    3.58
  10  -2 -14   40.55    2.82
 -10  -2  14   50.35    3.72
 -10  -2  13    7.08    1.85
  10  -2 -13    8.13    1.41
 -10  -2  13    8.35    1.84
 -10  -2  12  301.72    8.94
  10  -2 -12  281.82    8.02
 -10  -2  12  296.59    8.98
 -10  -2  11   18.35    2.14
  10   2 -11   25.43    2.47
  10  -2 -11   17.82    1.88
 -10  -2  11   18.44    2.16
 -10  -2  10  682.27   14.53
  10   2 -10  696.81   15.08
  10  -2 -10  689.55   14.26
 -10  -2  10  702.92   15.16
 -10  -2   9   33.56    2.39
  10   2  -9   32.96    2.60
  10  -2  -9   36.08    2.45
 -10  -2   9   36.14    2.77
 -10  -2   8   40.37    2.48
  10   2  -8   41.93    2.87
  10  -2  -8   37.97    2.50
 -10  -2   8   35.90    2.73
 -10  -2   7  213.34    5.78
  10   2  -7  216.68    6.62
  10  -2  -7  212.65    6.18
 -10  -2   7  203.99    6.58
 -10   2   7  213.24    6.23
 -10  -2   6  957.97   16.80
  10   2  -6  986.14   18.50
 -10  -2   6  958.16   18.42
 -10   2   6  978.98   17.79
  10  -2  -6  955.64   17.78
 -10  -2   5    0.58    0.61
  10   2  -5    0.19    0.85
  10  -2  -5    1.88    0.98
 -10  -2   5   -0.47    1.20
 -10   2   5    1.44    0.98
 -10  -2   4   28.79    1.51
 -10   2   4   29.72    2.16
  10   2  -4   26.33    2.13
 -10   2   3  344.71    8.15
  10   2  -3  343.62    8.37
 -10   2   2  252.24    6.67
  10   2  -2  261.32    6.86
 -10   2   1  252.37    6.64
 -10  -2   1  255.20    6.77
  10   2  -1  253.47    6.66
  10  -2  -1  242.17    6.54
 -10   2   0 1317.82   23.03
  10   2   0 1365.37   22.98
  10  -2   0 1305.74   23.03
 -10  -2   0 1366.88   23.18
 -10   2  -1    1.16    1.10
 -10  -2  -1    1.38    1.23
  10   2   1    1.99    1.00
  10  -2   1    2.30    1.15
 -10   2  -2 5494.06   82.04
 -10   2  -2 5677.77   84.62
 -10  -2  -2 5606.23   84.31
  10  -2   2 5732.02   84.64
 -10   2  -3  227.03    5.07
 -10   2  -3  238.34    6.62
 -10  -2  -3  223.12    6.24
  10  -2   3  235.72    6.63
  10   2   3  231.69    6.33
 -10   2  -4   12.02    1.13
 -10  -2  -4   11.63    1.55
 -10   2  -4    8.69    1.50
  10  -2   4   12.59    1.66
  10   2   4   13.41    1.59
 -10  -2  -5    1.98    1.04
 -10   2  -5    1.83    1.17
  10   2   5    1.73    0.97
  10  -2   5    0.83    0.97
  10  -2   6  419.01   10.06
 -10  -2  -6  401.44    9.43
 -10   2  -6  391.75    9.84
  10   2   6  410.35    9.40
  10  -2   7    4.18    1.25
 -10  -2  -7    2.22    1.07
 -10   2  -7    4.80    1.41
  10   2   7    2.43    1.05
  10  -2   8 1145.00   20.83
  10   2   8 1176.71   21.15
 -10  -2  -8 1131.31   20.97
  10  -2   8 1231.03   22.30
 -10   2  -8 1124.47   21.79
  10  -2   9    7.40    1.45
 -10  -2  -9   11.67    1.69
  10  -2   9   11.01    1.75
 -10   2  -9   11.34    1.81
  10   2   9   12.64    1.64
  10  -2  10  687.06   14.61
 -10  -2 -10  664.98   14.36
  10   2  10  713.84   14.60
  10  -2  11    0.19    1.00
  10  -2  11    0.61    1.06
  10   2  11    0.02    0.91
  10  -2  12   21.67    2.29
  10   2  12   17.15    1.69
  10   2  12   21.18    2.39
  10  -2  12   18.24    2.15
  10   2  12   17.03    2.01
  10  -2  13    8.71    1.85
  10   2  13    8.69    1.26
  10   2  13    7.95    1.69
  10  -2  13    8.66    1.71
  10   2  13    7.13    1.51
  10  -2  14   86.89    4.62
  10   2  14   86.02    4.89
  10   2  14   99.81    3.98
  10  -2  14   93.23    5.16
  10   2  15   17.24    2.54
  10   2  15   16.71    1.67
  10  -2  15   16.30    2.23
  10  -2  15   15.42    2.32
  10   2  16  250.08    9.29
  10  -2  16  259.53    9.51
  10  -2  16  259.21    8.50
  10  -2  17    9.42    2.03
  10  -2  17   12.29    2.03
  10   2  17   14.81    2.39
  10  -2  18   34.20    3.62
  10   2  18   29.86    3.38
 -10  -4  20  154.42    7.65
 -10  -4  19   -0.90    1.45
 -10  -4  18  160.50    7.99
 -10  -4  18  168.10    7.68
 -10  -4  17   59.83    4.65
 -10  -4  17   52.33    4.28
 -10  -4  16  168.65    7.65
 -10  -4  16  154.37    7.14
 -10  -4  15   49.56    3.98
 -10  -4  15   50.58    4.04
 -10  -4  14  852.87   19.11
 -10  -4  14  835.40   19.03
 -10  -4  13   46.49    3.61
  10  -4 -13   41.16    2.68
 -10  -4  13   39.89    3.46
 -10   4  13   48.69    3.04
 -10  -4  12  272.44    8.69
  10  -4 -12  279.34    7.65
 -10   4  12  292.61    7.91
 -10  -4  12  278.59    9.06
 -10  -4  11    0.81    1.16
 -10  -4  11    0.20    1.41
  10  -4 -11   -0.08    0.77
 -10   4  11   -0.25    0.92
 -10  -4  10  336.49    9.05
 -10  -4  10  335.02    9.63
 -10   4  10  340.90    8.38
  10  -4 -10  317.39    8.24
 -10  -4   9   69.27    3.96
  10  -4  -9   71.11    3.33
 -10   4   9   69.77    3.30
  10   4  -8  214.72    7.02
  10  -4  -8  201.90    6.04
 -10  -4   8  198.35    6.85
 -10   4   8  215.12    6.07
  10   4  -7   52.03    3.22
 -10  -4   7   50.39    3.29
 -10   4   7   49.25    2.68
  10  -4  -7   47.13    2.71
  10   4  -6  885.94   17.49
 -10  -4   6  858.50   17.29
 -10   4   6  852.52   15.97
  10   4  -5    0.89    1.02
 -10  -4   5    0.91    1.15
 -10   4   5   -0.15    0.89
  10   4  -4 2158.04   34.89
  10   4  -4 2036.64   32.52
 -10   4   4 2100.43   33.69
 -10  -4   4 2064.67   34.74
  10   4  -3    3.49    0.76
  10   4  -3    5.26    1.38
 -10   4   3    2.96    1.13
  10  -4  -3    4.69    1.10
 -10  -4   3    3.76    1.26
  10   4  -2  375.19    8.91
  10   4  -2  349.58    6.94
 -10   4   2  371.83    8.52
 -10  -4   2  358.98    8.84
  10  -4  -2  364.00    8.48
 -10   4   1  705.48   13.72
  10  -4  -1  685.35   13.66
  10   4  -1  704.24   13.91
 -10   4   0 6285.91   95.20
 -10  -4   0 6352.55   95.30
  10  -4   0 6352.44   95.32
  10   4   0 6362.55   95.16
  10   4   1   20.71    1.81
 -10   4  -1   19.99    1.94
 -10  -4  -1   20.29    1.94
  10  -4   1   22.45    2.09
  10  -4   2 2411.52   38.95
 -10   4  -2 2369.24   38.78
 -10  -4  -2 2402.44   38.39
  10   4   2 2387.48   38.16
  10  -4   3   75.31    3.61
 -10   4  -3   68.71    3.49
  10   4   3   66.90    3.02
 -10  -4  -3   69.97    3.23
 -10   4  -4 1023.29   18.42
  10  -4   4 1111.58   20.17
 -10   4  -4 1089.21   19.97
 -10  -4  -4 1055.06   18.99
  10   4   4 1047.12   18.55
 -10   4  -5    9.09    1.21
  10  -4   5   12.10    1.64
 -10   4  -5   13.48    1.86
  10   4   5    9.95    1.23
 -10  -4  -5    9.67    1.48
 -10   4  -6  714.89   14.01
 -10   4  -6  700.11   15.09
  10  -4   6  747.41   15.52
 -10  -4  -6  711.70   14.00
  10   4   6  717.90   13.98
  10   4   6  710.90   13.40
 -10   4  -7  143.54    5.07
 -10  -4  -7  146.94    4.94
 -10   4  -7  155.72    5.87
  10  -4   7  164.97    6.03
  10   4   7  146.70    4.46
  10   4   7  148.70    4.93
  10  -4   8 1558.28   28.09
 -10  -4  -8 1480.24   25.94
  10   4   8 1535.58   26.07
 -10  -4  -9    9.07    1.45
  10   4   9    9.95    1.42
  10  -4  10  514.70   12.62
 -10  -4 -10  505.22   11.38
  10   4  10  517.62   11.36
  10  -4  11    7.78    1.79
 -10  -4 -11    4.31    1.23
  10   4  11    5.47    1.20
  10  -4  12   54.85    3.75
  10   4  12   58.89    2.61
  10   4  12   54.22    3.19
  10  -4  13    3.19    1.49
  10   4  13    2.60    0.77
  10   4  13    3.23    1.19
  10  -4  14  334.65   10.45
  10   4  14  369.54    7.71
  10   4  14  333.99    9.31
  10  -4  15   12.31    2.10
  10  -4  16  494.02   13.50
  10  -4  17   -0.66    1.58
  10   4  17    0.86    1.62
  10   4  18  164.77    7.88
  10  -4  18  148.63    7.01
 -10  -6  18  144.60    7.56
 -10  -6  17   23.58    3.31
 -10  -6  16  217.70    9.01
 -10  -6  15    3.19    1.66
 -10   6  14  400.48    9.31
 -10  -6  14  386.30   12.05
 -10  -6  13   -1.24    1.62
 -10   6  13    0.69    0.98
  10  -6 -12  415.76    9.80
 -10  -6  12  423.06   12.31
 -10   6  12  445.98    9.77
 -10  -6  11    5.88    1.95
  10  -6 -11    1.59    0.85
 -10   6  11    2.80    1.08
 -10  -6  10   25.79    2.74
 -10   6  10   26.23    1.94
  10  -6 -10   23.72    1.97
 -10   6   9  228.10    6.10
 -10  -6   9  219.81    7.76
  10  -6  -9  209.82    6.21
 -10   6   8  198.00    5.62
 -10  -6   8  190.06    7.06
  10  -6  -8  195.56    5.93
  10   6  -7    1.43    0.96
 -10  -6   7    0.93    1.31
 -10   6   7    1.55    0.91
  10   6  -6  320.15    8.96
  10   6  -6  291.06    7.60
 -10   6   6  305.07    7.35
 -10  -6   6  286.48    8.64
  10   6  -5  389.82   10.09
  10   6  -5  370.15    8.66
 -10   6   5  389.49    8.68
 -10  -6   5  376.42    9.91
  10   6  -4  902.04   17.64
  10   6  -4  839.54   15.68
 -10   6   4  886.43   16.12
  10  -6  -4  853.09   16.04
 -10  -6   4  852.15   17.39
  10   6  -3  227.06    6.82
  10   6  -3  197.66    5.41
 -10   6   3  218.55    6.04
 -10  -6   3  206.76    6.66
  10  -6  -3  204.52    5.93
  10   6  -2  774.22   15.56
 -10   6   2  767.67   14.79
 -10  -6   2  756.78   15.47
  10  -6  -2  754.05   14.78
  10   6  -1    4.14    1.11
 -10   6   1    4.64    1.21
 -10  -6   1    3.39    1.31
  10  -6  -1    3.14    1.00
  10   6   0  188.36    5.85
  10  -6   0  182.41    5.80
 -10   6   0  184.50    5.80
 -10  -6   0  190.03    5.93
  10   6   1    8.31    1.29
 -10   6  -1    6.83    1.34
 -10  -6  -1   10.67    1.54
 -10  -6  -1    7.68    1.49
  10  -6   1    9.09    1.43
  10   6   2 1283.54   22.31
  10  -6   2 1285.79   23.20
 -10   6  -2 1270.69   23.06
 -10  -6  -2 1265.21   22.45
  10   6   3  330.48    7.92
 -10   6  -3  329.48    8.80
  10  -6   3  333.32    8.90
 -10  -6  -3  324.88    8.04
  10   6   4  112.42    3.97
 -10   6  -4  108.26    4.74
  10  -6   4  121.66    5.02
 -10  -6  -4  107.25    4.09
  10   6   5  149.97    4.62
 -10   6  -5  143.85    5.10
 -10   6  -5  141.58    5.64
 -10  -6  -5  145.35    4.79
  10  -6   5  151.04    5.79
 -10   6  -6  600.40   13.00
 -10  -6  -6  588.10   12.12
  10  -6   6  629.11   14.10
  10   6   6  593.98   11.61
 -10   6  -7  322.93    8.71
 -10  -6  -7  307.67    7.71
  10   6   7  315.42    7.16
  10  -6   8  575.41   13.89
 -10   6  -8  595.98   13.38
 -10  -6  -8  576.78   12.01
  10   6   8  592.64   11.19
  10  -6   9  188.00    7.07
 -10  -6  -9  182.20    5.56
  10   6   9  180.79    4.73
  10  -6  10   18.66    2.61
 -10  -6 -10   16.43    1.65
  10   6  10   18.57    1.34
  10  -6  11   81.43    4.78
 -10  -6 -11   87.69    3.72
  10   6  11   87.71    3.72
  10   6  11   89.36    2.81
  10  -6  12   50.50    3.92
  10   6  12   54.65    1.96
  10   6  12   52.10    2.88
  10  -6  13    0.58    1.32
  10  -6  14   98.63    5.62
  10  -6  15   16.92    2.81
  10  -6  16  201.86    8.59
  10  -6  17   42.80    4.01
  10  -6  18   65.01    4.92
  10  -6  19   15.47    2.64
 -10  -8  16  213.21    9.40
 -10  -8  15   19.75    3.00
 -10  -8  14  292.35   10.78
 -10  -8  13    6.16    1.96
 -10   8  12  211.27    5.37
 -10  -8  12  192.85    8.23
 -10  -8  11   35.07    3.57
 -10   8  11   35.95    2.00
  10  -8 -11   31.94    2.20
 -10   8  10  351.87    7.65
 -10  -8  10  322.74   10.60
  10  -8 -10  328.59    8.30
 -10   8   9   64.01    2.81
 -10  -8   9   67.07    4.47
  10  -8  -9   59.25    3.13
  10   8  -8  276.00    8.33
 -10   8   8  288.76    6.88
 -10  -8   8  275.29    9.27
  10   8  -7  249.70    7.65
 -10   8   7  266.80    6.63
 -10  -8   7  258.12    8.64
  10   8  -6 1546.23   27.33
 -10   8   6 1572.61   25.86
 -10  -8   6 1489.99   28.60
  10   8  -5   85.92    3.93
 -10   8   5   88.01    3.55
 -10  -8   5   82.57    4.49
  10   8  -4 1667.96   28.56
 -10   8   4 1687.47   27.99
 -10  -8   4 1679.41   30.08
  10  -8  -4 1640.89   27.96
  10   8  -3   65.27    3.72
 -10   8   3   66.20    3.23
 -10  -8   3   66.40    3.78
  10  -8  -3   61.74    3.10
  10   8  -2 1154.67   21.57
 -10   8   2 1126.21   20.32
  10  -8  -2 1097.10   20.32
 -10  -8   2 1091.89   21.24
  10   8  -1   60.36    3.45
  10  -8  -1   57.63    3.17
 -10   8   1   57.84    3.17
 -10  -8   1   62.83    3.52
  10   8   0  562.59   12.47
 -10   8   0  545.29   12.18
  10  -8   0  565.34   12.39
 -10  -8   0  547.68   12.37
  10   8   1   23.74    2.11
  10  -8   1   22.56    2.20
 -10   8  -1   22.63    2.19
 -10  -8  -1   24.00    2.23
  10   8   2  945.59   17.93
 -10   8  -2  926.70   18.59
  10  -8   2  981.41   18.94
 -10  -8  -2  943.36   17.95
 -10  -8  -2  942.15   18.03
  10   8   3  153.92    5.15
  10  -8   3  165.59    6.11
 -10  -8  -3  158.82    5.28
  10   8   4 1174.56   20.99
  10  -8   4 1251.61   23.30
 -10  -8  -4 1176.11   21.20
  10   8   5  186.26    5.43
 -10  -8  -5  179.94    5.57
  10   8   6 1778.87   29.54
 -10  -8  -6 1835.65   30.06
  10  -8   6 1823.64   32.91
 -10   8  -6 1840.50   32.08
  10   8   7   91.27    3.38
 -10  -8  -7   90.90    3.64
  10  -8   7   98.98    5.16
  10   8   8  778.54   13.86
 -10  -8  -8  763.53   14.60
  10  -8   8  760.95   17.61
  10   8   9  173.73    4.44
 -10  -8  -9  174.39    5.15
  10  -8   9  176.26    7.34
  10   8  10  291.01    5.91
 -10  -8 -10  294.27    7.15
  10  -8  10  282.05    9.82
 -10  -8 -11  296.70    7.13
  10  -8  11  283.31    9.99
  10  -8  12  305.55   10.59
  10  -8  13   28.12    3.37
  10  -8  14  211.25    8.87
  10  -8  15   13.03    2.52
  10  -8  16  144.28    7.53
  10  -8  17   69.36    5.26
 -10 -10  14   55.81    4.83
 -10 -10  13    2.32    1.67
 -10 -10  12   10.90    2.56
 -10 -10  11    8.47    2.22
 -10 -10  10  121.23    6.53
 -10  10   9   55.98    2.34
 -10 -10   9   54.61    4.38
 -10  10   8  257.75    6.12
 -10 -10   8  235.10    8.93
 -10 -10   7   17.87    2.64
 -10  10   7   18.95    1.68
 -10  10   6  194.67    5.51
 -10 -10   6  188.04    7.52
 -10 -10   5   25.40    2.82
  10  10  -5   27.92    2.48
 -10  10   5   29.51    2.12
  10 -10  -5   28.68    2.11
 -10  10   4  828.42   15.73
 -10 -10   4  809.14   17.90
  10 -10  -4  790.72   15.64
 -10 -10   3  366.28   10.41
  10 -10  -3  359.94    8.97
  10 -10  -2   44.63    2.83
 -10 -10   2   44.08    3.32
  10 -10  -1  256.31    7.53
 -10 -10   1  255.32    8.05
  10  10   0   96.82    4.57
  10 -10   0  103.72    4.61
 -10 -10   0   99.12    4.66
  10  10   1   73.18    3.81
  10 -10   1   77.51    4.11
 -10 -10  -1   74.80    3.96
  10  10   2   24.90    2.23
  10 -10   2   23.89    2.42
 -10 -10  -2   24.22    2.33
  10 -10   3    2.18    1.35
  10  10   3    2.07    1.02
 -10 -10  -3    2.66    1.27
 -10 -10  -3    0.18    1.03
  10 -10   4  731.07   16.82
  10  10   4  704.60   14.50
 -10 -10  -4  729.53   14.59
  10 -10   5    1.25    1.43
  10  10   5    0.63    0.79
 -10 -10  -5    1.61    0.92
  10  10   6  493.23   10.63
 -10 -10  -6  504.77   10.74
  10 -10   6  499.49   13.50
  10  10   7  210.70    5.72
 -10 -10  -7  215.55    5.92
  10 -10   7  200.71    8.14
  10  10   8  178.71    4.92
 -10 -10  -8  193.61    5.36
  10 -10   8  191.33    7.98
 -10 -10  -9   34.01    1.99
  10 -10   9   25.36    3.02
  10 -10  10  148.83    7.31
  10 -10  11   31.33    3.45
  10 -10  12  227.05    9.45
  10 -10  13   84.85    5.76
  10 -10  14  121.11    7.02
 -10 -12  12  137.91    7.65
 -10 -12  11  125.30    7.15
 -10 -12  10  322.73   11.66
  10 -12  -9   12.80    1.70
 -10 -12   9   16.10    2.89
  10 -12  -8  446.76   10.80
 -10 -12   8  433.09   13.44
  10 -12  -7   76.30    3.98
 -10 -12   7   77.53    5.19
  10 -12  -6  428.85   10.95
 -10 -12   6  422.91   12.85
  10 -12  -5    5.37    1.46
 -10 -12   5    3.70    1.70
  10 -12  -4  478.86   12.10
 -10 -12   4  469.02   13.16
  10 -12  -4  470.90   10.82
  10 -12  -3  157.36    6.29
  10 -12  -3  153.34    5.55
 -10 -12   3  154.05    6.79
  10 -12  -2  800.65   17.78
  10 -12  -2  811.45   16.76
 -10 -12   2  836.94   18.40
  10 -12  -1   73.44    4.42
  10 -12  -1   74.95    4.00
 -10 -12   1   77.98    4.55
  10 -12   0  215.56    7.92
  10 -12   0  216.05    7.35
 -10 -12   0  219.60    7.66
  10 -12   1  286.77    9.45
 -10 -12  -1  286.38    8.81
  10 -12   2  727.31   17.31
 -10 -12  -2  742.84   16.08
  10 -12   3  616.62   15.79
  10  12   3  614.68   14.00
 -10 -12  -3  649.51   13.85
 -10 -12  -3  636.30   14.17
  10 -12   4  666.99   16.75
  10  12   4  654.95   14.34
 -10 -12  -4  678.50   14.54
 -10 -12  -4  672.29   14.04
  10 -12   5    2.96    1.68
  10  12   5    2.15    1.07
 -10 -12  -5    4.12    1.14
 -10 -12  -6  743.32   14.42
  10 -12   6  720.05   18.22
  10 -12   7    2.52    1.80
  10 -12   8  268.88   10.29
  10 -12   9   57.54    4.72
  10 -12  10  403.51   13.33
  10 -12  11    0.04    1.65
 -10 -14   9  144.92    7.81
 -10 -14   8  126.66    7.15
 -10 -14   7   27.84    3.49
  10 -14  -6   92.45    4.77
 -10 -14   6   97.49    6.09
  10 -14  -5   15.85    2.27
 -10 -14   5   11.21    2.45
  10 -14  -4  181.50    7.21
 -10 -14   4  195.63    8.30
  10 -14  -3  160.28    6.79
 -10 -14   3  148.31    7.08
  10 -14  -2  444.34   12.53
 -10 -14   2  446.09   12.91
  10 -14  -1  109.42    5.86
 -10 -14   1  112.51    5.82
  10 -14   0  381.81   11.70
 -10 -14   0  363.80   11.06
  10 -14   1  107.68    6.00
 -10 -14  -1  115.41    5.64
  10 -14   2  302.45   10.52
 -10 -14  -2  301.24    9.41
  10 -14   3   63.08    4.69
 -10 -14  -3   64.38    3.69
 -10 -14  -3   55.34    3.69
  10 -14   4  343.41   11.79
 -10 -14  -4  365.43   10.06
  10 -14   5  109.13    6.37
  10 -14   6  103.21    6.25
  10 -14   7    1.46    1.75
  10 -14   8   71.63    5.57
 -10 -16   5   21.90    3.18
  10 -16  -4  105.47    5.64
 -10 -16   4  104.48    6.40
  10 -16  -3    8.66    2.09
 -10 -16   3   10.34    2.50
  10 -16  -2  230.89    8.95
 -10 -16   2  233.75    9.30
  10 -16  -1    7.36    1.97
 -10 -16   1    6.16    2.00
  10 -16   0  147.49    7.26
 -10 -16   0  158.98    7.26
  10 -16   1    2.20    1.68
 -10 -16  -1    1.85    1.43
  10 -16   2  128.77    6.94
 -10 -16  -2  129.32    6.23
  10 -16   3   42.57    4.14
  10 -16   4  172.16    8.37
  10 -18  -1   -1.48    1.66
 -10 -18   1    0.82    1.58
 -11   1  18    0.71    1.72
 -11  -1  18   -2.29    1.98
 -11   1  17  320.21   11.18
 -11  -1  17  313.21   11.00
 -11   1  16   37.92    3.69
 -11  -1  16   31.60    3.40
 -11  -1  15   29.21    3.16
 -11   1  15   22.31    2.84
 -11  -1  14    1.64    1.47
 -11  -1  13   17.19    2.30
  11  -1 -13   19.90    2.10
 -11  -1  12    0.18    1.13
  11  -1 -12   -1.28    1.08
 -11  -1  11    1.49    1.12
  11  -1 -11    1.75    0.95
  11   1 -11    2.77    1.26
 -11  -1  10    1.99    1.08
  11  -1 -10    2.33    1.12
  11   1 -10    3.04    1.27
 -11  -1   9  313.99    8.25
  11  -1  -9  332.80    8.78
  11   1  -9  338.18    9.10
 -11  -1   8  122.51    4.41
  11   1  -8  134.83    5.17
  11  -1  -8  127.30    4.88
 -11  -1   7  135.21    4.36
  11   1  -7  135.99    5.16
  11  -1  -7  136.84    5.02
 -11  -1   6   40.65    2.12
 -11   1   6   46.97    2.85
  11  -1  -6   38.47    2.56
  11   1  -6   43.36    2.79
 -11  -1   5  253.99    5.76
 -11   1   5  264.27    7.17
  11   1  -5  265.33    7.37
  11  -1  -5  262.55    7.20
 -11  -1   4   76.46    2.44
  11   1  -4   78.65    3.63
  11  -1  -4   81.64    3.65
 -11   1   4   80.82    3.63
 -11  -1   3 1344.07   20.82
  11   1  -3 1385.24   23.89
 -11  -1   3 1358.64   23.85
 -11   1   3 1368.34   23.67
 -11   1   2   14.73    1.77
  11   1  -2   16.47    1.71
 -11  -1   2   14.47    1.83
  11   1  -1  238.28    6.62
 -11  -1   1  233.07    6.65
 -11   1   1  231.17    6.55
 -11   1   0   65.25    3.29
 -11  -1   0   62.48    3.24
  11  -1   0   65.78    3.23
 -11   1  -1  386.95    6.61
 -11   1  -1  412.72    9.46
  11  -1   1  419.56    9.50
 -11  -1  -1  425.98    9.52
 -11   1  -2   15.09    1.82
  11  -1   2   14.77    1.71
  11   1   2   13.95    1.59
 -11  -1  -2   15.20    1.73
  11   1   3 1422.19   21.74
 -11  -1  -3 1441.42   24.81
 -11   1  -3 1414.43   25.02
  11  -1   3 1446.36   25.12
  11   1   3 1457.85   24.94
  11   1   4    0.11    0.52
 -11   1  -4    2.86    1.31
 -11  -1  -4    2.63    1.36
  11   1   4    1.15    0.96
  11  -1   4    0.52    0.96
  11   1   5 1464.10   23.55
  11  -1   5 1525.30   26.20
 -11  -1  -5 1434.86   25.70
 -11   1  -5 1476.57   26.07
  11   1   5 1521.75   25.91
  11   1   6    1.15    0.76
 -11   1  -6   -0.05    1.10
 -11  -1  -6    1.76    1.12
  11  -1   6    2.33    1.18
  11   1   6    1.38    0.91
  11  -1   7  191.88    5.46
  11   1   7  195.65    5.36
  11   1   7  204.47    6.38
 -11   1  -7  189.92    6.46
  11  -1   7  207.12    6.65
 -11  -1  -7  198.47    6.33
  11   1   8   26.25    2.00
  11  -1   8   25.05    2.01
 -11  -1  -8   23.25    2.23
 -11   1  -8   22.77    2.33
  11  -1   8   26.86    2.46
  11   1   8   25.39    2.26
  11  -1   9   44.39    3.09
 -11  -1  -9   48.02    3.18
  11   1   9   52.10    3.19
 -11   1  -9   47.15    3.19
  11  -1   9   46.92    2.84
  11   1   9   47.19    2.80
  11   1  10   60.95    3.51
 -11  -1 -10   52.79    3.34
 -11   1 -10   51.44    3.49
  11  -1  10   54.05    3.22
  11   1  10   54.36    3.17
  11   1  11  533.98   12.54
  11  -1  11  521.97   12.30
  11   1  11  506.30   12.14
  11  -1  12    1.92    1.33
  11  -1  12    1.64    1.29
  11   1  12    0.61    1.16
  11  -1  13  634.65   14.89
  11   1  13  627.23   14.80
  11  -1  13  618.82   14.14
  11   1  13  631.73   13.49
  11   1  14   13.11    1.74
  11  -1  14   11.86    2.16
  11   1  14    7.90    1.90
  11  -1  14   10.93    1.82
  11  -1  15   93.92    5.36
  11   1  15   89.01    4.16
  11  -1  15   88.20    4.62
  11   1  15   86.45    5.13
  11   1  16    6.13    1.87
  11  -1  16    6.57    1.85
  11   1  16    4.77    1.23
  11  -1  16    4.39    1.43
  11  -1  17   68.64    4.86
  11   1  17   69.16    4.90
  11  -1  17   80.43    4.42
  11   1  18   25.37    3.19
  11  -1  18   22.37    2.99
 -11  -3  19    8.77    2.21
 -11  -3  18    3.53    1.78
 -11  -3  18    0.07    1.55
 -11  -3  17    0.25    1.61
 -11  -3  17    0.51    1.54
 -11  -3  16   22.73    3.06
 -11  -3  16   20.50    2.74
 -11  -3  15  260.38    9.29
 -11  -3  15  254.78    9.10
 -11  -3  14    8.30    1.92
  11  -3 -14    8.85    1.65
 -11  -3  14    8.50    1.98
 -11  -3  13  236.72    8.19
  11  -3 -13  246.16    7.48
 -11  -3  13  245.75    8.56
 -11  -3  12  309.82    9.21
  11  -3 -12  309.25    8.54
 -11  -3  12  292.90    9.38
 -11  -3  11  250.07    7.77
  11  -3 -11  248.79    7.34
 -11  -3  11  242.60    8.20
 -11  -3  10   68.65    3.66
 -11   3  10   64.72    3.44
  11  -3 -10   66.87    3.49
 -11  -3  10   72.24    4.17
 -11  -3   9   93.24    4.13
  11   3  -9   97.64    4.68
 -11   3   9   98.60    4.21
 -11  -3   9   97.78    4.70
  11  -3  -9   99.42    4.22
 -11  -3   8   23.32    1.94
  11  -3  -8   23.20    2.03
  11   3  -8   22.72    2.26
 -11  -3   8   24.61    2.45
 -11   3   8   24.79    2.16
 -11  -3   7   35.89    2.17
  11   3  -7   40.63    2.90
 -11   3   7   36.85    2.55
 -11  -3   7   33.93    2.77
  11  -3  -7   36.84    2.53
  11   3  -6    5.67    1.43
 -11   3   6    3.88    1.18
 -11  -3   6    3.88    1.42
  11  -3  -6    5.21    1.19
  11   3  -5  848.76   16.73
 -11   3   5  811.63   15.79
 -11  -3   5  825.07   16.66
  11   3  -4   55.35    3.15
 -11   3   4   57.07    3.01
 -11   3   3  343.03    8.32
  11   3  -3  335.12    8.62
  11   3  -2   25.19    2.12
  11  -3  -2   26.57    2.09
 -11   3   2   23.98    2.11
  11   3  -1  200.87    3.85
 -11   3   1  210.47    6.13
 -11  -3   1  213.84    6.32
  11   3  -1  210.77    6.19
  11  -3  -1  210.68    6.18
  11   3   0   38.83    1.17
 -11   3   0   40.64    2.60
  11   3   0   38.24    2.48
  11  -3   0   44.28    2.68
 -11  -3   0   43.60    2.72
 -11   3  -1   56.94    3.09
  11   3   1   52.79    2.84
  11  -3   1   54.59    3.04
 -11  -3  -1   51.00    2.94
 -11   3  -2    2.85    1.33
 -11  -3  -2    2.55    1.14
  11  -3   2    4.08    1.23
  11   3   2    1.27    0.77
 -11   3  -3   40.24    1.93
 -11   3  -3   42.35    2.82
 -11  -3  -3   43.05    2.64
  11  -3   3   39.50    2.69
  11   3   3   43.85    2.51
 -11   3  -4   41.58    2.08
  11  -3   4   44.54    2.86
 -11   3  -4   39.48    2.79
 -11  -3  -4   41.56    2.63
  11   3   4   47.55    2.72
 -11   3  -5  531.32   10.74
 -11  -3  -5  539.22   11.72
  11  -3   5  584.93   12.67
 -11   3  -5  542.87   12.38
  11   3   5  555.22   11.77
 -11   3  -6  148.62    4.72
  11  -3   6  162.64    5.86
 -11  -3  -6  141.95    5.10
 -11   3  -6  157.56    5.80
  11   3   6  156.83    5.25
 -11  -3  -7   44.51    2.79
 -11   3  -7   46.50    3.25
  11  -3   7   51.06    3.33
  11   3   7   49.94    2.91
 -11  -3  -8    1.44    1.07
  11  -3   8    2.46    1.25
 -11   3  -8    2.61    1.40
  11   3   8    4.81    1.21
 -11  -3  -9   42.08    2.80
  11   3   9   46.97    2.90
 -11  -3 -10  151.22    5.53
  11   3  10  143.97    5.38
  11  -3  11  357.72   10.01
 -11  -3 -11  340.91    9.30
  11   3  11  364.23    9.50
  11  -3  12    9.46    1.85
  11   3  12   12.08    1.74
  11   3  13  438.47   11.27
  11  -3  13  438.87   11.92
  11   3  13  468.46   10.08
  11   3  14  253.19    8.86
  11  -3  14  253.49    8.73
  11   3  14  275.09    7.06
  11   3  15   44.64    3.78
  11  -3  15   50.04    3.74
  11   3  16    0.07    1.49
  11  -3  16    0.54    1.35
  11   3  17  211.85    8.81
  11  -3  17  214.75    8.26
  11   3  18   35.15    3.76
  11  -3  18   30.73    3.24
 -11  -5  19   56.26    4.71
 -11  -5  18   43.44    4.36
 -11  -5  17    0.18    1.64
 -11  -5  16    1.16    1.55
 -11  -5  15   52.24    4.23
 -11   5  15   51.83    3.20
 -11   5  14   43.82    2.88
 -11  -5  14   40.02    3.73
  11  -5 -13   19.29    1.98
 -11  -5  13   21.86    2.91
 -11   5  13   21.26    2.06
  11  -5 -12   -0.09    0.91
 -11   5  12   -0.21    0.98
 -11  -5  12    0.22    1.42
 -11   5  11   47.35    2.87
  11  -5 -11   44.58    2.85
 -11  -5  11   42.84    3.52
 -11  -5  10  127.74    5.81
 -11   5  10  128.26    4.70
  11  -5 -10  115.73    4.61
  11  -5  -9  220.72    6.63
 -11   5   9  228.34    6.55
 -11  -5   9  232.54    7.91
 -11  -5   8  301.85    9.16
  11  -5  -8  301.11    8.11
 -11   5   8  311.78    7.91
 -11   5   7    1.52    1.09
 -11  -5   7    2.30    1.33
  11   5  -6   12.33    1.79
 -11   5   6   12.02    1.52
 -11  -5   6   13.52    2.02
  11   5  -5  464.18   11.07
  11   5  -5  410.59    9.01
 -11   5   5  435.72    9.73
 -11  -5   5  423.44   10.74
  11   5  -4  100.53    4.47
  11   5  -4  100.75    3.44
 -11   5   4  102.32    4.02
 -11  -5   4  103.47    4.62
  11   5  -3  976.96   18.56
  11   5  -3  939.85   16.21
 -11   5   3  954.87   17.65
  11  -5  -3  924.46   17.60
 -11  -5   3  944.69   18.48
  11   5  -2    2.99    1.10
  11   5  -2    2.53    0.70
 -11   5   2    1.42    1.01
  11  -5  -2    0.89    0.85
 -11  -5   2    4.16    1.41
  11   5  -1 1177.37   21.15
 -11   5   1 1136.86   20.69
  11  -5  -1 1123.23   20.73
 -11  -5   1 1140.98   21.02
  11   5   0   46.84    2.82
 -11   5   0   48.48    2.89
 -11  -5   0   41.37    2.84
  11  -5   0   47.17    2.82
  11  -5   1  268.64    7.46
 -11   5  -1  253.96    7.24
  11   5   1  257.42    7.05
 -11  -5  -1  249.14    7.10
  11   5   2   -0.30    0.80
 -11   5  -2   -0.09    1.24
 -11  -5  -2   -0.46    1.11
  11  -5   2    0.58    0.89
 -11   5  -3  134.97    5.24
  11  -5   3  143.33    5.40
 -11  -5  -3  141.95    4.97
  11   5   3  136.21    4.67
  11   5   4    1.77    0.84
 -11   5  -4    2.73    0.92
 -11   5  -4    1.89    1.42
  11  -5   4   -0.02    0.95
 -11  -5  -4    0.06    0.96
 -11   5  -5  580.56   12.17
 -11  -5  -5  577.12   12.25
 -11   5  -5  588.17   13.45
  11  -5   5  619.47   13.67
  11   5   5  586.16   11.86
 -11   5  -6  226.73    6.59
 -11  -5  -6  221.63    6.45
 -11   5  -6  221.07    7.41
  11  -5   6  233.58    7.64
  11   5   6  222.29    6.02
 -11   5  -7  713.12   14.68
 -11   5  -7  725.96   15.96
 -11  -5  -7  712.56   14.34
  11   5   7  708.08   13.54
 -11   5  -8   31.85    2.45
 -11  -5  -8   28.11    2.24
  11   5   8   27.66    1.87
  11   5   8   30.99    2.33
 -11  -5  -9  290.76    7.83
  11   5   9  288.31    6.89
  11   5   9  292.88    7.77
  11  -5  10  243.35    8.37
 -11  -5 -10  256.85    7.31
  11   5  10  261.16    6.35
  11   5  10  254.15    7.24
  11  -5  11  727.24   16.76
 -11  -5 -11  715.92   14.85
  11   5  11  716.55   14.82
  11   5  11  728.54   13.36
  11  -5  12   29.70    3.03
  11   5  12   30.90    2.47
  11   5  12   32.10    1.87
  11  -5  13  188.11    7.70
  11   5  13  202.85    5.11
  11   5  13  193.71    6.48
  11  -5  14  145.25    6.78
  11  -5  15   92.89    5.45
  11  -5  16    2.91    1.44
  11  -5  17   91.95    5.62
  11  -5  18   16.53    2.69
  11   5  18   17.85    2.96
  11  -5  19  186.53    8.47
 -11  -7  17    4.71    2.16
 -11  -7  16   12.18    2.66
 -11  -7  15  216.79    9.12
 -11  -7  14   26.46    3.41
 -11   7  13  126.26    4.46
 -11  -7  13  117.59    6.35
 -11  -7  12   27.14    3.12
 -11   7  12   26.39    2.01
 -11   7  11  618.82   12.30
  11  -7 -11  582.61   12.72
 -11  -7  11  599.42   15.49
 -11   7  10  170.49    5.23
 -11  -7  10  159.85    7.01
  11  -7 -10  160.54    5.56
 -11   7   9  155.20    5.00
  11  -7  -9  152.49    5.36
 -11  -7   9  159.72    6.79
 -11   7   8   73.48    3.31
 -11  -7   8   71.48    4.40
  11   7  -7  403.78    9.94
 -11   7   7  410.00    9.32
 -11  -7   7  402.35   11.15
  11   7  -6  187.62    6.00
 -11   7   6  202.31    5.86
 -11  -7   6  197.28    7.17
  11   7  -5   75.45    3.47
 -11   7   5   80.31    3.53
 -11  -7   5   76.52    4.26
  11   7  -4  174.44    6.30
  11   7  -4  161.63    5.09
 -11   7   4  159.30    5.25
  11  -7  -4  154.51    5.22
 -11  -7   4  160.96    6.14
  11   7  -3 1681.89   29.01
  11   7  -3 1617.03   26.96
 -11   7   3 1605.05   27.58
 -11  -7   3 1580.69   28.81
  11  -7  -3 1589.35   27.62
  11   7  -2   56.71    3.36
 -11   7   2   53.87    3.02
 -11  -7   2   57.30    3.41
  11  -7  -2   59.43    3.30
  11   7  -1  887.31   17.34
 -11   7   1  849.55   16.70
  11  -7  -1  859.15   16.82
 -11  -7   1  817.54   17.03
  11   7   0   50.71    3.08
  11  -7   0   51.17    3.10
 -11   7   0   55.11    3.19
 -11  -7   0   44.24    2.96
  11   7   1  372.00    9.26
 -11   7  -1  372.37    9.51
  11  -7   1  370.54    9.54
 -11  -7  -1  365.64    9.31
 -11  -7  -1  361.45    9.20
  11   7   2   13.70    1.65
 -11   7  -2   11.70    1.81
  11  -7   2    8.12    1.47
 -11  -7  -2    8.17    1.48
  11   7   3   44.22    2.66
  11  -7   3   46.03    3.10
 -11   7  -3   41.17    3.02
 -11  -7  -3   37.55    2.58
  11   7   4   14.60    1.61
  11  -7   4   20.68    2.26
 -11   7  -4   20.35    2.35
 -11  -7  -4   18.77    1.88
  11   7   5  134.27    4.60
 -11  -7  -5  134.61    4.85
 -11   7  -5  130.96    5.19
  11   7   6  282.35    7.13
 -11  -7  -6  280.13    7.50
 -11   7  -6  284.99    8.24
  11   7   7  281.70    6.95
 -11  -7  -7  272.08    7.36
 -11   7  -7  285.56    8.38
  11   7   8   59.84    2.72
 -11  -7  -8   55.09    3.01
  11  -7   8   59.91    4.09
  11   7   9   86.59    3.18
 -11  -7  -9   82.61    3.65
  11  -7   9   90.80    5.08
  11   7  10   22.10    1.49
 -11  -7 -10   23.65    1.98
  11  -7  10   20.10    2.62
 -11  -7 -11  214.41    6.25
  11  -7  11  202.87    8.16
  11  -7  12    5.04    1.88
  11  -7  13  160.72    7.53
  11  -7  14   36.74    3.72
  11  -7  15   15.40    2.73
  11  -7  16   23.86    3.04
  11  -7  17  211.06    9.16
  11  -7  18    2.05    1.56
 -11  -9  15   22.48    3.35
 -11  -9  14    3.37    1.83
 -11  -9  13   40.21    3.99
 -11  -9  12   37.75    3.80
 -11  -9  11   24.40    3.12
 -11   9  10   60.67    2.71
 -11  -9  10   58.26    4.41
 -11   9   9  117.52    4.00
 -11  -9   9   96.33    6.44
 -11   9   8  259.04    6.65
 -11  -9   8  252.18    9.10
 -11  -9   7   29.53    3.03
  11   9  -7   29.23    2.53
 -11   9   7   32.79    2.18
  11   9  -6  234.71    7.45
 -11   9   6  246.13    6.65
 -11  -9   6  238.64    8.48
  11   9  -5   82.93    4.06
 -11   9   5   87.87    3.76
 -11  -9   5   88.64    4.87
  11  -9  -5   80.69    3.64
 -11  -9   4    1.00    1.36
  11   9  -4   -0.29    1.01
 -11   9   4   -0.60    0.90
  11  -9  -4    0.43    0.90
 -11   9   3   78.72    3.74
  11  -9  -3   80.36    3.75
 -11  -9   3   78.38    4.38
 -11  -9   2    2.76    1.39
 -11   9   2    3.75    1.23
  11  -9  -2    4.90    1.29
  11   9  -1  678.76   14.94
 -11   9   1  669.84   14.30
  11  -9  -1  678.68   14.46
 -11  -9   1  657.30   14.88
  11   9   0   17.18    1.96
 -11   9   0   21.47    2.17
  11  -9   0   19.36    2.16
 -11  -9   0   21.55    2.27
  11   9   1  546.68   12.52
  11  -9   1  542.86   12.74
 -11   9  -1  539.18   12.66
 -11  -9  -1  533.19   12.49
  11   9   2   36.63    2.67
  11  -9   2   44.62    3.23
 -11  -9  -2   37.69    2.73
 -11  -9  -2   38.67    2.79
  11   9   3  211.36    6.62
 -11  -9  -3  218.12    6.72
  11   9   4  145.91    5.19
 -11  -9  -4  150.89    5.31
  11   9   5  346.74    8.62
 -11  -9  -5  352.47    8.81
  11   9   6  222.78    6.35
 -11  -9  -6  235.64    6.67
  11  -9   6  240.11    8.52
  11   9   7  218.73    6.03
 -11  -9  -7  222.51    6.35
  11  -9   7  218.53    8.36
  11   9   8  131.25    4.23
 -11  -9  -8  138.87    4.75
  11  -9   8  144.50    6.71
 -11  -9  -9   82.25    3.46
  11  -9   9   87.28    5.32
 -11  -9 -10    1.43    0.81
  11  -9  10    4.86    2.14
  11  -9  11  127.99    6.86
  11  -9  12    7.48    2.32
  11  -9  13   81.15    5.58
  11  -9  14   14.75    2.72
  11  -9  15   88.46    5.99
 -11 -11  12   43.79    4.27
 -11 -11  11   94.16    6.09
 -11 -11  10   25.02    3.24
 -11 -11   9   98.42    5.98
 -11 -11   8    5.75    2.13
 -11 -11   7  288.79   10.25
 -11 -11   6   28.73    3.19
  11 -11  -5   94.01    4.06
 -11 -11   5  112.70    5.82
 -11 -11   4   63.55    4.30
  11 -11  -4   54.81    3.16
  11 -11  -3   44.89    2.95
 -11 -11   3   54.91    4.09
  11 -11  -2   84.60    4.15
 -11 -11   2   88.16    4.83
  11 -11  -1  236.69    7.52
 -11 -11   1  228.34    7.99
 -11 -11   0    3.22    1.45
  11 -11   0    2.47    1.19
 -11 -11  -1  693.48   15.48
  11 -11   2  224.68    8.26
  11  11   2  230.11    7.46
 -11 -11  -2  229.85    7.52
  11 -11   3  428.95   12.23
  11  11   3  426.37   10.70
 -11 -11  -3  411.99   10.67
 -11 -11  -3  426.82   10.57
  11 -11   4  326.28   10.62
  11  11   4  336.56    8.95
 -11 -11  -4  334.66    8.86
  11 -11   5  285.83    9.97
  11  11   5  290.37    7.97
 -11 -11  -5  293.60    7.95
  11 -11   6    5.81    1.74
  11  11   6    3.09    0.93
 -11 -11  -6    5.69    1.23
 -11 -11  -7  237.75    6.60
  11 -11   7  245.72    9.41
 -11 -11  -8   11.53    1.31
  11 -11   8   14.75    2.59
  11 -11   9  178.13    8.23
  11 -11  10   89.09    5.93
  11 -11  11   46.70    4.37
  11 -11  12   43.16    4.22
 -11 -13  10    3.65    2.19
 -11 -13   9   51.55    4.68
 -11 -13   8    3.05    1.87
  11 -13  -7  267.17    8.36
 -11 -13   7  259.99   10.15
  11 -13  -6    3.76    1.40
 -11 -13   6    4.78    1.94
  11 -13  -5  197.63    7.32
 -11 -13   5  200.63    8.46
  11 -13  -4    4.79    1.60
 -11 -13   4   -0.02    1.42
  11 -13  -3   19.15    2.51
 -11 -13   3   19.69    2.71
  11 -13  -2  278.45    9.28
 -11 -13   2  272.52    9.49
  11 -13  -1    1.35    1.32
 -11 -13   1    0.91    1.53
  11 -13   0  142.11    6.55
 -11 -13   0  135.92    6.20
  11 -13   1  375.85   11.52
 -11 -13  -1  363.11   10.73
  11 -13   2   -1.71    1.79
 -11 -13  -2    2.04    1.53
  11 -13   3  169.85    7.65
 -11 -13  -3  169.68    6.55
 -11 -13  -3  174.17    6.28
  11 -13   4    1.74    1.79
 -11 -13  -4    0.91    0.97
  11 -13   5   15.47    2.67
 -11 -13  -5   10.68    1.61
  11 -13   6   32.71    3.68
  11 -13   7  199.41    8.97
  11 -13   8  110.55    6.78
  11 -13   9  125.55    7.17
 -11 -15   6  203.71    9.15
  11 -15  -5  415.18   11.85
 -11 -15   5  394.97   13.11
  11 -15  -4    8.53    1.93
 -11 -15   4    7.67    2.07
  11 -15  -3    9.64    2.02
 -11 -15   3   14.42    2.74
  11 -15  -2   18.28    2.67
 -11 -15   2   12.64    2.46
  11 -15  -1   40.75    3.74
 -11 -15   1   45.25    3.94
  11 -15   0    0.93    1.47
 -11 -15   0    3.43    1.71
  11 -15   1  458.75   13.65
 -11 -15  -1  420.75   12.39
  11 -15   2   11.45    2.45
 -11 -15  -2    3.77    1.53
  11 -15   3  220.54    9.32
 -11 -15  -3  210.44    7.79
  11 -15   4   25.61    3.25
  11 -15   5   12.65    2.53
  11 -15   6    1.00    1.71
  11 -17  -3    4.85    1.96
 -11 -17   3    5.79    2.01
  11 -17  -2   10.00    2.22
 -11 -17   2    6.77    2.32
  11 -17  -1   13.50    2.58
 -11 -17   1    9.48    2.30
  11 -17   0   20.60    3.08
 -11 -17   0   16.46    2.70
  11 -17   1  132.99    7.21
 -11 -17  -1  119.94    6.38
 -12   0  18   11.97    2.43
 -12   0  17    0.55    1.56
 -12   0  16  188.45    8.01
 -12   0  15   -0.61    1.39
 -12   0  14    0.82    1.48
 -12   0  13   -0.45    1.35
 -12   0  12   28.35    2.66
 -12   0  11   -0.13    0.98
  12   0 -10   16.70    2.03
  12   0  -9    1.04    1.02
  12   0  -8  160.81    5.84
  12   0  -7   -0.71    1.02
  12   0  -6  744.45   15.32
  12   0  -5    0.55    0.90
 -12   0   5   -1.35    1.25
 -12   0   4   32.34    2.52
  12   0  -4   29.33    2.36
 -12   0   3   -1.37    1.22
  12   0  -3    0.31    0.89
 -12   0   2  295.62    5.02
 -12   0   2  285.03    7.79
 -12   0   1   -0.88    1.16
 -12   0   0   96.47    4.13
 -12   0  -1    1.05    1.29
  12   0   1    0.29    0.91
 -12   0  -2  319.96    8.39
  12   0   2  330.22    8.49
 -12   0  -3    2.75    1.30
  12   0   3    0.96    0.90
 -12   0  -4  309.95    8.31
  12   0   4  311.06    8.33
 -12   0  -5    1.96    1.25
  12   0   5    2.30    1.16
  12   0   6   92.36    3.28
 -12   0  -6   90.01    4.26
  12   0   6  101.20    4.34
  12   0   7    1.08    0.73
 -12   0  -7    0.20    1.12
  12   0   7    0.73    1.10
  12   0   8   25.64    2.00
 -12   0  -8   26.40    2.50
  12   0   8   24.70    2.33
  12   0   9   -0.18    1.00
 -12   0  -9    1.25    1.28
  12   0   9    0.33    0.94
 -12   0 -10    2.72    1.34
  12   0  10    2.18    1.06
 -12   0 -11    0.04    1.31
  12   0  11   -0.08    1.05
  12   0  12   -0.44    1.17
  12   0  13    0.33    1.11
  12   0  13    1.55    1.27
  12   0  14  132.53    5.54
  12   0  14  130.34    6.02
  12   0  15    0.82    1.37
  12   0  15    0.81    1.37
  12   0  16   68.40    4.71
  12   0  16   68.84    3.96
  12   0  17   -0.20    1.38
  12   0  18   58.38    4.72
 -12  -2  18  494.14   14.82
 -12   2  18  486.27   14.79
 -12  -2  17   49.69    4.26
 -12   2  17   62.34    4.76
 -12  -2  16  167.73    7.49
 -12  -2  15   72.08    4.66
 -12  -2  15   64.81    4.39
 -12  -2  14  212.83    8.01
 -12  -2  14  223.18    8.18
 -12  -2  13   57.28    3.88
  12  -2 -13   55.68    3.54
 -12  -2  13   53.06    3.82
 -12  -2  12  142.63    5.90
  12  -2 -12  146.17    5.73
 -12  -2  12  149.30    6.39
 -12  -2  11   31.43    2.71
  12  -2 -11   29.94    2.47
 -12  -2  11   26.32    2.68
 -12  -2  10  133.22    5.14
  12  -2 -10  125.13    5.10
 -12  -2  10  129.03    5.61
 -12  -2   9   59.25    3.15
  12  -2  -9   57.17    3.30
 -12   2   9   60.24    3.51
 -12  -2   8  166.07    5.28
  12   2  -8  170.53    6.24
 -12   2   8  166.42    5.83
  12  -2  -8  171.84    5.90
 -12  -2   7    7.37    1.18
  12   2  -7    6.94    1.37
 -12   2   7    8.56    1.56
  12  -2  -7    4.65    1.22
 -12  -2   6   46.73    2.26
  12   2  -6   43.76    2.94
 -12   2   6   43.55    2.84
  12  -2  -6   43.70    2.84
 -12  -2   5   24.77    1.52
  12   2  -5   27.25    2.71
  12  -2  -5   26.11    2.16
 -12   2   5   31.51    2.45
  12   2  -4  229.72    6.95
 -12   2   4  229.47    6.74
 -12  -2   3   50.84    3.19
  12   2  -3   53.20    3.09
 -12   2   3   52.31    3.02
 -12   2   2 1344.33   23.72
 -12  -2   2 1317.82   23.95
  12   2  -2 1349.49   23.90
  12  -2  -1    2.50    1.06
 -12  -2   1    2.57    1.26
 -12   2   1    1.43    1.32
  12   2  -1    1.39    0.95
 -12  -2   0   26.48    2.31
 -12   2   0   27.73    2.28
  12   2   0   30.41    2.26
  12  -2   0   27.72    2.25
 -12   2  -1    0.96    1.23
  12  -2   1    2.75    1.10
 -12  -2  -1    2.40    1.40
  12   2   1    3.76    1.08
 -12   2  -2   25.98    1.31
 -12   2  -2   24.47    2.26
  12  -2   2   26.81    2.26
 -12  -2  -2   29.28    2.39
 -12   2  -3    4.44    0.69
  12   2   3    3.97    0.52
 -12   2  -3    3.50    1.35
 -12  -2  -3    3.81    1.26
  12   2   3    3.83    1.17
  12  -2   3    3.45    1.14
  12   2   4  152.48    3.63
 -12  -2  -4  143.64    5.23
 -12   2  -4  150.76    5.54
  12  -2   4  157.11    5.62
  12   2   4  154.80    5.38
  12   2   5   54.79    2.20
  12  -2   5   65.52    3.56
 -12  -2  -5   54.50    3.20
 -12   2  -5   51.92    3.30
  12   2   5   53.24    3.10
  12   2   6   26.46    1.71
 -12   2  -6   27.02    2.49
 -12  -2  -6   28.54    2.41
  12   2   6   30.69    2.44
  12  -2   6   27.95    2.45
  12   2   7   34.86    2.13
 -12  -2  -7   35.78    2.69
 -12   2  -7   35.54    2.86
  12  -2   7   42.63    3.03
  12   2   7   31.03    2.45
  12   2   8   68.02    3.20
 -12   2  -8   71.93    4.05
  12  -2   8   76.95    4.15
 -12  -2  -8   64.29    3.65
  12   2   8   72.29    3.73
  12   2   9    6.57    1.28
 -12  -2  -9    4.25    1.34
 -12   2  -9    2.00    1.26
  12   2   9    8.21    1.49
  12   2  10    2.84    1.15
 -12  -2 -10    2.34    1.18
 -12   2 -10    5.24    1.72
  12   2  10    2.02    1.27
  12  -2  11    4.56    1.41
  12   2  11    3.25    1.23
 -12  -2 -11    3.14    1.38
  12   2  11    4.62    1.40
  12   2  12    5.50    1.57
  12  -2  12    1.87    1.11
  12  -2  12    4.26    1.53
  12  -2  13    7.31    1.66
  12   2  13   12.38    1.57
  12   2  13   10.47    1.88
  12  -2  13   13.25    2.08
  12  -2  14   96.21    5.20
  12   2  14   96.92    5.20
  12  -2  14  106.98    5.27
  12   2  14  107.34    4.43
  12  -2  15   -1.06    1.47
  12   2  15   -0.66    1.34
  12   2  15    1.23    0.90
  12  -2  15    0.09    1.26
  12  -2  16   51.58    3.78
  12  -2  16   42.20    3.77
  12   2  16   55.52    4.22
  12  -2  17   12.82    2.21
  12  -2  17    8.29    2.07
  12   2  17    7.22    2.06
  12   2  18    5.24    1.97
  12  -2  18    1.32    1.39
 -12  -4  19   10.82    2.44
 -12  -4  18   57.21    4.84
 -12  -4  18   63.29    5.01
 -12  -4  17    4.31    1.72
 -12  -4  17    3.90    2.07
 -12  -4  16   63.53    5.08
 -12   4  16   73.60    4.17
 -12  -4  16   56.37    4.47
 -12  -4  15   -2.86    1.70
 -12  -4  15   -0.10    1.55
 -12   4  15    0.97    1.29
 -12  -4  14    5.50    1.76
 -12   4  14    7.02    1.57
 -12  -4  14    5.74    1.70
 -12  -4  13  365.86   10.81
  12  -4 -13  392.81   10.13
 -12  -4  13  374.02   11.47
 -12   4  13  399.26   10.27
 -12  -4  12   39.46    3.12
  12  -4 -12   35.38    2.79
 -12  -4  12   32.99    3.28
 -12   4  12   44.79    3.08
 -12  -4  11   23.35    2.48
  12  -4 -11   22.60    2.12
 -12   4  11   25.45    2.40
 -12  -4  11   24.66    2.81
  12  -4 -10   74.79    3.77
 -12   4  10   79.47    3.87
 -12  -4  10   78.21    4.57
 -12   4   9   32.51    2.51
 -12  -4   9   26.41    2.65
  12  -4  -9   28.44    2.34
  12  -4  -8  156.39    5.58
 -12  -4   8  156.64    6.29
 -12   4   8  163.24    5.56
 -12   4   7   75.85    3.73
  12  -4  -7   82.31    3.93
 -12  -4   7   83.58    4.36
  12   4  -6    5.06    1.32
 -12   4   6    4.46    1.23
 -12  -4   6    5.30    1.56
  12   4  -5   94.47    4.45
 -12   4   5   91.69    4.00
 -12  -4   5   88.07    4.42
  12   4  -4   96.43    4.39
 -12   4   4   92.99    3.97
 -12  -4   4   89.69    4.30
  12   4  -3  126.60    4.96
 -12   4   3  113.19    4.51
  12   4  -2  496.97    8.93
 -12   4   2  527.25   11.45
  12   4  -2  534.99   11.86
  12  -4  -2  509.17   11.40
  12   4  -1  189.73    4.04
 -12   4   1  194.11    6.15
 -12  -4   1  193.72    6.35
  12  -4  -1  203.40    6.27
  12   4  -1  196.52    6.26
  12   4   0    6.01    1.28
 -12   4   0    6.78    1.51
  12  -4   0    6.92    1.34
 -12  -4   0    5.87    1.45
 -12   4  -1  121.39    4.85
  12   4   1  123.89    4.63
 -12  -4  -1  118.50    4.76
  12  -4   1  130.86    4.97
 -12   4  -2   11.27    1.78
 -12  -4  -2   10.71    1.71
  12   4   2   11.25    1.51
  12  -4   2    9.61    1.55
 -12   4  -3    1.04    0.63
 -12   4  -3    1.68    1.20
  12   4   3    1.42    0.90
  12  -4   3    0.64    1.04
 -12  -4  -3    3.12    1.32
 -12   4  -4  282.57    6.94
 -12  -4  -4  293.73    7.92
 -12   4  -4  294.00    8.49
  12  -4   4  316.48    8.70
  12   4   4  303.47    7.68
 -12   4  -5   11.07    1.24
 -12   4  -5   12.60    1.91
 -12  -4  -5   12.50    1.75
  12  -4   5   14.91    1.93
  12   4   5   14.89    1.63
 -12   4  -6    8.67    1.24
  12  -4   6   10.58    1.72
 -12  -4  -6    9.85    1.69
 -12   4  -6    7.68    1.70
  12   4   6   11.66    1.58
  12   4   6   10.17    1.37
 -12   4  -7   16.53    1.70
 -12  -4  -7   19.07    2.02
 -12   4  -7   18.80    2.27
  12   4   7   18.70    1.71
  12   4   7   21.23    2.00
 -12  -4  -8   50.05    3.12
 -12   4  -8   42.38    3.26
  12   4   8   51.27    3.12
 -12  -4  -9   14.12    1.80
  12   4   9   13.82    1.73
 -12  -4 -10   47.09    3.08
  12   4  10   50.80    3.16
  12  -4  11   42.05    3.41
 -12  -4 -11   42.55    3.00
  12   4  11   39.45    2.84
  12  -4  12    1.97    1.61
 -12  -4 -12    1.66    1.13
  12   4  12    2.17    1.18
  12  -4  13   15.49    2.39
  12   4  13   16.45    1.57
  12   4  13   15.49    2.11
  12  -4  14    9.35    1.99
  12  -4  15    0.39    1.37
  12   4  16   75.61    5.06
  12  -4  16   72.64    4.88
  12  -4  17   12.32    2.33
  12   4  17   10.39    2.22
  12   4  18    4.69    1.83
  12  -4  18    3.09    1.76
 -12  -6  17   26.62    3.52
 -12  -6  16   27.98    3.37
 -12  -6  15   19.87    2.76
 -12  -6  14   22.53    3.04
 -12   6  14   20.28    2.09
 -12   6  13    2.33    1.22
 -12  -6  13    2.19    1.68
  12  -6 -12   11.97    1.65
 -12   6  12   13.56    1.70
 -12  -6  12   11.27    2.13
 -12  -6  11   58.37    4.28
 -12   6  11   64.51    3.34
  12  -6 -11   56.30    3.25
 -12   6  10  113.77    4.48
 -12  -6  10  109.32    5.68
  12  -6 -10  114.28    4.70
 -12   6   9  252.63    7.06
 -12  -6   9  242.51    8.64
  12  -6  -9  238.42    7.25
 -12   6   8   76.88    3.60
 -12  -6   8   71.08    4.36
  12  -6  -8   69.73    3.64
 -12   6   7   82.29    3.75
 -12  -6   7   84.63    4.64
  12   6  -6   25.67    2.03
 -12  -6   6   23.18    2.55
 -12   6   6   24.72    2.10
  12   6  -5  168.47    5.10
 -12   6   5  173.12    5.63
 -12  -6   5  169.21    6.43
  12   6  -4   86.54    4.29
  12   6  -4   76.69    3.14
 -12   6   4   79.00    3.69
 -12  -6   4   75.58    4.14
  12   6  -3  127.68    5.26
  12   6  -3  125.78    3.96
 -12   6   3  122.99    4.76
 -12  -6   3  126.00    5.25
  12  -6  -3  121.29    4.72
  12   6  -2  116.27    4.85
  12   6  -2  107.32    3.51
 -12   6   2  104.62    4.43
  12  -6  -2  113.13    4.56
 -12  -6   2  104.33    4.73
  12   6  -1   20.61    2.07
 -12   6   1   17.99    1.99
  12  -6  -1   19.52    2.00
 -12  -6   1   20.67    2.21
  12   6   0   16.75    1.89
 -12   6   0   15.71    1.89
 -12  -6   0   19.33    2.13
  12  -6   0   18.29    1.97
  12   6   1    6.08    1.29
 -12   6  -1    5.66    1.45
 -12  -6  -1    6.99    1.59
  12  -6   1    5.07    1.33
  12   6   2  190.19    6.02
  12  -6   2  194.81    6.55
 -12   6  -2  177.62    6.31
 -12  -6  -2  182.20    6.10
 -12   6  -3  392.62   10.20
  12  -6   3  389.55   10.26
 -12  -6  -3  375.27    9.45
  12   6   3  381.84    9.26
  12  -6   4  361.84    9.91
 -12   6  -4  345.53    9.74
 -12  -6  -4  341.52    8.88
  12   6   4  365.93    8.77
 -12   6  -5   67.01    3.44
 -12  -6  -5   70.76    3.52
 -12   6  -5   61.22    3.80
  12   6   5   62.40    3.12
  12   6   6   17.98    1.72
 -12   6  -6   14.97    1.78
 -12   6  -6   19.43    2.38
 -12  -6  -6   14.72    1.78
  12   6   7    3.52    0.95
 -12  -6  -7    2.90    1.15
 -12   6  -7    4.19    1.29
  12   6   8    7.86    1.15
 -12  -6  -8    6.16    1.41
 -12   6  -8    5.11    1.32
  12   6   9    2.56    0.82
 -12  -6  -9    5.50    1.33
  12   6  10   11.50    1.31
  12  -6  10   12.39    2.24
 -12  -6 -10    9.01    1.49
  12  -6  11   23.41    2.83
 -12  -6 -11   27.60    2.33
  12   6  11   29.20    1.87
  12  -6  12   18.20    2.74
 -12  -6 -12   20.25    2.07
  12   6  12   20.75    2.14
  12  -6  13    6.99    2.14
  12  -6  14    6.57    2.14
  12  -6  15    1.45    1.71
  12  -6  16   19.95    3.00
  12  -6  17   11.70    2.51
  12  -6  18    5.83    2.16
 -12  -8  15    2.36    1.84
 -12  -8  14   68.76    5.21
 -12  -8  13    5.74    1.91
 -12  -8  12   75.98    5.24
 -12   8  11   84.72    3.59
 -12  -8  11   80.64    5.28
 -12  -8  10    3.11    1.80
 -12   8  10    1.55    0.99
  12  -8 -10    2.23    0.97
 -12  -8   9    6.22    1.96
 -12   8   9    8.93    1.36
  12  -8  -9    9.34    1.56
 -12  -8   8    7.60    2.02
  12   8  -8    9.34    1.55
 -12   8   8   10.09    1.47
  12   8  -7   71.65    3.77
 -12   8   7   82.52    3.69
 -12  -8   7   73.87    4.57
 -12  -8   6   31.26    3.10
  12   8  -6   24.83    2.17
 -12   8   6   29.69    2.28
  12   8  -5  104.11    4.33
 -12   8   5  116.18    4.53
 -12  -8   5  107.38    5.29
  12   8  -4    3.70    1.08
 -12   8   4    4.39    1.25
 -12  -8   4    3.42    1.49
  12  -8  -4    4.14    1.17
  12   8  -3    1.00    0.80
 -12   8   3   -0.23    1.03
 -12  -8   3    2.06    1.58
  12  -8  -3    0.74    1.05
 -12   8   2   26.47    2.38
  12  -8  -2   23.10    2.14
 -12  -8   2   25.52    2.52
  12   8  -1  341.73    9.36
 -12   8   1  330.23    8.96
  12  -8  -1  332.79    9.04
 -12  -8   1  333.72    9.38
  12   8   0    0.14    0.87
 -12   8   0    0.55    1.14
 -12  -8   0    0.21    1.14
  12  -8   0    2.41    1.11
  12   8   1    0.62    0.96
 -12   8  -1   -1.22    1.17
  12  -8   1    1.35    1.13
 -12  -8  -1    2.22    1.25
  12   8   2  149.13    5.47
 -12   8  -2  146.64    5.86
  12  -8   2  156.83    6.04
 -12  -8  -2  145.08    5.52
  12   8   3   89.15    4.06
 -12   8  -3   92.43    4.74
 -12  -8  -3   88.94    4.18
  12   8   4   22.24    2.01
 -12   8  -4   23.22    2.56
 -12  -8  -4   19.80    2.05
  12   8   5   28.95    2.22
 -12  -8  -5   32.54    2.46
  12   8   6   29.98    2.16
 -12  -8  -6   28.97    2.36
  12   8   7  190.86    5.67
 -12  -8  -7  194.62    6.16
  12   8   8   18.85    1.64
 -12  -8  -8   15.70    1.75
  12  -8   8   17.42    2.60
  12   8   9    6.06    1.10
 -12  -8  -9    4.71    1.21
  12  -8   9    5.01    1.78
 -12  -8 -10    2.63    1.09
  12  -8  10   -1.64    1.55
 -12  -8 -11    0.60    0.82
  12  -8  11   -2.98    1.65
  12  -8  12   10.90    2.39
  12  -8  13   51.58    4.37
  12  -8  14    1.88    1.84
  12  -8  15   39.11    4.04
  12  -8  16   10.06    2.46
 -12 -10  13    0.59    1.92
 -12 -10  12  213.47    9.34
 -12 -10  11    5.98    2.26
 -12 -10  10    4.07    1.88
 -12 -10   9   12.55    2.47
 -12  10   9   10.92    1.41
 -12  10   8  128.35    4.48
 -12 -10   8  127.45    6.62
 -12 -10   7   11.59    2.43
 -12  10   7    8.51    1.31
 -12  10   6  171.69    5.59
 -12 -10   6  162.39    7.16
 -12 -10   5    5.36    1.85
  12  10  -5    7.91    1.64
 -12  10   5    5.80    1.33
  12 -10  -5    8.98    1.43
  12  10  -4   85.89    4.21
 -12  10   4   80.27    3.87
 -12 -10   4   84.81    4.90
  12 -10  -4   76.10    3.84
 -12  10   3    6.52    1.39
  12 -10  -3    2.33    0.95
 -12 -10   3    6.51    1.79
 -12  10   2    0.88    1.06
 -12 -10   2    2.93    1.65
  12 -10  -2    1.07    0.99
 -12  10   1  183.12    6.49
  12 -10  -1  190.15    6.64
 -12 -10   1  180.02    6.89
 -12  10   0  104.37    4.87
  12 -10   0  104.82    4.89
 -12 -10   0  100.86    5.00
 -12 -10  -1   70.74    4.06
  12  10   2  399.14   10.32
 -12 -10  -2  397.00   10.32
 -12 -10  -2  380.16   10.28
  12  10   3  300.49    8.49
 -12 -10  -3  295.31    8.51
  12  10   4   40.61    2.81
 -12 -10  -4   42.47    2.91
  12 -10   5   63.35    4.53
  12  10   5   60.52    3.32
 -12 -10  -5   66.20    3.63
  12 -10   6    0.51    1.64
  12  10   6    0.21    0.90
 -12 -10  -6    0.62    0.88
  12  10   7   22.57    1.95
 -12 -10  -7   25.88    2.16
  12 -10   7   22.87    2.96
 -12 -10  -8  102.96    4.19
  12 -10   8  101.04    5.85
 -12 -10  -9   22.20    1.87
  12 -10   9   17.80    2.90
  12 -10  10   23.05    3.20
  12 -10  11    4.74    2.20
  12 -10  12   -0.51    1.70
  12 -10  13   87.72    5.99
 -12 -12  11   20.81    3.23
 -12 -12  10    4.26    1.91
 -12 -12   9   17.04    2.86
 -12 -12   8   15.65    2.72
 -12 -12   7   16.41    2.76
 -12 -12   6  142.73    7.08
 -12 -12   5    7.82    2.12
 -12 -12   4    3.86    1.62
  12 -12  -3   87.47    4.31
 -12 -12   3   89.07    5.22
 -12 -12   2    6.92    1.96
  12 -12  -2    3.46    1.28
 -12 -12   1  173.75    7.15
 -12 -12   0   26.56    2.83
  12 -12   1    0.89    1.49
 -12 -12  -1    0.47    1.25
  12 -12   2   69.59    4.69
 -12 -12  -2   75.99    4.26
 -12 -12  -2   73.57    4.28
  12 -12   3    3.15    1.93
 -12 -12  -3    0.74    1.22
  12 -12   4    2.31    1.49
 -12 -12  -4    4.53    1.31
  12 -12   5  188.41    8.21
 -12 -12  -5  181.86    6.23
  12 -12   6    3.85    1.62
 -12 -12  -6    4.49    1.11
  12 -12   7   72.79    5.21
  12 -12   8  142.63    7.55
  12 -12   9   37.24    4.02
  12 -12  10   26.34    3.54
 -12 -14   8   41.57    4.32
 -12 -14   7    2.11    2.10
  12 -14  -6  172.71    6.95
 -12 -14   6  178.67    8.47
  12 -14  -5   28.84    2.87
 -12 -14   5   29.74    3.66
  12 -14  -4   14.52    2.35
 -12 -14   4   13.55    2.58
  12 -14  -3   10.09    2.02
 -12 -14   3   13.94    2.61
  12 -14  -2    3.46    1.84
 -12 -14   2    0.73    1.46
  12 -14  -1    5.70    1.84
 -12 -14   1    6.35    1.94
  12 -14   0   21.92    2.88
 -12 -14   0   24.79    2.94
  12 -14   1   15.61    2.65
 -12 -14  -1   13.05    2.28
  12 -14   2   15.74    2.75
 -12 -14  -2   10.22    1.75
 -12 -14  -2   14.08    2.17
  12 -14   3    3.27    1.91
 -12 -14  -3    4.86    1.60
 -12 -14  -3    4.22    1.37
  12 -14   4    3.65    1.90
  12 -14   5   79.53    5.62
  12 -14   6    3.40    1.84
  12 -14   7    1.73    1.93
  12 -16  -4   14.47    2.40
 -12 -16   4   19.47    2.92
  12 -16  -3    8.06    2.18
 -12 -16   3    5.19    1.73
  12 -16  -2    3.53    1.84
 -12 -16   2    5.79    2.16
  12 -16  -1    6.15    1.90
 -12 -16   1    5.11    1.89
  12 -16   0   23.04    3.21
 -12 -16   0   23.86    3.01
  12 -16   1    6.91    2.44
 -12 -16  -1    8.56    2.18
  12 -16   2   11.49    2.49
 -12 -16  -2   17.66    2.60
  12 -16   3    9.73    2.42
 -13   1  18   -0.49    1.42
 -13  -1  18   -3.11    1.79
 -13   1  17    4.56    1.84
 -13  -1  17    4.01    1.68
 -13   1  16   54.46    4.62
 -13  -1  16   52.51    4.21
 -13   1  15  121.78    6.19
 -13  -1  15  129.85    6.28
 -13   1  14   43.87    3.64
 -13  -1  14   52.22    3.82
 -13  -1  13  168.31    6.69
 -13  -1  12    2.74    1.36
 -13  -1  11  114.22    4.93
 -13  -1  10   26.16    2.34
  13  -1 -10   27.73    2.51
 -13  -1   9  333.44    8.51
  13  -1  -9  346.15    9.46
 -13  -1   8    1.11    0.83
  13  -1  -8   -0.34    0.99
  13   1  -8    1.99    1.26
 -13   1   8    1.00    1.28
 -13  -1   7  898.50   16.31
 -13   1   7  901.33   18.12
  13   1  -7  915.31   18.43
  13  -1  -7  915.39   18.17
 -13  -1   6   70.69    2.80
  13  -1  -6   75.72    3.84
  13   1  -6   71.23    3.84
 -13   1   6   65.15    3.65
 -13  -1   5  638.80   11.43
 -13   1   5  622.28   13.70
  13   1  -5  643.81   13.99
  13  -1  -5  649.60   13.94
 -13  -1   4   14.89    1.03
  13   1  -4   15.02    1.80
 -13   1   4   14.09    1.82
 -13  -1   4   12.92    1.88
  13  -1  -4   15.42    1.84
  13   1  -3  876.62   17.05
 -13   1   3  826.35   16.73
 -13  -1   3  838.29   16.97
 -13   1   2   81.19    3.93
 -13  -1   2   80.47    3.99
  13   1  -2   88.29    4.03
 -13   1   1 1206.06   22.18
 -13  -1   1 1166.34   22.10
  13   1  -1 1253.35   22.33
 -13   1   0  126.70    2.41
 -13   1   0  135.51    5.12
  13  -1   0  138.85    5.15
 -13  -1   0  137.70    5.19
 -13  -1  -1 1138.68   21.56
 -13   1  -1 1163.22   21.67
  13  -1   1 1211.71   21.92
 -13   1  -2    2.01    1.28
  13  -1   2    2.86    1.22
  13   1   2    1.59    1.03
 -13  -1  -2    0.10    1.26
 -13  -1  -3  154.09    5.66
 -13   1  -3  169.67    5.96
  13  -1   3  177.74    6.01
  13   1   3  173.27    5.92
 -13  -1  -4   12.83    1.91
 -13   1  -4   12.68    1.87
  13   1   4   13.07    1.79
  13  -1   4   16.35    1.93
  13   1   5    3.58    0.70
 -13  -1  -5    2.21    1.43
 -13   1  -5    4.59    1.51
  13   1   5    4.80    1.17
  13  -1   5    2.50    1.03
  13   1   6    2.66    0.73
 -13  -1  -6    3.72    1.46
 -13   1  -6    1.99    1.31
  13   1   6    2.67    1.03
  13  -1   6    2.49    1.06
  13   1   7 1063.16   18.84
  13  -1   7 1128.35   21.59
 -13   1  -7 1067.58   21.20
 -13  -1  -7 1054.36   20.83
  13   1   7 1142.49   21.21
  13   1   8   17.75    1.66
 -13   1  -8   16.54    2.12
 -13  -1  -8   18.55    2.23
  13   1   8   15.65    2.06
  13  -1   9  725.08   14.72
  13   1   9  729.01   14.56
 -13   1  -9  722.80   16.25
 -13  -1  -9  690.71   15.74
  13   1   9  780.82   16.23
  13   1  10   10.67    1.62
  13  -1  10    7.70    1.52
 -13   1 -10    8.55    1.98
 -13  -1 -10    5.44    1.52
  13   1  11    6.95    1.43
  13  -1  11    9.98    1.74
 -13   1 -11    7.16    1.81
 -13  -1 -11    7.00    1.67
  13   1  12    8.92    1.78
  13  -1  12   10.66    1.87
  13   1  13   62.34    4.02
  13  -1  13   74.66    4.32
  13  -1  13   64.66    3.99
  13  -1  14   14.02    2.05
  13  -1  14   12.99    2.01
  13   1  14   12.98    1.73
  13   1  14   10.08    1.92
  13  -1  15  182.32    7.14
  13   1  15  180.02    6.54
  13   1  15  180.55    7.49
  13  -1  15  185.52    7.63
  13  -1  16    1.27    1.35
  13   1  16    3.56    1.84
  13  -1  16    1.30    1.31
  13   1  17   96.24    5.79
  13  -1  17   92.40    5.71
  13  -1  18    4.25    1.64
  13   1  18    3.79    1.63
 -13  -3  18    0.24    1.49
 -13  -3  17  102.51    6.18
 -13  -3  16   -0.31    1.62
 -13  -3  16    3.18    1.66
 -13  -3  15  104.44    5.66
 -13   3  15  107.88    5.32
 -13  -3  15  101.03    5.75
 -13  -3  14   54.69    4.00
 -13   3  14   53.57    3.70
 -13  -3  14   52.24    4.10
 -13  -3  13  438.61   11.79
 -13   3  13  421.32   11.23
 -13  -3  13  420.49   12.25
 -13  -3  12   45.69    3.32
  13  -3 -12   40.78    3.10
 -13   3  12   42.38    3.20
 -13  -3  12   37.71    3.44
 -13  -3  11   60.88    3.64
  13  -3 -11   61.71    3.64
 -13   3  11   64.42    3.76
 -13  -3  11   68.97    4.36
 -13  -3  10   21.26    2.12
 -13   3  10   23.53    2.38
 -13  -3  10   23.24    2.77
  13  -3 -10   29.00    2.48
 -13  -3   9  366.31    9.10
 -13  -3   9  358.77   10.39
 -13   3   9  362.11    9.61
  13  -3  -9  369.31    9.70
 -13  -3   8   -0.07    0.85
 -13  -3   8    0.18    1.30
 -13   3   8    0.25    1.19
  13  -3  -8    2.97    1.17
 -13   3   7  691.77   14.63
  13  -3  -7  694.49   14.84
  13   3  -6   58.27    3.54
 -13   3   6   49.69    3.14
  13  -3  -6   53.22    3.24
  13   3  -5  493.58   11.87
 -13   3   5  480.65   11.24
  13   3  -4   45.66    3.01
 -13   3   4   40.93    2.78
 -13   3   3  658.66   13.86
  13   3  -3  646.97   14.16
 -13   3   2  116.83    4.72
 -13  -3   2  113.00    4.83
  13  -3  -2  111.33    4.62
  13   3  -2  119.27    4.84
 -13   3   1  860.08   17.19
 -13  -3   1  867.93   17.50
  13   3  -1  897.01   17.40
  13  -3  -1  882.02   17.38
 -13   3   0   27.72    2.44
 -13  -3   0   28.98    2.51
  13  -3   0   23.75    2.21
  13   3   0   23.85    2.14
 -13   3  -1 1301.53   24.12
 -13  -3  -1 1299.71   24.03
  13  -3   1 1347.79   24.26
  13   3   1 1368.17   23.97
 -13   3  -2  174.93    4.40
 -13   3  -2  181.11    6.21
  13  -3   2  183.39    6.31
 -13  -3  -2  181.31    6.11
  13   3   2  186.40    5.96
 -13   3  -3  153.83    4.20
 -13   3  -3  156.25    5.85
 -13  -3  -3  153.39    5.56
  13  -3   3  161.98    5.88
  13   3   3  161.66    5.46
 -13   3  -4  148.40    4.29
 -13  -3  -4  150.57    5.54
  13  -3   4  160.52    6.00
 -13   3  -4  150.51    5.78
  13   3   4  164.65    5.48
 -13   3  -5   35.86    2.08
 -13  -3  -5   35.78    2.76
 -13   3  -5   36.69    2.96
  13  -3   5   34.16    2.76
  13   3   5   41.99    2.84
 -13  -3  -6    8.59    1.64
 -13   3  -6   10.36    1.83
  13   3   6   11.16    1.62
  13  -3   6   10.10    1.70
 -13  -3  -7  815.52   17.09
 -13   3  -7  857.38   18.12
  13   3   7  871.13   17.27
 -13  -3  -8   16.80    2.12
 -13   3  -8   15.95    2.20
  13   3   8   15.09    1.85
 -13   3  -9  540.81   13.60
 -13  -3  -9  511.65   12.46
  13   3   9  548.68   12.65
 -13  -3 -10   18.91    2.20
  13   3  10   24.96    2.41
  13   3  11   19.23    2.22
 -13  -3 -11   20.23    2.36
  13  -3  12   11.54    2.03
  13   3  12   11.85    1.89
 -13  -3 -12    9.48    1.78
  13   3  13   98.22    5.08
  13  -3  13   95.94    5.14
  13  -3  14    3.07    1.56
  13   3  14    1.37    1.25
  13   3  14    0.00    0.76
  13   3  15  421.87   12.27
  13  -3  15  421.01   12.27
  13   3  16   47.43    4.15
  13  -3  16   45.69    3.95
  13   3  17   34.00    3.62
  13  -3  17   29.01    3.24
  13   3  18    0.41    1.57
 -13  -5  18   16.05    2.81
 -13  -5  17   29.47    3.66
 -13  -5  16   16.50    2.74
 -13   5  15  499.31   12.17
 -13  -5  15  459.58   14.05
 -13   5  14    2.05    1.25
 -13  -5  14   -1.18    1.70
 -13   5  13  289.47    8.40
 -13  -5  13  270.53    9.86
  13  -5 -12   44.91    3.12
 -13   5  12   53.08    3.32
 -13  -5  12   52.48    4.13
 -13   5  11  120.11    5.02
 -13  -5  11  120.39    6.06
  13  -5 -11  111.61    4.89
 -13  -5  10   40.97    3.50
 -13   5  10   35.70    2.71
  13  -5 -10   36.85    2.81
  13  -5  -9  528.33   12.35
 -13   5   9  538.37   12.16
 -13  -5   9  517.62   13.58
 -13  -5   8    4.82    1.66
 -13   5   8    1.36    1.08
  13  -5  -8    0.34    0.87
 -13   5   7  999.78   19.08
 -13  -5   7  980.47   20.56
 -13   5   6  190.01    6.22
 -13  -5   6  197.04    7.17
 -13   5   5  842.21   16.59
 -13  -5   5  822.30   17.67
  13   5  -4  119.33    5.23
 -13   5   4  121.02    4.79
 -13  -5   4  118.72    5.22
  13   5  -3  709.49   15.05
  13   5  -3  663.35   12.01
 -13   5   3  680.20   14.26
  13  -5  -3  672.11   14.28
  13   5  -2   29.48    2.53
  13   5  -2   26.65    1.46
 -13   5   2   28.87    2.44
  13  -5  -2   25.46    2.27
  13   5  -1 1556.04   27.02
  13   5  -1 1481.79   23.46
 -13   5   1 1461.81   26.55
 -13  -5   1 1474.47   26.94
  13  -5  -1 1541.87   26.86
  13   5   0    6.41    1.34
 -13   5   0    5.79    1.51
  13  -5   0    5.53    1.28
 -13  -5   0    5.60    1.53
 -13   5  -1 1671.66   29.50
  13   5   1 1706.15   29.17
  13  -5   1 1697.00   29.71
 -13  -5  -1 1617.00   29.20
  13  -5   2  423.93   10.58
 -13   5  -2  387.18   10.20
  13   5   2  395.99    9.74
 -13  -5  -2  388.89    9.93
 -13   5  -3  644.29   14.48
  13  -5   3  659.14   14.64
  13   5   3  647.03   13.59
 -13  -5  -3  643.19   13.90
  13   5   4   21.88    2.00
 -13   5  -4   21.98    1.84
 -13   5  -4   21.43    2.32
  13  -5   4   25.90    2.45
 -13  -5  -4   20.55    2.19
 -13   5  -5  172.28    5.53
 -13   5  -5  193.29    6.93
 -13  -5  -5  188.18    6.22
  13   5   5  194.46    5.95
 -13   5  -6   28.20    2.19
 -13  -5  -6   27.58    2.41
 -13   5  -6   26.45    2.69
  13   5   6   28.87    2.18
 -13   5  -7  966.09   18.32
 -13   5  -7  964.91   20.16
 -13  -5  -7  940.35   18.57
  13   5   7  930.15   17.73
 -13   5  -8  132.90    5.21
 -13  -5  -8  134.50    5.28
 -13   5  -8  131.89    6.03
  13   5   8  130.47    4.66
 -13  -5  -9  273.34    7.97
  13   5   9  281.92    8.04
  13   5   9  257.58    7.04
 -13  -5 -10  113.25    4.93
  13   5  10  114.83    4.90
  13   5  10  121.33    4.39
  13  -5  11    1.64    1.37
 -13  -5 -11    1.97    1.18
  13   5  11    3.95    1.07
  13   5  11    5.84    1.48
  13  -5  12   14.02    2.28
 -13  -5 -12   18.12    2.16
  13   5  12   14.10    1.89
  13  -5  13  330.90   10.81
  13  -5  14   16.25    2.66
  13  -5  15  244.63    9.42
  13  -5  16   26.51    3.20
  13  -5  17   23.71    3.23
  13   5  17   25.82    3.27
  13   5  18    6.04    2.17
  13  -5  18    6.19    1.83
 -13  -7  16    8.46    2.36
 -13  -7  15  220.81    9.45
 -13  -7  14    3.69    1.78
 -13  -7  13  219.07    9.08
 -13   7  12   84.25    3.91
 -13  -7  12   91.07    5.66
 -13   7  11   75.46    3.67
 -13  -7  11   64.69    4.74
  13  -7 -11   70.98    3.86
  13  -7 -10   16.90    1.97
 -13  -7  10   20.67    2.78
 -13   7  10   15.30    1.77
 -13   7   9  242.99    7.09
 -13  -7   9  240.50    8.91
  13  -7  -9  240.98    7.55
 -13   7   8   15.33    1.80
 -13  -7   8   11.12    2.21
 -13   7   7  636.28   13.53
 -13  -7   7  631.84   15.47
  13   7  -6   26.61    2.15
 -13   7   6   22.16    2.12
 -13  -7   6   22.94    2.73
  13   7  -5  277.61    7.31
 -13   7   5  292.38    8.07
 -13  -7   5  293.73    9.16
  13   7  -4   45.35    2.53
 -13   7   4   44.95    2.99
  13  -7  -4   47.09    3.00
 -13  -7   4   43.73    3.33
  13   7  -3  153.95    4.73
 -13   7   3  161.36    5.71
 -13  -7   3  155.68    6.20
  13  -7  -3  152.95    5.63
  13   7  -2    4.78    0.98
 -13   7   2    3.98    1.21
  13  -7  -2    3.01    1.10
 -13  -7   2    6.48    1.69
  13   7  -1  282.51    8.32
 -13   7   1  258.11    7.81
  13  -7  -1  256.79    7.87
 -13  -7   1  268.62    8.18
  13   7   0    3.46    1.16
 -13   7   0    1.22    1.21
 -13  -7   0    2.33    1.45
  13  -7   0    3.61    1.25
  13   7   1  683.61   14.39
  13  -7   1  663.76   14.71
 -13   7  -1  628.62   14.38
 -13  -7  -1  625.06   14.18
  13   7   2  151.51    5.59
 -13   7  -2  144.98    5.86
  13  -7   2  159.27    6.12
 -13  -7  -2  148.90    5.69
  13   7   3  401.17    9.87
 -13   7  -3  389.89   10.64
 -13  -7  -3  385.42    9.95
  13   7   4   15.12    1.71
 -13   7  -4   13.78    2.14
 -13  -7  -4   18.72    2.14
  13   7   5  176.95    5.82
 -13  -7  -5  173.87    6.07
 -13   7  -5  173.76    6.86
 -13   7  -5  185.45    6.23
  13   7   6  109.51    4.33
 -13   7  -6  112.51    5.59
 -13  -7  -6  101.97    4.54
 -13   7  -6  106.19    4.69
  13   7   7  430.20    9.87
 -13  -7  -7  421.41   10.43
 -13   7  -7  423.49   10.92
  13   7   8  156.67    5.14
 -13  -7  -8  160.02    5.71
  13   7   9   66.62    3.09
 -13  -7  -9   63.42    3.50
 -13  -7 -10  295.46    8.24
  13  -7  10  283.32    9.94
 -13  -7 -11   50.09    3.13
  13  -7  11   43.26    3.87
 -13  -7 -12   72.98    3.78
  13  -7  12   66.26    4.83
  13  -7  13  184.41    8.27
  13  -7  14   31.36    3.60
  13  -7  15  160.40    7.87
  13  -7  16   -0.78    1.93
  13  -7  17   34.57    4.02
 -13  -9  14    4.01    2.19
 -13  -9  13  120.45    6.89
 -13  -9  12   45.92    4.27
 -13  -9  11  131.69    7.01
 -13  -9  10    9.78    2.19
 -13   9  10    9.16    1.39
 -13   9   9  338.06    8.47
 -13  -9   9  317.53   10.95
 -13   9   8   90.59    3.95
 -13  -9   8   76.71    5.08
  13   9  -7  636.71   14.56
 -13   9   7  695.55   13.99
 -13  -9   7  651.62   16.51
  13   9  -6    2.80    1.18
 -13   9   6    0.68    1.04
 -13  -9   6    0.84    1.39
  13   9  -5  475.16   11.32
 -13   9   5  495.51   11.40
 -13  -9   5  472.43   13.05
  13   9  -4    6.14    1.24
 -13   9   4    6.97    1.43
 -13  -9   4    8.19    1.90
  13  -9  -4    3.60    1.11
  13   9  -3  370.33    9.28
 -13   9   3  359.79    9.56
 -13  -9   3  367.32   10.68
  13  -9  -3  373.09    9.79
 -13   9   2   20.29    2.17
  13  -9  -2   19.64    2.06
 -13  -9   2   20.54    2.51
 -13   9   1  266.14    8.21
  13  -9  -1  273.09    8.33
 -13  -9   1  274.09    8.72
 -13   9   0   11.74    1.89
 -13  -9   0   16.58    2.19
 -13   9  -1  628.89   14.58
 -13  -9  -1  624.17   14.35
  13   9   2   83.88    4.16
 -13   9  -2   73.97    4.33
 -13  -9  -2   76.16    4.13
  13   9   3  532.71   12.40
 -13   9  -3  549.09   13.63
 -13  -9  -3  534.42   12.67
  13   9   4    1.24    1.01
 -13  -9  -4   -0.69    1.02
  13   9   5  289.09    8.02
 -13  -9  -5  283.53    8.22
  13   9   6   79.05    3.72
 -13  -9  -6   78.63    3.96
  13   9   7   63.44    3.23
  13  -9   7   69.71    4.78
 -13  -9  -7   66.90    3.54
  13  -9   8   12.74    2.41
 -13  -9  -8   14.48    1.85
  13  -9   9   26.18    3.27
 -13  -9  -9   25.08    2.14
  13  -9  10  152.29    7.46
 -13  -9 -10  154.43    5.39
  13  -9  11   21.59    3.30
  13  -9  12   46.98    4.35
  13  -9  13   31.82    3.80
  13  -9  14   94.35    6.32
 -13 -11  11  122.40    7.12
 -13 -11  10    4.54    2.00
 -13 -11   9  394.62   12.91
 -13 -11   8    1.83    1.82
 -13  11   7  298.88    7.91
 -13 -11   7  290.62   10.53
 -13 -11   6   17.89    2.77
 -13  11   6   18.57    2.00
 -13  11   5  324.46    8.61
  13 -11  -5  291.92    8.45
 -13 -11   5  292.25   10.27
 -13  11   4   39.84    2.87
 -13 -11   4   46.22    3.91
  13 -11  -4   38.57    2.93
 -13  11   3  415.25   10.67
 -13 -11   3  409.62   12.01
  13 -11  -3  402.19   10.63
 -13 -11   2   18.20    2.57
 -13 -11   1  354.28   10.66
 -13 -11   0    2.42    1.57
 -13 -11  -1  368.66   10.42
 -13 -11  -1  346.28   10.28
 -13 -11  -2  151.93    6.13
 -13 -11  -3  588.85   13.78
  13 -11   4  137.93    6.81
  13  11   4  139.25    5.60
 -13 -11  -4  144.65    5.69
  13 -11   5  219.29    8.86
  13  11   5  215.44    7.01
 -13 -11  -5  221.26    7.15
  13 -11   6   11.32    2.24
 -13 -11  -6   11.64    1.75
 -13 -11  -7  126.32    4.94
  13 -11   7  115.72    6.45
  13 -11   8   29.70    3.50
  13 -11   9  111.12    6.63
  13 -11  10   97.57    6.28
  13 -11  11  122.08    7.20
 -13 -13   8    3.35    1.86
 -13 -13   7   95.57    6.10
 -13 -13   6    2.37    1.61
 -13 -13   5  142.47    7.26
 -13 -13   4    6.28    2.04
 -13 -13   3  567.08   15.41
  13 -13  -2   18.09    2.51
 -13 -13   2   18.31    2.62
  13 -13  -1  453.23   13.07
 -13 -13   1  455.56   12.97
  13 -13   0   52.40    4.26
 -13 -13   0   44.56    3.73
  13 -13   1  270.79    9.82
 -13 -13  -1  261.80    9.12
  13 -13   2    5.43    2.03
 -13 -13  -2    3.40    1.54
 -13 -13  -2    4.82    1.48
  13 -13   3  260.55    9.92
 -13 -13  -3  261.60    8.45
  13 -13   4   20.42    3.08
 -13 -13  -4   11.51    1.78
  13 -13   5  270.62   10.44
  13 -13   6   85.85    5.79
  13 -13   7   55.36    4.90
  13 -13   8   48.09    4.66
  13 -15  -5   17.11    2.56
 -13 -15   5   15.84    2.81
  13 -15  -4    9.86    2.23
 -13 -15   4    8.90    2.13
  13 -15  -3  309.58   10.68
 -13 -15   3  332.54   11.58
  13 -15  -2   -0.28    1.42
 -13 -15   2   -4.99    2.09
  13 -15  -1  182.82    8.14
 -13 -15   1  185.26    8.11
  13 -15   0    5.86    2.19
 -13 -15   0    3.87    1.80
  13 -15   1    7.89    2.03
 -13 -15  -1    9.12    1.86
 -13 -15  -1   10.07    1.99
  13 -15   2   36.22    3.88
 -13 -15  -2   40.93    3.60
  13 -15   3   84.04    5.79
  13 -15   4   20.51    3.11
  13 -17  -2    7.93    2.13
  13 -17  -1  105.59    6.47
 -13 -17   1   97.45    6.14
 -13 -17   0   -1.82    1.71
 -14   0  18   81.63    5.52
 -14   0  17   -2.68    1.71
 -14   0  16   41.96    3.88
 -14   0  15    0.52    1.57
 -14   0  14    2.85    1.59
 -14   0  13    2.00    1.30
 -14   0  12   89.60    4.61
 -14   0  11    0.35    1.05
 -14   0  10 1348.04   24.40
 -14   0   9   -0.26    0.91
 -14   0   8  192.71    5.73
 -14   0   7    0.19    0.75
  14   0  -7   -1.65    1.17
 -14   0   7    2.01    1.39
 -14   0   6  251.83    6.09
 -14   0   6  260.29    8.00
  14   0  -6  259.84    7.94
 -14   0   5   -0.14    0.55
  14   0  -5    0.03    0.89
 -14   0   5   -2.50    1.40
 -14   0   4 2038.19   31.56
 -14   0   4 2075.92   35.41
  14   0  -4 2156.28   35.58
 -14   0   3    0.58    0.37
 -14   0   3    1.67    1.21
  14   0  -3   -1.28    0.98
  14   0  -2  846.01   17.01
 -14   0   2  820.84   16.93
 -14   0   1    2.17    1.42
 -14   0   0    5.90    1.49
  14   0   1    1.52    1.14
 -14   0  -1    1.61    1.35
 -14   0  -2  899.83   18.33
  14   0   2  950.99   18.55
 -14   0  -3    2.32    1.51
  14   0   3    1.41    0.95
 -14   0  -4 1985.46   34.79
  14   0   4 2075.27   35.02
 -14   0  -5   -0.08    1.25
  14   0   5    1.61    1.08
 -14   0  -6  377.34   10.38
  14   0   6  415.89   10.67
 -14   0  -7   -0.72    1.23
  14   0   8  134.41    4.59
 -14   0  -8  140.57    5.91
  14   0   9    0.20    0.89
 -14   0  -9   -1.09    1.27
  14   0  10  504.04   11.50
 -14   0 -10  486.03   12.79
  14   0  11    0.35    1.19
 -14   0 -11    2.09    1.58
  14   0  12 1214.97   23.33
  14   0  13   -0.89    1.12
  14   0  14   68.94    4.40
  14   0  14   69.17    4.10
  14   0  15    0.35    1.08
  14   0  15    1.54    1.66
  14   0  16   39.36    3.16
  14   0  16   33.19    3.38
  14   0  17   -1.74    1.54
  14   0  18  280.92   10.57
 -14  -2  18  100.04    6.16
 -14   2  18   95.13    6.09
 -14  -2  17    1.01    1.44
 -14   2  17   -1.96    1.64
 -14  -2  16   92.38    5.55
 -14   2  16   95.85    5.73
 -14  -2  15    5.81    1.77
 -14  -2  14    2.92    1.43
 -14  -2  13   19.83    2.43
 -14  -2  12  182.64    6.74
 -14   2  12  183.47    7.03
 -14  -2  11    2.96    1.18
 -14   2  11    2.86    1.32
 -14  -2  10 1019.03   19.71
 -14   2  10 1050.41   20.82
 -14  -2   9   -0.50    0.80
 -14   2   9    1.43    1.36
 -14  -2   8  316.81    7.94
  14  -2  -8  341.07    9.35
 -14   2   8  323.40    9.23
 -14  -2   7    2.20    0.85
  14  -2  -7    3.49    1.14
 -14   2   7    3.26    1.28
 -14  -2   6   90.11    3.16
 -14   2   6   87.40    4.30
  14  -2  -6   91.21    4.38
 -14   2   5  164.37    5.94
  14  -2  -5  166.34    6.06
  14   2  -5  165.50    6.17
  14   2  -4 1762.92   30.43
 -14  -2   4 1686.64   30.29
 -14   2   4 1674.57   29.80
 -14   2   3   55.78    3.40
  14   2  -3   60.63    3.50
 -14  -2   3   54.09    3.44
 -14   2   2  622.98   13.84
  14   2  -2  649.15   14.09
 -14  -2   2  643.60   14.17
 -14  -2   1   11.93    1.91
 -14   2   1   10.46    1.64
  14  -2  -1   12.79    1.74
  14   2  -1   11.09    1.73
 -14  -2   0    1.91    1.16
 -14   2   0    2.64    1.38
  14  -2   0    4.25    1.56
  14   2   0    4.87    1.40
 -14   2  -1   45.04    1.59
 -14   2  -1   44.12    3.05
 -14  -2  -1   45.64    3.13
  14   2   1   45.30    2.95
  14  -2   1   49.34    3.17
 -14   2  -2  379.18    7.05
 -14  -2  -2  382.33    9.88
 -14   2  -2  373.66    9.95
  14  -2   2  404.22   10.19
 -14  -2  -3  133.63    5.34
 -14   2  -3  138.68    5.56
  14  -2   3  144.92    5.62
  14   2   4 1351.03   21.04
 -14   2  -4 1321.48   25.25
 -14  -2  -4 1343.32   24.92
  14   2   4 1419.11   25.15
  14  -2   4 1426.70   25.64
  14   2   5   34.60    1.66
 -14  -2  -5   31.53    2.68
 -14   2  -5   30.94    2.80
  14  -2   5   40.41    3.04
  14   2   5   33.59    2.65
  14   2   6  531.09   10.17
 -14  -2  -6  526.27   12.55
 -14   2  -6  535.25   12.98
  14   2   6  551.80   12.75
  14   2   7    4.28    0.96
 -14  -2  -7    2.85    1.38
 -14   2  -7    2.11    1.34
  14   2   7    1.66    0.94
  14   2   8   26.49    1.98
 -14  -2  -8   27.55    2.64
 -14   2  -8   29.31    2.87
  14   2   8   24.13    2.36
  14   2   9   69.70    3.36
 -14   2  -9   68.12    4.28
 -14  -2  -9   70.12    4.08
  14   2  10  592.81   12.85
 -14   2 -10  585.92   14.69
 -14  -2 -10  578.73   14.01
  14   2  11   85.13    4.21
 -14  -2 -11   81.82    4.58
  14   2  12  716.66   15.69
 -14  -2 -12  703.47   16.42
  14  -2  13    6.04    1.66
  14   2  13    3.81    1.56
  14   2  14   91.92    4.98
  14  -2  14  103.93    5.41
  14   2  14   98.67    4.51
  14  -2  15   -0.04    1.61
  14   2  15    1.23    1.45
  14   2  16   26.35    3.13
  14  -2  16   27.77    2.95
  14  -2  17   64.79    4.50
  14   2  17   68.48    4.89
  14   2  18  306.92   11.18
 -14  -4  16   41.49    4.08
 -14   4  15   19.08    2.34
 -14  -4  15   18.23    2.86
 -14   4  14   27.85    2.80
 -14  -4  14   21.23    3.13
 -14   4  13    1.04    1.26
 -14  -4  13    1.02    1.69
 -14  -4  12   96.42    5.53
 -14   4  12  105.41    5.01
 -14   4  11    2.69    1.31
 -14  -4  11    0.93    1.50
 -14   4  10  527.40   12.51
 -14  -4  10  508.72   13.68
 -14   4   9  133.80    5.41
  14  -4  -9  127.91    5.37
 -14  -4   9  138.62    6.25
  14  -4  -8  250.07    7.75
 -14   4   8  239.78    7.54
 -14  -4   8  240.69    8.35
  14  -4  -7    2.06    1.22
 -14   4   7    2.73    1.37
 -14   4   6   41.58    2.94
 -14   4   5  121.66    5.05
 -14   4   4 1255.11   23.20
  14   4  -3    3.47    1.31
 -14   4   3    0.77    1.10
 -14   4   2  948.95   18.79
  14  -4  -2  971.42   19.00
 -14  -4   2  915.48   19.10
  14   4  -2  994.93   19.30
 -14   4   1   58.96    3.53
  14   4  -1   68.23    3.72
  14  -4  -1   69.42    3.75
 -14  -4   1   64.32    3.75
  14   4   0  209.33    3.73
 -14   4   0  217.61    7.06
  14  -4   0  212.43    7.04
 -14  -4   0  215.87    7.04
  14   4   0  233.39    7.09
  14   4   1   14.86    1.83
 -14   4  -1   15.13    1.94
  14  -4   1   12.92    1.84
 -14  -4  -1   13.90    2.01
 -14   4  -2  509.77   12.37
  14   4   2  527.04   11.99
 -14  -4  -2  497.64   12.05
  14  -4   2  538.78   12.67
 -14   4  -3    7.86    1.02
 -14   4  -3    7.90    1.71
  14   4   3    7.72    1.35
 -14  -4  -3   10.65    1.75
  14  -4   3   12.12    1.81
 -14   4  -4 1246.45   21.63
 -14  -4  -4 1272.69   23.68
 -14   4  -4 1272.86   24.38
  14   4   4 1315.84   23.32
 -14   4  -5   91.50    3.57
 -14  -4  -5   88.50    4.34
 -14   4  -5   95.93    4.83
  14   4   5   93.90    4.13
 -14   4  -6  700.52   14.04
 -14   4  -6  705.53   16.16
 -14  -4  -6  717.66   15.37
  14   4   6  743.44   14.95
 -14  -4  -7  203.68    6.97
 -14   4  -7  206.21    7.69
  14   4   7  215.44    7.00
  14   4   7  212.49    6.55
 -14  -4  -8  321.22    9.23
 -14   4  -8  327.74   10.12
  14   4   8  350.40    9.43
  14   4   8  329.82    8.62
 -14   4  -9   69.42    4.51
 -14  -4  -9   68.41    3.94
  14   4   9   69.56    3.90
 -14  -4 -10  406.94   10.78
 -14  -4 -11    6.30    1.48
 -14  -4 -12  628.62   14.69
  14  -4  12  623.01   15.68
  14   4  13   68.96    4.29
  14  -4  13   68.44    4.59
  14   4  14  126.47    6.02
  14  -4  14  127.64    6.39
  14   4  15    0.73    1.51
  14  -4  15    0.97    1.53
  14   4  16  133.44    6.71
  14  -4  16  125.08    6.58
  14   4  17   10.95    2.30
  14  -4  17   15.22    2.51
  14   4  18  277.91   10.55
  14  -4  18  277.39   10.42
 -14  -6  16   31.41    3.70
 -14  -6  15   32.67    3.66
 -14  -6  14  122.49    6.75
 -14  -6  13    1.51    1.53
 -14   6  13    1.78    1.27
 -14   6  12  123.64    5.20
 -14  -6  12  128.72    6.64
 -14  -6  11   23.65    3.04
 -14   6  11   19.62    2.17
 -14   6  10  463.04   11.09
  14  -6 -10  427.92   11.22
 -14  -6  10  442.72   12.91
 -14   6   9  161.94    5.90
 -14  -6   9  159.46    7.07
  14  -6  -9  155.38    6.06
 -14   6   8  109.16    4.71
  14  -6  -8  105.27    4.88
 -14  -6   8  109.00    5.64
 -14   6   7  148.74    5.58
 -14  -6   7  138.43    6.34
 -14   6   6  108.51    4.85
 -14  -6   6  109.74    5.52
 -14   6   5   38.46    2.83
 -14  -6   5   42.81    3.43
  14   6  -4  625.13   12.02
 -14   6   4  642.94   13.94
 -14  -6   4  625.13   14.78
  14   6  -3   41.98    2.10
 -14   6   3   47.89    3.16
  14  -6  -3   43.75    3.01
  14   6  -2  788.65   13.84
 -14   6   2  777.53   16.36
  14  -6  -2  800.70   16.58
  14   6  -1  362.66    9.88
  14   6  -1  359.05    7.32
 -14   6   1  359.64    9.67
 -14  -6   1  348.21    9.84
  14  -6  -1  368.82    9.81
  14   6   0  215.00    7.10
 -14   6   0  214.66    7.18
  14  -6   0  210.73    7.09
 -14  -6   0  205.27    7.07
  14   6   1   17.46    2.03
 -14   6  -1   15.58    2.16
 -14  -6  -1   14.33    2.12
  14  -6   1   17.45    2.15
 -14   6  -2  259.32    8.20
  14   6   2  262.17    7.76
 -14  -6  -2  252.37    7.84
  14   6   3    2.89    1.06
 -14   6  -3    0.01    1.25
 -14  -6  -3    0.31    1.16
 -14   6  -4  350.23    8.77
 -14  -6  -4  350.96    9.58
 -14   6  -4  366.97   10.38
  14   6   4  371.29    9.36
  14   6   5    1.77    1.00
 -14   6  -5   -0.06    0.93
 -14   6  -5    3.18    1.81
 -14  -6  -5    0.30    1.18
 -14   6  -6  282.32    7.95
 -14  -6  -6  283.17    8.31
 -14   6  -6  295.23    9.42
  14   6   6  284.80    7.84
  14   6   7    2.88    1.09
 -14   6  -7    3.75    1.17
 -14   6  -7   -0.09    1.42
 -14  -6  -7    2.34    1.31
 -14   6  -8  170.85    6.17
 -14  -6  -8  158.62    5.98
  14   6   8  162.28    5.47
 -14  -6  -9  139.65    5.57
  14   6   9  126.15    4.69
 -14  -6 -10   95.91    4.57
  14   6  10   95.03    3.95
  14  -6  11  222.37    8.63
 -14  -6 -11  211.11    7.16
  14  -6  12  264.66    9.83
 -14  -6 -12  279.86    8.43
  14  -6  13   20.83    3.04
  14  -6  14  163.18    7.80
  14  -6  15    9.15    2.40
  14  -6  16   54.93    4.68
  14  -6  17   25.28    3.15
  14   6  17   26.41    3.30
 -14  -8  14   59.98    4.98
 -14  -8  13   18.79    2.95
 -14  -8  12  168.29    8.04
 -14   8  11  113.58    4.65
 -14  -8  11  107.27    6.32
 -14   8  10  175.99    5.95
 -14  -8  10  169.79    7.84
 -14   8   9   20.79    2.07
 -14  -8   9   18.85    2.75
 -14   8   8  143.79    5.41
 -14  -8   8  145.10    6.91
  14   8  -7   16.39    1.84
 -14   8   7   19.14    2.05
 -14  -8   7   15.75    2.50
  14   8  -6   72.28    3.63
 -14   8   6   81.91    4.04
 -14  -8   6   81.51    4.96
  14   8  -5  212.70    6.40
 -14   8   5  212.69    6.98
 -14  -8   5  224.63    8.27
  14   8  -4  495.52   10.93
 -14   8   4  507.62   12.06
  14  -8  -4  500.59   12.00
 -14  -8   4  505.71   13.27
  14   8  -3    5.81    1.07
 -14   8   3    5.94    1.56
  14  -8  -3    8.01    1.52
 -14  -8   3    4.32    1.62
  14   8  -2  381.06    8.75
 -14   8   2  372.03   10.06
 -14  -8   2  363.49   10.61
  14  -8  -2  382.58   10.22
 -14   8   1  146.37    5.82
  14  -8  -1  148.05    5.90
 -14   8   0  270.14    8.44
 -14  -8   0  267.49    8.52
 -14   8  -1   13.58    2.08
 -14  -8  -1   16.21    2.24
  14   8   2  178.03    6.39
 -14   8  -2  173.68    6.78
 -14  -8  -2  170.82    6.41
  14   8   3  106.15    4.74
 -14   8  -3   99.76    5.16
 -14  -8  -3   98.76    4.74
  14   8   4  154.90    5.69
 -14   8  -4  145.42    6.40
 -14  -8  -4  154.80    5.97
  14   8   5   27.71    2.33
 -14   8  -5   35.55    2.75
 -14   8  -5   34.95    3.26
 -14  -8  -5   33.15    2.76
  14   8   6  375.48    9.52
 -14  -8  -6  378.23    9.96
  14   8   7   19.61    1.93
 -14  -8  -7   21.94    2.29
  14   8   8   40.11    2.62
 -14  -8  -8   39.04    2.93
  14  -8   9   29.28    3.36
 -14  -8  -9   25.19    2.29
  14  -8  10  132.15    6.93
 -14  -8 -10  142.37    5.46
  14  -8  11    1.40    1.74
 -14  -8 -11   -0.57    0.90
  14  -8  12  462.51   14.17
  14  -8  13   45.35    4.33
  14  -8  14  191.43    8.91
  14  -8  15   43.78    4.28
 -14 -10  12   56.02    4.91
 -14 -10  11   26.12    3.50
 -14 -10  10  129.31    7.09
 -14  10   9   43.28    2.79
 -14 -10   9   43.27    4.23
 -14  10   8  113.99    4.61
 -14 -10   8  109.21    6.25
 -14  10   7   19.69    2.08
 -14 -10   7   17.73    2.93
 -14  10   6  273.16    7.91
 -14 -10   6  260.47    9.69
  14  10  -5  110.88    4.90
 -14  10   5  117.75    5.02
 -14 -10   5  115.92    6.11
  14  10  -4  174.94    6.20
 -14  10   4  189.18    6.62
  14 -10  -4  191.51    6.68
 -14 -10   4  190.10    7.77
  14  10  -3  106.35    4.59
 -14  10   3  112.47    5.10
  14 -10  -3  106.79    5.00
 -14 -10   3  102.60    5.56
 -14  10   2  231.21    7.68
 -14 -10   2  221.42    8.23
 -14  10   1  191.45    6.98
 -14 -10   1  179.33    7.25
 -14  10   0  139.30    6.03
 -14 -10   0  139.44    6.17
 -14  10  -1   74.62    4.48
 -14 -10  -1   74.60    4.36
 -14  10  -2  125.63    5.94
 -14 -10  -2  131.94    5.77
 -14 -10  -3  106.02    5.03
  14  10   4  136.99    5.56
 -14 -10  -4  143.86    5.86
  14  10   5   -0.21    0.93
 -14 -10  -5    0.11    1.11
  14  10   6   66.40    3.65
 -14 -10  -6   73.20    3.94
  14 -10   7   17.71    2.82
 -14 -10  -7   19.85    2.17
  14 -10   8  112.55    6.45
 -14 -10  -8  108.74    4.75
  14 -10   9  121.16    6.85
 -14 -10  -9  120.37    4.88
  14 -10  10   53.48    4.81
  14 -10  11   23.27    3.33
  14 -10  12  157.59    8.27
 -14 -12   9   66.61    5.23
 -14 -12   8  272.14   10.64
 -14 -12   7   17.27    2.95
 -14 -12   6  289.18   10.70
 -14 -12   5   78.44    5.35
 -14 -12   4  179.26    7.95
 -14 -12   3   52.77    4.26
 -14 -12   2   72.32    4.83
 -14 -12   1  175.91    7.48
 -14 -12   0  210.10    8.15
 -14 -12  -1   75.33    4.57
 -14 -12  -1   74.04    4.62
 -14 -12  -2  222.93    7.93
  14 -12   3   25.48    3.25
 -14 -12  -3   24.12    2.72
  14 -12   4   74.86    5.19
 -14 -12  -4   68.25    4.05
  14 -12   5   89.11    5.79
 -14 -12  -5   88.43    4.46
  14 -12   6  184.86    8.58
 -14 -12  -6  182.66    6.49
  14 -12   7   63.80    5.12
  14 -12   8  331.97   12.11
  14 -12   9    6.98    2.07
  14 -14  -6  189.39    7.67
 -14 -14   6  188.83    8.85
  14 -14  -5   92.76    5.38
 -14 -14   5   89.75    5.96
  14 -14  -4   74.99    4.90
 -14 -14   4   70.87    5.16
  14 -14  -3   -0.94    1.61
 -14 -14   3    0.57    1.48
  14 -14  -2   47.03    4.05
 -14 -14   2   48.91    4.19
  14 -14  -1    7.94    2.29
 -14 -14   1   14.21    2.59
  14 -14   0  290.96   10.55
 -14 -14   0  272.24    9.90
  14 -14   1   19.72    2.84
 -14 -14  -1   15.65    2.49
 -14 -14  -1   18.32    2.52
  14 -14   2  200.75    8.83
 -14 -14  -2  209.57    7.85
  14 -14   3   10.28    2.38
 -14 -14  -3    9.53    1.83
  14 -14   4    8.35    2.57
  14 -14   5   43.53    4.34
  14 -16  -4   32.34    3.51
  14 -16  -3    3.56    1.84
  14 -16  -2   88.93    5.72
 -14 -16   2   80.30    5.62
  14 -16  -1   11.31    2.44
 -14 -16   1   15.99    2.91
  14 -16   0  229.44    9.81
 -14 -16   0  237.61    9.51
 -14 -16  -1    1.27    1.62
 -15   1  18    2.92    1.89
 -15  -1  18    4.51    1.74
 -15   1  17   18.53    2.80
 -15  -1  17   19.25    2.87
 -15   1  16   12.91    2.33
 -15  -1  16   12.57    2.39
 -15   1  15   23.53    2.96
 -15  -1  15   22.63    2.80
 -15  -1  14    7.11    1.94
 -15   1  14    8.90    1.89
 -15  -1  13   37.29    3.15
 -15   1  13   32.10    3.01
 -15  -1  12   16.45    2.09
 -15  -1  11   24.55    2.39
 -15   1  11   22.76    2.76
 -15  -1  10   11.71    1.67
 -15   1  10   13.04    2.15
 -15  -1   9    4.07    1.12
 -15   1   9    1.21    1.40
 -15  -1   8  202.35    5.89
 -15   1   8  206.20    7.27
 -15  -1   7   24.47    1.80
 -15   1   7   24.44    2.58
 -15  -1   6    3.16    0.80
 -15   1   6    5.09    1.63
 -15  -1   6    3.67    1.63
 -15  -1   5   29.40    1.54
 -15   1   5   28.70    2.68
 -15  -1   5   28.71    2.81
  15  -1  -5   31.29    2.70
  15   1  -4   45.36    3.17
 -15   1   4   38.67    2.96
  15  -1  -4   42.17    3.02
 -15  -1   4   43.91    3.24
  15   1  -3  358.28    9.81
 -15   1   3  362.76    9.80
 -15  -1   3  360.36    9.89
 -15   1   2   58.05    3.59
 -15  -1   2   56.14    3.59
  15   1  -2   64.63    3.67
 -15  -1   1   39.11    3.05
 -15   1   1   36.15    2.93
  15   1  -1   37.36    2.83
 -15   1   0   44.59    3.16
  15  -1   0   41.42    3.01
 -15  -1   0   39.03    3.01
 -15   1  -1  632.52   14.27
 -15  -1  -1  613.04   14.16
  15  -1   1  666.89   14.52
 -15   1  -2   18.08    2.23
  15  -1   2   20.92    2.21
 -15  -1  -2   19.40    2.31
 -15   1  -3   21.46    2.39
  15  -1   3   24.92    2.41
 -15  -1  -3   20.10    2.34
  15   1   3   21.32    2.22
 -15  -1  -4   23.09    2.46
 -15   1  -4   24.62    2.58
  15  -1   4   25.67    2.47
  15   1   4   21.33    2.26
 -15   1  -5    2.14    1.39
 -15  -1  -5    1.98    1.39
  15   1   5    3.26    1.26
 -15  -1  -6   54.10    3.62
 -15   1  -6   49.79    3.56
  15   1   7  429.59    8.99
 -15  -1  -7  426.90   11.39
 -15   1  -7  421.40   11.57
  15   1   8    4.59    1.02
 -15   1  -8    5.22    1.75
 -15  -1  -8    5.72    1.67
  15   1   9  181.33    5.63
 -15   1  -9  169.42    6.94
 -15  -1  -9  154.93    6.53
  15   1  10    0.88    1.10
 -15   1 -10    0.56    1.57
 -15  -1 -10   -0.21    1.31
  15   1  11   11.00    1.75
 -15   1 -11   14.18    2.40
 -15  -1 -11   14.24    2.37
  15   1  12   38.65    3.01
 -15  -1 -12   38.19    3.45
  15   1  13    1.17    1.19
  15   1  14   70.44    4.39
  15  -1  14   67.11    4.47
  15   1  14   77.32    4.30
  15   1  15  144.43    6.62
  15  -1  15  153.40    6.96
  15  -1  15  150.05    6.62
  15   1  15  156.20    6.28
  15   1  16    4.37    1.70
  15  -1  16    1.56    1.33
  15   1  17   76.64    5.11
  15   1  18   10.54    2.45
 -15  -3  18    2.40    1.80
 -15  -3  17   35.03    3.69
 -15  -3  16    3.94    1.67
 -15   3  16    4.38    1.67
 -15  -3  15   22.74    2.90
 -15   3  15   22.62    2.79
 -15  -3  14   13.17    2.36
 -15   3  14   13.57    2.29
 -15  -3  13   22.49    2.56
 -15   3  13   18.46    2.50
 -15  -3  12   20.00    2.34
 -15   3  12   20.18    2.51
 -15  -3  11   43.53    3.09
 -15   3  11   40.67    3.31
 -15  -3  10   21.88    2.14
 -15   3  10   19.71    2.38
 -15   3   9   32.89    2.86
 -15   3   8   38.52    3.02
 -15   3   7  117.80    5.20
 -15   3   6    0.87    1.44
 -15   3   5   15.73    2.10
 -15  -3   4    4.38    1.70
 -15   3   4    1.61    1.45
 -15   3   3  285.58    8.37
 -15  -3   3  270.30    8.53
 -15   3   2  110.48    4.95
  15   3  -2  116.62    5.07
 -15  -3   2  112.66    5.14
  15   3  -1    1.40    1.15
 -15  -3   1   -2.06    1.52
 -15   3   1    0.04    1.41
  15  -3  -1    0.53    0.96
 -15   3   0    3.92    1.56
 -15  -3   0    0.74    1.34
  15  -3   0    3.98    1.33
  15   3   0    4.66    1.33
 -15   3  -1  481.21   12.04
 -15  -3  -1  492.73   12.08
  15  -3   1  511.86   12.31
  15   3   1  502.26   11.94
 -15   3  -2   39.08    1.84
 -15  -3  -2   41.71    3.08
 -15   3  -2   41.60    3.22
  15  -3   2   45.55    3.28
  15   3   2   50.36    3.20
 -15   3  -3   95.57    3.15
 -15   3  -3   96.04    4.82
 -15  -3  -3  104.87    4.79
  15   3   3  110.20    4.71
 -15   3  -4   66.23    2.67
  15   3   4   70.16    2.06
 -15   3  -4   68.03    4.10
 -15  -3  -4   66.46    3.91
  15   3   4   73.58    3.83
  15   3   5  204.81    4.69
 -15  -3  -5  195.32    6.96
 -15   3  -5  208.98    7.40
  15   3   6   77.62    2.85
 -15  -3  -6   72.72    4.14
 -15   3  -6   78.30    4.43
  15   3   6   78.09    4.18
  15   3   7  114.84    3.87
 -15  -3  -7  115.43    5.26
 -15   3  -7  121.17    5.75
  15   3   8  135.05    4.53
 -15  -3  -8  125.90    5.61
 -15   3  -8  134.56    6.23
  15   3   9   45.48    2.73
 -15   3  -9   42.04    3.64
 -15  -3  -9   48.01    3.47
  15   3  10   31.32    2.49
 -15  -3 -10   30.06    2.86
 -15   3 -10   35.50    3.40
  15   3  11    1.40    1.11
 -15  -3 -11    0.48    1.25
  15   3  12    4.65    1.54
 -15  -3 -12    5.80    1.80
  15  -3  13    4.41    1.58
  15   3  13    5.55    1.60
 -15  -3 -13    3.24    1.41
  15  -3  14    2.95    1.65
  15   3  14    1.95    1.40
  15   3  15   95.92    5.37
  15  -3  15   89.35    5.41
  15   3  16   18.46    2.70
  15  -3  16   28.46    3.22
  15  -3  17   54.48    4.29
  15   3  17   50.93    4.26
  15   3  18   12.85    2.63
 -15  -5  16   26.12    3.36
 -15  -5  15    2.92    1.84
 -15   5  14    0.67    1.29
 -15  -5  14    2.00    1.62
 -15   5  13    1.62    1.11
 -15  -5  13    4.98    2.11
 -15   5  12   37.17    3.12
 -15  -5  12   37.99    3.74
 -15   5  11  166.44    6.35
 -15  -5  11  147.77    7.14
 -15   5  10   85.08    4.43
 -15  -5  10   87.61    5.30
 -15   5   9  141.26    5.74
 -15  -5   9  139.59    6.57
 -15  -5   8   30.14    3.18
 -15   5   8   29.85    2.61
 -15   5   7    1.52    1.17
 -15   5   6   46.55    3.22
 -15   5   5   13.08    1.91
 -15   5   4   58.75    3.59
 -15   5   3  191.09    6.68
 -15   5   2   84.63    4.36
  15  -5  -2   83.50    4.29
 -15  -5   2   87.97    4.65
  15   5  -1   21.73    1.08
 -15   5   1   23.41    2.47
  15  -5  -1   24.72    2.48
 -15  -5   1   17.24    2.26
  15   5   0  137.30    3.03
 -15   5   0  120.76    5.37
  15   5   0  132.92    5.48
  15  -5   0  135.85    5.66
 -15  -5   0  121.96    5.47
 -15   5  -1  233.68    7.84
  15   5   1  255.27    7.80
 -15  -5  -1  244.73    7.87
 -15   5  -2  226.39    7.67
  15   5   2  230.98    7.28
 -15  -5  -2  210.52    7.28
  15   5   3    5.01    1.42
 -15   5  -3    4.11    0.95
 -15   5  -3    2.37    1.44
 -15  -5  -3    4.22    1.51
  15   5   4    6.89    1.40
 -15   5  -4    7.60    1.16
 -15   5  -4    7.36    1.90
 -15  -5  -4    8.89    1.82
 -15   5  -5   50.63    2.80
 -15   5  -5   53.62    3.84
 -15  -5  -5   49.57    3.38
  15   5   5   55.45    3.28
 -15   5  -6  246.60    7.05
 -15  -5  -6  251.87    7.96
 -15   5  -6  263.12    8.86
  15   5   6  247.45    7.42
 -15   5  -7  104.44    4.40
 -15   5  -7  108.71    5.65
 -15  -5  -7  103.08    4.95
  15   5   7  111.50    4.63
 -15  -5  -8   -0.73    1.26
 -15   5  -8   -0.03    1.55
  15   5   8   -0.16    0.84
 -15  -5  -9  397.98   10.75
 -15   5  -9  394.67   12.03
  15   5   9  400.50    9.88
 -15  -5 -10   -0.05    1.19
  15   5  10    2.12    1.00
 -15  -5 -11  120.35    5.49
  15  -5  12   37.55    3.63
 -15  -5 -12   37.73    3.10
  15  -5  13  198.02    8.31
 -15  -5 -13  205.51    7.49
  15  -5  14    3.32    1.78
  15   5  14    1.67    1.37
  15   5  15  101.16    5.65
  15  -5  15   98.85    6.08
  15   5  16   -1.45    1.61
  15  -5  16    2.27    1.60
  15  -5  17   73.59    5.40
  15   5  17   71.73    5.10
 -15  -7  15    6.31    1.99
 -15  -7  14   -1.12    1.72
 -15  -7  13   23.69    3.27
 -15  -7  12   23.15    3.29
 -15   7  12   23.08    2.33
 -15  -7  11   -0.24    1.71
 -15   7  11    3.45    1.22
 -15  -7  10   18.77    2.90
 -15   7  10   20.17    2.16
 -15   7   9   43.14    3.10
 -15  -7   9   40.35    3.78
 -15   7   8   98.85    4.63
 -15  -7   8   98.00    5.66
 -15   7   7   54.55    3.45
 -15  -7   7   55.31    4.24
 -15   7   6  164.82    6.16
 -15  -7   6  172.26    7.33
 -15   7   5   83.02    4.30
 -15  -7   5   87.81    5.07
  15   7  -4  200.15    5.58
 -15   7   4  204.54    6.97
 -15  -7   4  197.94    7.61
  15   7  -3    0.19    0.76
 -15   7   3   -0.67    1.27
  15  -7  -3    2.56    1.29
  15   7  -2  277.03    6.48
 -15   7   2  280.64    8.53
  15  -7  -2  263.92    8.37
  15   7  -1    2.81    0.72
 -15   7   1    2.51    1.38
 -15  -7   1    3.91    1.58
 -15   7   0   63.03    3.90
 -15  -7   0   67.08    4.10
 -15   7  -1  185.84    6.97
 -15  -7  -1  189.37    6.98
 -15   7  -2  117.54    5.51
 -15  -7  -2  118.27    5.33
  15   7   3    7.30    1.50
 -15   7  -3    7.73    1.91
 -15  -7  -3    9.13    1.83
  15   7   4   22.73    2.25
 -15   7  -4   18.56    1.98
 -15   7  -4   23.04    2.73
 -15  -7  -4   24.61    2.50
  15   7   5    0.72    0.92
 -15   7  -5    1.57    1.00
 -15   7  -5   -4.43    1.84
 -15  -7  -5    3.49    1.59
  15   7   6  201.56    6.61
 -15   7  -6  206.01    6.85
 -15  -7  -6  203.19    7.09
 -15   7  -6  212.13    8.16
 -15   7  -7   52.71    3.44
 -15   7  -7   58.02    4.33
 -15  -7  -7   57.54    3.65
  15   7   7   55.63    3.27
  15   7   8    6.47    1.32
 -15  -7  -8    7.22    1.65
 -15  -7  -9   58.61    3.63
 -15  -7 -10  331.07    9.44
  15  -7  11  243.79    9.50
 -15  -7 -11  235.10    7.75
  15  -7  12    1.94    1.69
 -15  -7 -12    2.16    1.31
  15  -7  13   31.61    3.63
  15  -7  14   -1.62    1.65
  15  -7  15   44.27    4.42
 -15  -9  12   10.90    2.58
 -15  -9  11    3.79    1.95
 -15   9  10   22.82    2.22
 -15  -9  10   22.60    3.08
 -15   9   9   28.23    2.40
 -15  -9   9   28.97    3.53
 -15   9   8  109.33    4.81
 -15  -9   8  101.89    6.04
  15   9  -7   12.82    1.93
 -15   9   7   16.45    2.00
 -15  -9   7   16.19    2.62
  15   9  -6    3.21    1.29
 -15   9   6    4.44    1.43
 -15  -9   6    2.08    1.75
  15   9  -5   10.67    1.41
 -15   9   5   19.58    2.32
 -15  -9   5   14.22    2.45
  15   9  -4   53.79    3.06
 -15   9   4   53.20    3.53
 -15  -9   4   53.68    4.13
  15   9  -3   35.87    2.48
 -15   9   3   39.29    3.14
 -15  -9   3   38.11    3.48
  15   9  -2  292.82    7.62
 -15   9   2  287.95    8.88
 -15  -9   2  283.88    9.45
 -15   9   1   93.78    4.84
 -15   9   0  316.82    9.68
 -15  -9   0  316.81    9.77
 -15   9  -1    9.09    1.90
 -15  -9  -1   11.41    2.05
 -15   9  -2   14.22    2.30
 -15  -9  -2   16.62    2.19
 -15   9  -3   10.55    2.11
 -15  -9  -3   10.98    1.89
 -15   9  -4   52.38    4.09
 -15  -9  -4   44.77    3.37
  15   9   5   64.03    3.68
 -15  -9  -5   55.05    3.64
  15   9   6  293.08    8.41
 -15  -9  -6  284.42    8.67
 -15  -9  -7   60.91    3.74
 -15  -9  -8    4.55    1.31
  15  -9   9    9.99    2.50
 -15  -9  -9    4.72    1.22
  15  -9  10   37.89    4.02
 -15  -9 -10   38.17    2.87
  15  -9  11   98.98    6.20
  15  -9  12    7.26    2.14
  15  -9  13   28.22    3.68
 -15 -11  10    2.69    1.93
 -15 -11   9    8.77    2.32
 -15 -11   8   67.09    5.14
 -15  11   7   29.02    2.57
 -15 -11   7   28.60    3.55
 -15  11   6   -0.59    1.11
 -15 -11   6   -0.81    1.67
 -15  11   5    8.78    1.64
 -15 -11   5   10.43    2.25
 -15  11   4   63.05    3.85
 -15 -11   4   68.88    4.85
 -15  11   3    1.43    1.16
 -15 -11   3   -0.76    1.63
 -15  11   2    2.65    1.40
 -15 -11   2    2.81    1.67
 -15  11   1   16.30    2.41
 -15 -11   1   15.68    2.38
 -15  11   0   43.17    3.54
 -15 -11   0   47.15    3.77
 -15 -11  -1   59.06    4.07
 -15 -11  -2   74.53    4.49
 -15 -11  -3  115.46    5.49
 -15 -11  -4    9.63    1.79
 -15 -11  -5  227.41    7.76
  15 -11   6   58.59    4.72
 -15 -11  -6   57.24    3.63
  15 -11   7   11.42    2.23
 -15 -11  -7   18.09    2.14
  15 -11   8   30.54    3.78
  15 -11   9   95.59    6.27
  15 -11  10   19.53    3.20
 -15 -13   7   23.86    3.40
 -15 -13   6    0.50    1.78
 -15 -13   5   16.53    2.76
 -15 -13   4   76.22    5.32
 -15 -13   3   76.77    5.32
 -15 -13   2    7.51    2.30
 -15 -13   1   34.48    3.56
 -15 -13   0    5.99    2.10
 -15 -13   0   12.36    2.27
  15 -13   1    1.52    1.66
 -15 -13  -1    3.51    1.81
  15 -13   2   23.65    3.24
 -15 -13  -2   24.13    2.89
  15 -13   3   43.82    4.30
 -15 -13  -3   36.89    3.29
  15 -13   4    1.13    1.61
 -15 -13  -4    5.20    1.58
  15 -13   5   57.75    4.94
  15 -13   6    8.69    2.50
  15 -15  -5    4.00    1.67
  15 -15  -4   35.97    3.67
  15 -15  -3   36.56    3.79
 -15 -15   3   39.74    4.03
  15 -15  -2   -0.17    1.67
 -15 -15   2    3.82    1.85
  15 -15  -1   19.98    2.81
 -15 -15   1   16.05    2.66
  15 -15   0   22.08    3.13
 -15 -15   0   19.49    2.89
 -15 -15   0   24.45    3.10
  15 -15   1   22.05    3.15
 -15 -15  -1   15.14    2.40
 -16   0  18    8.48    2.29
 -16   0  17    1.63    1.64
 -16   0  16    4.78    1.82
 -16   0  15    0.03    1.35
 -16   0  14  403.75   11.64
 -16   0  13    0.40    1.10
 -16   0  12   38.45    3.06
 -16   0  11   -0.03    0.91
 -16   0  10   13.26    1.75
 -16   0  10   10.14    2.04
 -16   0   9    0.27    0.87
 -16   0   9   -0.34    1.38
 -16   0   8  214.81    6.05
 -16   0   8  203.07    7.60
 -16   0   7    1.10    0.78
 -16   0   7   -0.13    1.32
 -16   0   6  594.74   11.17
 -16   0   6  589.67   14.17
 -16   0   5    0.47    0.56
 -16   0   5    0.38    1.37
 -16   0   4    9.31    0.78
 -16   0   4    9.45    1.89
 -16   0   3   -1.95    1.34
 -16   0   2   29.78    2.80
 -16   0   1   -0.78    1.37
 -16   0   0   11.33    2.08
 -16   0  -1   -0.25    1.33
 -16   0  -2  413.91   10.95
 -16   0  -3    2.60    1.69
 -16   0  -4   32.69    2.94
 -16   0  -5    1.03    1.39
 -16   0  -6   48.45    3.61
 -16   0  -7    1.42    1.30
 -16   0  -8  142.78    6.31
 -16   0  -9   -1.05    2.01
 -16   0 -10    3.17    1.60
  16   0  11    0.55    1.14
 -16   0 -11   -0.99    1.34
  16   0  12    1.07    1.10
 -16   0 -12   -0.69    1.63
  16   0  13    0.05    1.17
  16   0  14   10.68    1.95
  16   0  15   -0.26    1.15
  16   0  15   -0.19    1.31
  16   0  16   19.40    2.69
  16   0  17    1.65    1.72
  16   0  18   14.51    2.72
 -16   2  18   12.98    2.78
 -16  -2  18   10.66    2.65
 -16   2  17    4.62    1.86
 -16  -2  17    3.30    1.88
 -16   2  17    9.99    2.13
 -16   2  16  160.04    7.51
 -16  -2  16  156.91    7.29
 -16   2  16  165.73    7.43
 -16  -2  15    1.33    1.39
 -16   2  15    1.29    1.58
 -16   2  15    3.03    1.73
 -16  -2  14  760.15   17.55
 -16   2  14  776.74   18.17
 -16  -2  13   59.86    3.93
 -16   2  13   54.07    4.05
 -16  -2  12  469.05   11.82
 -16   2  12  468.70   12.76
 -16  -2  11   20.30    2.15
 -16   2  11   20.86    2.58
 -16  -2  10   97.21    4.30
 -16   2  10   99.43    5.20
 -16  -2   9   69.53    3.43
 -16   2   9   66.10    4.15
 -16  -2   8 1179.60   20.50
 -16   2   8 1118.05   22.85
 -16   2   7   14.47    2.16
 -16  -2   6 1357.23   26.54
 -16   2   6 1391.60   26.03
 -16  -2   5    0.41    1.33
 -16   2   5    3.93    1.51
 -16   2   4  418.80   11.12
 -16  -2   4  439.73   11.61
 -16   2   3  123.03    5.41
 -16  -2   3  120.60    5.52
 -16   2   2  394.89   10.59
 -16  -2   2  401.05   10.85
 -16   2   1   78.68    4.32
 -16  -2   1   87.52    4.61
 -16   2   0  886.94   13.86
 -16   2   0  879.86   18.49
 -16  -2   0  883.91   18.53
  16   2   0  913.46   18.56
 -16   2  -1   26.87    1.09
 -16   2  -1   24.95    2.60
  16   2   1   31.55    2.70
 -16  -2  -1   25.70    2.63
 -16   2  -2  725.57   16.24
 -16  -2  -2  710.28   16.04
  16   2   2  762.61   16.07
 -16   2  -3  464.38   11.93
 -16  -2  -3  447.23   11.68
 -16  -2  -4  673.51   15.33
 -16   2  -4  670.94   15.59
 -16  -2  -5    8.12    1.84
 -16   2  -5    5.48    1.65
  16   2   6  193.49    4.69
 -16  -2  -6  175.24    6.85
 -16   2  -6  189.27    7.27
  16   2   7   42.14    2.16
 -16  -2  -7   45.25    3.48
 -16   2  -7   39.44    3.40
  16   2   8  462.08    9.74
 -16   2  -8  428.88   12.33
 -16  -2  -8  447.19   12.02
  16   2   9  117.26    4.38
 -16   2  -9  113.57    5.85
 -16  -2  -9  109.62    5.51
  16   2  10   53.83    3.10
 -16   2 -10   48.75    3.99
 -16  -2 -10   51.89    3.84
  16   2  11   16.52    1.96
 -16   2 -11   14.76    2.48
 -16  -2 -11   17.01    2.53
  16   2  12   55.84    3.52
 -16  -2 -12   51.40    3.90
  16   2  13    2.71    1.27
 -16  -2 -13    1.42    1.45
  16  -2  14  176.17    7.53
  16   2  14  176.66    6.99
  16  -2  15   31.18    3.21
  16   2  15   31.83    3.26
  16  -2  16   38.09    3.62
  16   2  16   40.40    3.77
  16   2  17   20.32    3.00
 -16   4  15    0.93    1.30
 -16   4  14  435.01   12.12
 -16   4  13    1.44    1.38
 -16   4  12  160.42    6.60
 -16   4  11   10.82    1.91
 -16   4  10   57.86    3.86
 -16   4   9   78.52    4.41
 -16   4   8  493.07   12.45
 -16   4   7  144.63    6.00
 -16   4   6  496.66   12.38
 -16   4   5  303.59    9.04
 -16   4   4  439.76   11.37
 -16  -4   4  449.70   12.10
 -16   4   3    5.11    1.50
 -16  -4   3    4.85    1.75
 -16   4   2  285.77    8.75
 -16  -4   2  301.95    9.23
 -16   4   1   22.47    2.56
 -16  -4   1   23.36    2.67
 -16   4   0  476.48   12.17
 -16  -4   0  479.08   12.22
 -16   4  -1    2.75    1.58
 -16  -4  -1    2.64    1.59
 -16   4  -2  334.34    7.41
 -16   4  -2  344.73   10.01
 -16  -4  -2  343.62    9.81
  16   4   2  360.00    9.72
  16   4   3   48.29    1.32
 -16   4  -3   44.98    2.30
 -16   4  -3   47.40    3.55
 -16  -4  -3   52.15    3.58
  16   4   3   57.76    3.48
  16   4   4   25.01    1.22
 -16   4  -4   25.57    1.77
 -16   4  -4   26.78    2.84
 -16  -4  -4   25.16    2.58
  16   4   4   25.32    2.37
 -16   4  -5   87.41    3.48
 -16  -4  -5   89.08    4.59
 -16   4  -5   89.39    4.97
  16   4   5   87.38    4.32
 -16   4  -6  116.12    5.74
 -16  -4  -6  110.62    5.29
  16   4   6  120.74    5.07
 -16  -4  -7  500.62   12.88
 -16   4  -7  514.54   13.87
  16   4   7  544.33   12.54
  16   4   8    4.32    1.15
 -16  -4  -8    4.76    1.56
 -16   4  -8    3.86    1.76
  16   4   8    4.71    1.32
  16   4   9   33.40    2.46
 -16  -4  -9   29.02    2.81
 -16   4  -9   26.98    3.13
  16   4   9   26.38    2.40
  16   4  10   50.61    3.06
 -16   4 -10   42.17    3.81
 -16  -4 -10   43.07    3.37
  16   4  10   43.62    3.09
  16   4  11  160.62    5.93
 -16  -4 -11  156.18    6.57
  16   4  12    1.04    1.06
 -16  -4 -12    4.33    1.57
  16  -4  13    0.50    1.53
  16   4  13   -0.18    1.18
 -16  -4 -13    4.30    1.57
  16   4  14  178.37    7.15
  16  -4  14  163.45    7.68
  16  -4  15    0.98    1.56
  16   4  15    1.41    1.62
  16   4  16   26.79    3.09
  16  -4  16   29.12    3.38
  16  -4  17    3.01    1.84
  16   4  17    0.81    1.46
 -16  -6  15    7.14    2.23
 -16  -6  14  106.17    6.59
 -16   6  13   48.81    3.50
 -16  -6  13   46.32    4.32
 -16   6  12  231.17    7.85
 -16  -6  12  218.25    9.29
 -16   6  11   65.88    4.05
 -16  -6  11   65.98    4.94
 -16   6  10   77.71    4.29
 -16  -6  10   75.84    5.13
 -16   6   9   60.55    3.81
 -16  -6   9   62.71    4.65
 -16   6   8  173.39    6.52
 -16  -6   8  173.58    7.58
 -16   6   7    1.42    1.24
 -16   6   6  347.88    9.80
 -16   6   5  125.52    5.49
 -16   6   4  191.02    6.98
 -16   6   3   24.23    2.56
  16   6  -2  262.04    5.56
 -16   6   2  243.44    8.11
 -16  -6   2  248.30    8.56
  16   6  -1   50.99    1.91
 -16   6   1   47.99    3.50
 -16  -6   1   53.79    3.78
  16   6   0  246.66    5.07
 -16   6   0  232.84    8.05
 -16  -6   0  232.09    8.08
 -16   6  -1   13.47    2.12
 -16  -6  -1   13.66    2.13
 -16   6  -2  240.93    8.31
 -16  -6  -2  237.23    7.97
 -16   6  -3   16.86    1.75
 -16   6  -3   16.20    2.26
 -16  -6  -3   19.60    2.43
 -16   6  -4   34.93    2.42
 -16   6  -4   37.38    3.38
 -16  -6  -4   37.61    3.05
  16   6   4   34.64    2.79
 -16   6  -5  203.47    6.39
 -16   6  -5  211.67    8.07
 -16  -6  -5  201.73    7.24
  16   6   5  212.89    7.03
  16   6   6    3.30    1.14
 -16  -6  -6    2.26    1.20
 -16   6  -6    4.90    1.84
 -16   6  -6    1.91    0.92
  16   6   7    2.32    1.07
 -16   6  -7    4.26    1.22
 -16  -6  -7    2.83    1.24
 -16   6  -7    0.99    1.56
 -16   6  -8  329.49    9.37
 -16  -6  -8  351.40   10.03
 -16   6  -8  358.78   11.39
  16   6   8  334.01    9.11
  16   6   9    4.83    1.31
 -16  -6  -9    5.88    1.67
 -16  -6 -10    4.26    1.42
 -16  -6 -11   43.09    3.39
  16  -6  12  257.29    9.87
 -16  -6 -12  238.52    8.25
  16  -6  13   43.43    4.05
 -16  -6 -13   48.04    3.53
  16  -6  14   79.41    5.61
  16   6  15  168.87    7.37
  16  -6  15  160.07    8.16
  16  -6  16  139.98    7.61
 -16  -8  13   52.60    4.93
 -16  -8  12  216.46    9.49
 -16   8  11   27.45    2.52
 -16  -8  11   26.94    3.39
 -16   8  10  162.00    6.16
 -16  -8  10  159.31    7.84
 -16   8   9   54.35    3.53
 -16  -8   9   58.53    4.76
 -16   8   8  165.44    6.27
 -16  -8   8  165.44    7.71
 -16   8   7    0.29    1.09
 -16  -8   7   -0.38    1.53
 -16   8   6  261.85    8.27
 -16  -8   6  252.39    9.45
  16   8  -5   69.44    3.33
 -16   8   5   76.99    4.22
 -16  -8   5   72.66    4.78
  16   8  -4   95.07    3.80
 -16   8   4  105.38    5.06
  16   8  -3   52.61    2.66
 -16   8   3   53.87    3.67
  16   8  -2  103.00    3.70
 -16   8   2  103.02    5.11
  16   8  -1    1.49    0.68
 -16   8   1    0.45    1.23
 -16  -8   1    2.23    1.56
 -16   8   0  106.20    5.34
 -16  -8   0  105.72    5.44
 -16   8  -1   38.37    3.32
 -16  -8  -1   38.95    3.33
 -16   8  -2   62.72    4.29
 -16  -8  -2   56.43    3.89
 -16   8  -3   11.35    2.20
 -16  -8  -3   11.69    2.13
 -16   8  -4   11.39    1.72
 -16   8  -4   10.52    2.27
 -16  -8  -4    7.91    1.80
 -16   8  -5   31.69    3.24
 -16  -8  -5   30.71    2.89
  16   8   6    1.41    0.93
 -16   8  -6    0.64    1.49
 -16  -8  -6    1.51    1.27
  16   8   7    7.79    1.48
 -16  -8  -7    7.53    1.64
 -16  -8  -8   66.39    4.00
 -16  -8  -9  121.24    5.45
  16  -8  10  128.84    7.01
 -16  -8 -10  116.69    5.31
  16  -8  11    6.04    1.88
 -16  -8 -11    9.05    1.63
  16  -8  12   16.86    2.72
  16  -8  13    4.19    2.13
 -16 -10  10  275.40   10.87
 -16 -10   9   23.20    3.33
 -16  10   8  178.75    6.45
 -16 -10   8  183.35    8.50
 -16  10   7    6.05    1.52
 -16 -10   7    7.87    2.19
 -16  10   6  139.97    5.83
 -16 -10   6  153.18    7.43
 -16  10   5   57.78    3.74
 -16 -10   5   63.13    4.70
 -16  10   4  305.15    9.30
 -16 -10   4  312.90   10.69
 -16  10   3    0.52    1.21
 -16 -10   3    2.91    1.63
 -16  10   2  154.97    6.51
 -16  10   1    1.15    1.26
 -16 -10   1    1.04    1.51
 -16  10   0  125.83    5.99
 -16 -10   0  126.33    6.10
 -16  10  -1    5.83    1.88
 -16 -10  -1    2.67    1.37
 -16  10  -2  234.66    8.75
 -16 -10  -2  231.91    8.31
 -16  10  -3   12.48    2.39
 -16 -10  -3   15.71    2.40
 -16 -10  -4   53.41    3.88
 -16 -10  -5   15.20    2.22
 -16 -10  -6   72.95    4.26
 -16 -10  -7   14.72    2.17
  16 -10   8  215.95    9.29
 -16 -10  -8  197.59    7.13
  16 -10   9   14.76    3.06
  16 -10  10  276.56   10.96
 -16 -12   8   84.88    6.01
 -16 -12   7    2.55    1.93
 -16 -12   6   33.18    3.77
 -16  12   5   12.84    1.93
 -16 -12   5   16.70    2.88
 -16  12   4  231.83    8.05
 -16 -12   4  239.20    9.59
 -16  12   3   -2.76    1.46
 -16 -12   3    1.57    1.64
 -16 -12   2  161.20    7.54
 -16 -12   0   15.67    2.48
 -16 -12  -1   33.21    3.33
 -16 -12  -2   25.71    2.90
 -16 -12  -3   88.82    5.00
 -16 -12  -4   42.80    3.47
  16 -12   5   18.52    3.13
 -16 -12  -5   20.07    2.44
  16 -12   6   -1.08    1.85
  16 -12   7    3.67    2.07
 -16 -14   4  248.24   10.22
 -16 -14   3    1.56    1.69
 -16 -14   2  414.39   13.38
  16 -14  -1    1.18    1.68
 -16 -14   1    5.10    2.27
  16 -14   0   12.43    2.69
 -16 -14   0   11.95    2.36
  16 -14   1    0.83    1.49
 -16 -14  -1    0.54    1.51
  16 -14   2   14.47    2.64
 -16 -14  -2   17.94    2.59
  16 -14   3   25.38    3.37
 -16 -16   1   13.81    2.72
 -17  -1  17  234.49    9.31
 -17   1  17  229.38    9.35
 -17   1  17  249.62    9.79
 -17  -1  16   -0.43    1.52
 -17   1  16    2.56    1.72
 -17   1  16    0.90    1.61
 -17   1  15  126.22    6.33
 -17  -1  15  123.61    6.22
 -17   1  15  126.86    6.65
 -17   1  14   17.63    2.43
 -17  -1  14   16.72    2.23
 -17   1  14   20.47    2.88
 -17   1  13   73.74    4.45
 -17  -1  13   81.93    4.61
 -17   1  13   81.13    5.18
 -17  -1  12    8.98    1.63
 -17   1  12    6.84    1.66
 -17   1  12    9.58    2.20
 -17   1  11  169.99    6.21
 -17  -1  11  176.38    6.27
 -17   1  11  176.80    7.40
 -17  -1  10    4.18    1.17
 -17   1  10    5.89    1.33
 -17   1  10    2.03    1.42
 -17   1   9  287.58    7.75
 -17  -1   9  288.67    7.58
 -17  -1   9  273.22    9.52
 -17   1   9  272.49    9.25
 -17  -1   8    1.19    0.75
 -17   1   8    2.55    1.69
 -17  -1   8    1.34    1.48
 -17  -1   7   87.57    3.28
 -17  -1   7   81.85    4.88
 -17   1   7   86.52    4.89
 -17  -1   6   27.06    1.59
 -17   1   6   21.94    2.50
 -17  -1   6   30.52    3.04
 -17   1   5  377.62   10.68
 -17  -1   5  373.03   10.82
 -17   1   4    2.57    0.56
 -17  -1   4    2.99    1.55
 -17   1   4    4.44    1.71
 -17   1   3 1485.39   22.21
 -17   1   3 1430.67   27.47
 -17  -1   3 1399.71   27.53
 -17   1   2  248.33    8.19
 -17  -1   2  241.03    8.18
 -17   1   1  285.13    8.91
 -17  -1   1  276.09    8.86
 -17  -1   0  730.95   16.48
 -17   1   0  729.71   16.43
 -17   1  -1  251.05    8.36
 -17  -1  -1  267.43    8.52
 -17   1  -2   47.95    3.58
 -17  -1  -2   45.84    3.50
 -17  -1  -3 1119.05   22.36
 -17   1  -3 1102.22   22.45
 -17   1  -4  333.41   10.07
 -17  -1  -4  325.36    9.83
 -17   1  -5   23.70    2.77
 -17  -1  -5   33.09    3.06
 -17  -1  -6   22.13    2.55
 -17   1  -6   21.24    2.68
 -17   1  -7   15.28    2.52
 -17  -1  -7   15.56    2.27
 -17   1  -8   12.15    2.21
 -17  -1  -8   12.74    2.21
 -17   1  -9  325.51   10.54
 -17  -1  -9  330.31   10.43
  17   1  10   24.46    2.14
 -17  -1 -10   21.64    2.80
 -17   1 -10   19.70    2.79
  17   1  11  714.23   14.84
 -17   1 -11  689.41   17.34
 -17  -1 -11  656.94   16.75
  17   1  12    2.20    1.13
 -17   1 -12    8.68    2.27
 -17  -1 -12    2.71    1.69
  17   1  13  166.11    6.55
 -17  -1 -13  166.81    7.52
  17   1  14   67.78    4.27
  17  -1  15   37.95    3.56
  17   1  15   43.91    3.64
  17   1  16    0.52    1.35
 -17   3  17  138.13    7.24
 -17  -3  17  138.13    7.16
 -17  -3  16    6.09    1.99
 -17   3  16    1.44    1.57
 -17  -3  15  148.63    6.86
 -17   3  15  148.28    6.92
 -17  -3  14   14.45    2.25
 -17   3  14   11.91    2.26
 -17  -3  13  147.37    6.31
 -17   3  13  147.16    6.73
 -17   3  12   33.79    3.18
 -17   3  11  323.85   10.16
 -17   3  10    6.38    1.72
 -17   3   9  463.86   12.41
 -17   3   8    3.02    1.69
 -17   3   7   80.43    4.60
 -17  -3   6   22.10    2.74
 -17   3   6   26.37    2.75
 -17   3   5  266.36    8.63
 -17  -3   5  266.90    9.04
 -17   3   4  208.57    7.43
 -17  -3   4  198.97    7.62
 -17   3   3  488.07   12.48
 -17  -3   3  486.30   12.88
 -17  -3   2    8.94    1.85
 -17   3   2   10.51    1.94
 -17   3   1  166.62    6.59
 -17  -3   1  166.52    6.64
 -17   3   0   39.94    3.28
 -17  -3   0   38.90    3.29
 -17   3  -1  225.46    4.88
 -17   3  -1  222.44    7.85
 -17  -3  -1  224.51    7.82
 -17   3  -2  625.40   11.00
 -17   3  -2  624.61   14.99
 -17  -3  -2  633.28   14.90
 -17  -3  -3  275.71    8.86
 -17   3  -3  287.62    9.22
 -17   3  -4   10.18    2.11
 -17  -3  -4   12.13    2.21
  17   3   5  517.56    8.81
 -17  -3  -5  507.32   13.01
 -17   3  -5  483.69   13.21
  17   3   6   16.21    1.22
 -17  -3  -6   16.30    2.38
 -17   3  -6   15.38    2.44
  17   3   7   97.07    3.30
 -17  -3  -7   88.95    4.91
 -17   3  -7   85.17    5.16
  17   3   8   68.99    3.02
 -17  -3  -8   66.54    4.34
 -17   3  -8   60.38    4.39
  17   3   9  892.67   16.55
 -17   3  -9  870.15   20.19
 -17  -3  -9  837.98   19.04
  17   3  10   18.57    1.91
 -17  -3 -10   22.83    2.79
 -17   3 -10   21.45    2.94
  17   3  11  432.53   10.57
 -17   3 -11  423.45   13.02
 -17  -3 -11  406.82   11.98
  17   3  12    6.38    1.44
 -17  -3 -12    9.49    2.07
  17   3  13  226.84    7.78
 -17  -3 -13  215.11    8.44
  17  -3  14    8.30    2.17
  17   3  14    8.89    1.85
  17  -3  15  149.21    7.27
  17   3  15  164.98    7.05
  17  -3  16   18.93    2.96
 -17   5  14    1.14    1.52
 -17   5  13  186.16    7.36
 -17   5  12   35.93    3.19
 -17   5  11  443.63   12.04
 -17   5  10   15.12    2.19
 -17   5   9  755.81   17.00
 -17   5   8    4.09    1.53
 -17   5   7  388.66   10.85
 -17   5   6    9.59    1.82
 -17   5   5  319.40    9.55
 -17   5   4    3.84    1.45
 -17  -5   4    5.43    1.87
 -17   5   3 1112.76   22.38
 -17  -5   3 1120.87   23.11
 -17   5   2  110.02    5.35
 -17  -5   2  109.58    5.58
 -17   5   1  427.52   11.72
 -17  -5   1  434.29   11.98
 -17   5   0   10.13    2.06
 -17  -5   0    8.09    2.01
 -17   5  -1  538.14   13.74
 -17  -5  -1  564.63   13.91
 -17   5  -2  226.29    6.02
 -17   5  -2  240.02    8.39
 -17  -5  -2  230.22    8.04
 -17   5  -3  738.74   14.16
 -17  -5  -3  751.50   16.88
 -17   5  -3  763.39   17.40
 -17   5  -4   13.08    1.44
 -17   5  -4   13.56    2.29
 -17  -5  -4   15.39    2.20
 -17   5  -5  599.26   12.38
 -17  -5  -5  597.92   14.46
 -17   5  -5  591.80   15.18
 -17   5  -6   57.58    3.10
 -17  -5  -6   59.69    4.00
 -17   5  -6   60.75    4.34
 -17   5  -7 1197.64   24.90
 -17  -5  -7 1143.12   23.33
 -17  -5  -8   13.27    2.30
 -17   5  -8   14.96    2.57
 -17  -5  -9  302.02    9.63
 -17   5  -9  303.34   10.64
 -17  -5 -10   11.12    1.96
  17   5  11  388.36   10.06
 -17  -5 -11  353.03   10.80
  17   5  12   -2.32    1.27
 -17  -5 -12    1.15    1.31
  17   5  13   66.09    4.13
  17  -5  13   61.51    4.85
 -17  -5 -13   60.24    4.16
  17  -5  14    0.83    1.51
  17   5  14    1.56    1.36
  17  -5  15   91.17    6.22
  17  -5  16    9.09    2.33
 -17  -7  13  109.97    6.73
 -17   7  12   -0.23    1.11
 -17  -7  12   -0.59    1.69
 -17   7  11  167.67    6.58
 -17  -7  11  170.11    8.18
 -17   7  10    3.58    1.62
 -17  -7  10    8.99    2.70
 -17   7   9  131.98    5.80
 -17  -7   9  144.89    7.27
 -17   7   8   81.80    4.53
 -17   7   7   79.94    4.47
 -17   7   6   46.24    3.47
 -17   7   5   45.09    3.45
 -17   7   4   41.72    3.35
 -17   7   3   24.78    2.61
 -17  -7   3   29.59    3.14
  17   7  -2   87.68    2.97
 -17   7   2   87.53    4.83
 -17  -7   2   79.28    4.85
  17   7  -1   76.87    2.65
 -17   7   1   74.63    4.50
 -17  -7   1   70.77    4.66
  17   7   0   38.58    1.78
 -17   7   0   36.91    3.32
 -17  -7   0   38.04    3.67
 -17   7  -1    5.75    1.75
 -17  -7  -1    6.47    1.80
 -17   7  -2   24.16    2.85
 -17  -7  -2   20.04    2.50
 -17   7  -3  195.93    7.80
 -17  -7  -3  190.36    7.37
 -17   7  -4   24.56    2.23
 -17   7  -4   20.02    2.57
 -17  -7  -4   24.54    2.75
 -17   7  -5  107.17    4.70
 -17  -7  -5  113.31    5.50
 -17   7  -5  121.88    6.27
 -17   7  -6   -0.54    0.88
 -17   7  -6    0.37    1.53
 -17  -7  -6    2.15    1.36
 -17   7  -7  355.18   11.56
 -17  -7  -7  336.98   10.14
 -17   7  -8   25.08    3.27
 -17  -7  -8   22.14    2.53
 -17  -7  -9  287.31    9.16
 -17  -7 -10   11.34    1.97
  17  -7  11    8.96    2.33
 -17  -7 -11    8.27    1.69
  17  -7  12    6.97    2.25
 -17  -7 -12    6.26    1.59
  17  -7  13  205.40    9.30
  17  -7  14   33.74    3.81
 -17  -9  11  110.74    6.92
 -17  -9  10   -1.13    1.62
 -17   9   9  150.92    6.15
 -17  -9   9  152.50    7.81
 -17   9   8   48.82    3.49
 -17  -9   8   45.00    4.25
 -17   9   7  414.46   11.20
 -17  -9   7  411.48   13.16
 -17   9   6   63.61    4.00
 -17  -9   6   64.07    4.86
 -17   9   5  300.18    9.35
 -17  -9   5  317.83   10.97
 -17   9   4   47.50    3.58
 -17   9   3  391.86   11.17
 -17   9   2    4.62    1.52
 -17  -9   2    2.00    1.50
 -17   9   1  191.08    7.50
 -17  -9   1  200.02    8.00
 -17   9   0   60.54    4.28
 -17  -9   0   53.99    4.09
 -17   9  -1  763.90   18.04
 -17  -9  -1  768.61   17.86
 -17   9  -2   33.16    3.50
 -17  -9  -2   34.95    3.30
 -17   9  -3  267.59    9.57
 -17  -9  -3  264.51    8.99
 -17   9  -4   54.49    4.35
 -17  -9  -4   46.82    3.67
 -17   9  -5  581.91   15.76
 -17  -9  -5  574.54   14.35
 -17  -9  -6    1.54    1.21
 -17  -9  -7  379.30   10.89
 -17  -9  -8    1.73    1.37
 -17  -9  -9  320.71    9.77
  17  -9  10    3.26    1.89
  17  -9  11   85.61    5.98
 -17 -11   8   85.76    5.94
 -17  11   7  246.42    8.08
 -17 -11   7  244.43   10.17
 -17  11   6   12.42    2.02
 -17 -11   6   13.79    2.75
 -17  11   5  407.58   11.33
 -17 -11   5  407.36   13.19
 -17  11   4   33.75    3.20
 -17 -11   4   35.98    3.85
 -17  11   3   65.88    4.30
 -17  11   2   88.35    5.08
 -17  11   1  258.18    9.08
 -17 -11   1  257.71    9.50
 -17  11   0    5.53    1.81
 -17 -11   0    5.33    1.88
 -17  11  -1  214.39    8.52
 -17 -11  -1  227.40    8.60
 -17 -11  -2    1.28    1.34
 -17 -11  -3  342.37   10.69
 -17 -11  -4   28.00    3.01
 -17 -11  -5  117.34    5.73
 -17 -11  -6    9.48    1.84
  17 -11   7  591.87   16.92
 -17 -11  -7  556.07   14.00
  17 -11   8   66.26    5.43
 -17 -13   5   14.46    2.76
 -17 -13   4   10.25    2.52
 -17 -13   3   57.14    4.71
 -17 -13   1   56.83    4.59
 -17 -13   0    1.26    1.72
 -17 -13  -1  217.77    8.65
 -17 -13  -2   12.55    2.31
  17 -13   3   50.46    4.51
 -17 -13  -3   46.22    3.80
 -17 -13  -4   36.06    3.37
  17 -15  -4    1.24    1.66
  17 -15  -3    8.15    2.32
  17 -15  -2    5.48    2.32
 -17 -15   1  270.75   10.40
 -17 -15   0   24.03    3.29
 -18   0  17   -1.70    1.96
 -18   0  16   -0.13    1.58
 -18   0  16   -0.32    1.94
 -18   0  15   -1.44    1.53
 -18   0  15    0.14    1.59
 -18   0  14    7.87    1.78
 -18   0  14   12.61    2.61
 -18   0  13    0.43    1.16
 -18   0  13    0.51    1.75
 -18   0  12   68.50    3.98
 -18   0  12   72.98    4.96
 -18   0  11    0.68    0.89
 -18   0  11    0.56    1.57
 -18   0  10  295.26    8.06
 -18   0  10  265.61    9.68
 -18   0   9    0.95    0.79
 -18   0   9   -2.18    1.77
 -18   0   8   28.63    2.04
 -18   0   8   24.60    2.81
 -18   0   7    0.59    0.62
 -18   0   7    0.80    1.43
 -18   0   6    2.53    0.64
 -18   0   6    1.01    1.43
 -18   0   5    0.61    0.48
 -18   0   5    0.54    1.40
 -18   0   4  210.23    7.82
 -18   0   3    0.01    1.56
 -18   0   2   50.61    3.75
 -18   0   1    1.01    1.41
 -18   0   0 1225.35   24.36
 -18   0  -1   -0.74    1.46
 -18   0  -2    1.31    1.45
 -18   0  -3    0.90    1.50
 -18   0  -4   94.40    5.14
 -18   0  -5    0.54    1.45
 -18   0  -6  775.92   17.97
 -18   0  -7    1.37    1.46
 -18   0  -8  172.68    7.39
 -18   0  -9   -2.20    1.62
 -18   0 -10   69.63    4.69
 -18   0 -11   -0.46    1.52
 -18   0 -12   22.52    3.01
 -18   0 -13    2.00    1.78
  18   0  15   -0.42    1.46
 -18   2  17    9.15    2.49
 -18   2  16    9.83    2.10
 -18  -2  16   12.79    2.35
 -18   2  16   12.47    2.51
 -18   2  15   66.22    4.66
 -18  -2  15   64.04    4.40
 -18   2  15   61.86    4.75
 -18   2  14  106.56    5.56
 -18  -2  14  117.65    5.72
 -18   2  14  109.40    6.18
 -18  -2  13    8.48    1.79
 -18   2  13    8.25    1.95
 -18   2  13    4.07    1.65
 -18  -2  12   10.27    1.81
 -18   2  12   14.10    2.60
 -18  -2  11    9.41    1.58
 -18   2  11    6.85    1.85
 -18  -2  10   82.05    3.80
 -18   2  10   67.66    4.55
 -18   2   9   20.02    2.57
 -18  -2   9   22.69    2.97
 -18  -2   8  269.55    9.52
 -18   2   8  261.21    8.99
 -18   2   7    1.80    1.37
 -18  -2   7    5.12    1.92
 -18   2   6  337.47   10.35
 -18  -2   6  353.16   10.94
 -18   2   5  257.55    8.79
 -18  -2   5  273.94    9.27
 -18   2   4  368.15   10.77
 -18  -2   4  382.39   11.21
 -18  -2   3   -0.15    1.40
 -18   2   3   -1.39    1.52
 -18   2   2   49.31    3.66
 -18  -2   2   49.47    3.75
 -18   2   1  132.32    5.99
 -18  -2   1  135.30    6.13
 -18   2   0  499.73   13.04
 -18  -2   0  508.14   13.13
 -18   2  -1   34.78    3.22
 -18  -2  -1   35.52    3.26
 -18   2  -2   20.39    2.68
 -18  -2  -2   19.63    2.57
 -18   2  -3   84.87    4.94
 -18  -2  -3   88.00    4.94
 -18  -2  -4  657.40   15.88
 -18   2  -4  686.71   16.43
 -18  -2  -5    3.89    1.83
 -18   2  -5    3.64    1.71
 -18  -2  -6  709.78   16.83
 -18   2  -6  718.73   17.18
 -18  -2  -7   66.41    4.49
 -18   2  -7   68.72    4.69
 -18   2  -8  717.66   17.63
 -18  -2  -8  712.24   17.10
  18   2   9   30.83    2.12
 -18  -2  -9   26.35    3.03
 -18   2  -9   29.58    3.31
  18   2  10   23.67    2.07
 -18  -2 -10   25.47    3.01
 -18   2 -10   27.22    3.26
  18   2  11   27.46    2.39
 -18  -2 -11   23.40    2.91
 -18   2 -11   20.18    2.87
  18   2  12   65.45    3.77
 -18   2 -12   73.27    5.17
 -18  -2 -12   60.30    4.49
  18   2  13   22.49    2.43
 -18  -2 -13   18.59    2.75
  18  -2  15   24.29    3.11
  18  -2  16   34.94    3.68
 -18   4  15    2.42    1.57
 -18   4  14   14.14    2.45
 -18   4  13   57.82    4.29
 -18   4  12   49.56    4.02
 -18   4  11   37.50    3.37
 -18   4  10   18.01    2.66
 -18   4   9   33.20    3.17
 -18   4   8    3.91    1.48
 -18   4   7   66.81    4.27
 -18  -4   6   20.90    2.91
 -18   4   6   23.56    2.74
 -18   4   5   73.56    4.47
 -18  -4   5   67.29    4.59
 -18   4   4   14.34    2.35
 -18  -4   4   14.23    2.45
 -18   4   3  339.15   10.26
 -18  -4   3  362.43   10.94
 -18   4   2   55.58    4.00
 -18  -4   2   49.47    3.86
 -18   4   1    8.25    2.07
 -18  -4   1   10.52    2.06
 -18   4   0  333.46   10.18
 -18  -4   0  315.39    9.98
 -18   4  -1   88.31    2.99
 -18   4  -1   91.31    5.08
 -18  -4  -1   86.62    4.95
 -18   4  -2  142.42    4.05
 -18   4  -2  136.95    6.36
 -18  -4  -2  140.47    6.24
 -18   4  -3   29.85    1.79
 -18   4  -3   32.28    3.26
 -18  -4  -3   28.74    2.96
 -18   4  -4   15.55    1.39
 -18   4  -4   13.43    2.29
 -18  -4  -4   15.39    2.41
  18   4   5    7.50    0.69
 -18   4  -5    9.00    2.07
 -18  -4  -5    6.41    1.88
  18   4   6  479.74    8.80
 -18   4  -6  452.61   13.19
 -18  -4  -6  439.01   12.43
  18   4   7    0.13    0.63
 -18   4  -7    0.80    1.59
 -18  -4  -7    0.67    1.38
  18   4   8   86.50    3.39
 -18  -4  -8   80.25    4.83
 -18   4  -8   85.03    5.39
  18   4   9   77.07    3.43
 -18   4  -9   77.65    5.21
 -18  -4  -9   69.51    4.53
  18   4  10   36.16    2.57
 -18  -4 -10   26.62    3.00
 -18   4 -10   33.35    3.61
  18   4  11  144.63    5.47
 -18   4 -11  135.11    7.16
 -18  -4 -11  126.88    6.33
  18   4  12   49.32    3.27
 -18  -4 -12   38.16    3.65
 -18  -4 -13    2.31    1.94
  18  -4  14  181.49    8.40
 -18  -4 -14  182.48    7.82
  18  -4  15   40.41    4.11
  18  -4  16   30.79    3.76
 -18   6  13    2.03    1.41
 -18   6  12    1.47    1.63
 -18   6  11   58.57    4.08
 -18   6  10   14.31    2.25
 -18   6   9   64.06    4.18
 -18   6   8   31.05    3.01
 -18   6   7  261.77    8.78
 -18   6   6    1.83    1.42
 -18   6   5   19.17    2.57
 -18   6   4   56.60    4.01
 -18  -6   4   56.59    4.31
 -18   6   3    1.58    1.39
 -18  -6   3    2.23    1.71
 -18   6   2  276.38    9.16
 -18  -6   2  277.82    9.63
 -18   6   1    0.92    1.36
 -18  -6   1   -0.85    1.45
 -18   6   0  472.52   12.83
 -18  -6   0  456.31   12.72
 -18   6  -1  171.17    7.16
 -18  -6  -1  175.67    7.24
  18   6   2  286.75    4.99
 -18   6  -2  288.71    9.66
 -18  -6  -2  284.40    9.44
 -18   6  -3  146.80    4.99
 -18  -6  -3  147.34    6.52
 -18   6  -3  148.11    6.75
 -18   6  -4    1.24    0.96
 -18   6  -4    1.23    1.39
 -18  -6  -4    1.33    1.47
 -18   6  -5   73.28    3.61
 -18   6  -5   87.02    5.30
 -18  -6  -5   70.67    4.47
 -18   6  -6   69.58    3.60
 -18  -6  -6   68.93    4.41
 -18   6  -6   73.46    4.92
 -18   6  -7   37.05    2.81
 -18  -6  -7   41.27    3.52
 -18   6  -7   44.19    3.92
 -18  -6  -8  238.73    8.51
 -18   6  -8  255.77    9.78
 -18  -6  -9   83.91    4.94
 -18   6  -9   84.85    5.63
 -18  -6 -10    3.36    1.64
 -18  -6 -11    4.15    1.62
  18  -6  12  334.39   11.76
 -18  -6 -12  313.31   10.22
  18  -6  13    4.87    2.16
 -18  -6 -13    2.16    1.45
  18  -6  14  111.31    6.63
 -18  -8  11   85.97    6.01
 -18   8  10   15.04    2.17
 -18  -8  10   17.14    3.02
 -18   8   9   16.27    2.27
 -18   8   8   54.29    3.82
 -18   8   7    3.11    1.48
 -18   8   6    0.86    1.21
 -18   8   5    2.55    1.55
 -18   8   4    1.89    1.52
 -18   8   3   55.67    3.96
 -18  -8   3   49.50    4.15
 -18   8   2   19.48    2.55
 -18  -8   2   27.02    3.04
 -18   8   1  168.31    7.17
 -18  -8   1  175.22    7.56
 -18   8   0  363.43   11.14
 -18  -8   0  353.74   11.14
 -18   8  -1   60.42    4.36
 -18  -8  -1   69.08    4.59
 -18   8  -2  121.69    6.27
 -18  -8  -2  124.67    6.05
 -18   8  -3    5.20    1.98
 -18  -8  -3    7.60    1.96
 -18   8  -4   79.18    5.26
 -18  -8  -4   68.08    4.49
 -18  -8  -5  127.48    6.10
 -18   8  -5  136.64    6.93
 -18   8  -6   17.98    2.88
 -18  -8  -6   16.23    2.26
 -18   8  -7    4.68    1.86
 -18  -8  -7    4.38    1.53
 -18  -8  -8   34.26    3.20
 -18  -8  -9   93.20    5.11
 -18  -8 -10   97.65    5.16
  18  -8  11    0.50    1.66
 -18  10   8    5.67    1.64
 -18 -10   8    6.27    2.25
 -18  10   7    0.25    1.34
 -18 -10   7    1.11    1.61
 -18  10   6   20.51    2.50
 -18 -10   6   23.72    3.33
 -18  10   5   54.95    3.94
 -18  10   4   28.63    2.90
 -18  10   3   23.95    2.80
 -18  10   2   11.44    2.04
 -18 -10   2   13.57    2.44
 -18  10   1    0.47    1.41
 -18 -10   1    5.11    1.93
 -18  10   0   34.73    3.40
 -18 -10   0   39.85    3.73
 -18  10  -1    9.71    2.01
 -18 -10  -1   12.75    2.37
 -18  10  -2  271.63    9.86
 -18 -10  -2  279.53    9.63
 -18  10  -3   25.20    3.19
 -18 -10  -3   22.78    2.83
 -18 -10  -4  121.82    6.01
 -18  10  -4  117.74    6.61
 -18 -10  -5   94.48    5.24
 -18 -10  -6  139.41    6.38
 -18 -10  -7    1.10    1.31
 -18 -10  -8   58.82    4.03
 -18 -12   6    2.49    1.87
 -18  12   5   22.79    2.63
 -18 -12   5   20.60    3.12
 -18  12   4  128.36    6.11
 -18  12   3    4.54    1.74
 -18  12   2   13.72    2.38
 -18 -12   2   14.78    2.70
 -18  12   1   11.99    2.31
 -18 -12   1   12.79    2.46
 -18 -12   0    4.77    1.81
 -18 -12  -1    4.53    1.85
 -18 -12  -2   95.48    5.58
 -18 -12  -3    4.98    1.88
 -18 -12  -4  166.13    7.25
 -18 -12  -5   15.79    2.45
 -18 -14   2   85.07    5.77
 -18 -14   1    1.98    1.68
 -18 -14   0   -2.68    1.81
 -18 -14  -1   39.63    3.87
 -18 -14  -2   88.77    5.52
 -19   1  16    9.89    2.35
 -19  -1  15  192.21    9.08
 -19   1  15  204.20    8.92
 -19   1  14   20.57    2.43
 -19   1  14   26.68    3.37
 -19  -1  14   23.39    3.23
 -19  -1  13   52.66    3.63
 -19   1  13   52.80    3.67
 -19  -1  13   57.02    4.76
 -19   1  13   55.23    4.64
 -19  -1  12    3.75    1.21
 -19   1  12    2.88    1.15
 -19   1  12    2.14    1.69
 -19  -1  12    0.56    1.73
 -19  -1  11   40.92    2.88
 -19   1  11   40.07    2.93
 -19   1  11   38.51    3.71
 -19  -1  11   40.91    3.90
 -19   1  10   34.95    2.55
 -19  -1  10   33.77    2.49
 -19   1  10   40.36    3.83
 -19  -1  10   34.40    3.61
 -19   1   9  406.90    9.60
 -19  -1   9  413.31    9.48
 -19   1   9  408.34   12.26
 -19  -1   9  390.40   12.26
 -19   1   8    3.34    0.97
 -19  -1   8    2.38    0.85
 -19   1   8    2.86    1.75
 -19  -1   8    3.58    2.01
 -19   1   7  870.30   15.50
 -19   1   7  808.45   19.09
 -19  -1   7  866.30   19.78
 -19   1   6   27.62    1.66
 -19   1   6   26.75    3.00
 -19  -1   6   27.06    3.06
 -19   1   5   52.64    1.98
 -19   1   5   46.02    3.80
 -19  -1   5   53.33    4.11
 -19   1   4   31.78    1.19
 -19  -1   4   31.40    3.18
 -19   1   4   26.77    3.01
 -19   1   3  122.35    5.95
 -19  -1   3  122.56    6.01
 -19   1   2  140.55    6.37
 -19  -1   2  145.70    6.55
 -19   1   1  162.12    6.89
 -19  -1   1  173.27    7.10
 -19   1   0   37.57    3.45
 -19  -1   0   36.94    3.38
 -19   1  -1   19.29    2.60
 -19  -1  -1   22.78    2.78
 -19   1  -2   12.99    2.26
 -19  -1  -2   12.25    2.20
 -19  -1  -3  119.00    5.94
 -19   1  -3  128.21    6.15
 -19   1  -4  181.57    7.58
 -19  -1  -4  177.20    7.39
 -19   1  -5   18.61    2.66
 -19  -1  -5   23.08    2.92
 -19  -1  -6    2.37    1.68
 -19   1  -6    2.82    1.74
 -19  -1  -7   45.68    3.88
 -19   1  -7   45.35    3.90
 -19   1  -8   13.10    2.37
 -19  -1  -8   10.29    2.21
 -19   1  -9   45.26    4.04
 -19  -1  -9   44.64    3.97
 -19  -1 -10   18.89    2.73
 -19   1 -10   11.92    2.38
 -19   1 -11   -1.37    1.85
 -19  -1 -11    1.25    1.78
 -19   1 -12   11.14    2.63
 -19  -1 -12    9.11    2.17
 -19  -1 -13   27.06    3.39
  19  -1  15   -0.09    1.40
 -19   3  15  149.85    7.01
 -19   3  15  145.14    7.14
 -19   3  14    1.12    1.51
 -19   3  13   79.46    5.16
 -19   3  12    2.66    1.44
 -19   3  11   11.29    2.16
 -19   3  10    1.96    1.51
 -19  -3   9    5.40    1.99
 -19   3   9    6.11    2.06
 -19  -3   8    3.74    1.93
 -19   3   8    2.55    1.58
 -19  -3   7 1034.96   22.65
 -19   3   7  993.61   21.60
 -19   3   6  191.33    7.62
 -19  -3   6  209.07    8.38
 -19  -3   5   14.54    2.63
 -19   3   5   10.13    2.11
 -19   3   4   88.21    5.03
 -19  -3   4   88.23    5.26
 -19   3   3   97.57    5.30
 -19  -3   3   90.81    5.28
 -19   3   2  170.85    7.05
 -19  -3   2  165.11    7.14
 -19   3   1  151.28    6.75
 -19  -3   1  162.70    7.03
 -19   3   0   73.47    2.08
 -19   3   0   73.98    4.69
 -19  -3   0   72.36    4.69
 -19   3  -1  113.29    2.79
 -19  -3  -1  105.61    5.59
 -19   3  -1  122.33    6.05
 -19   3  -2  206.55    7.96
 -19  -3  -2  189.48    7.60
 -19   3  -3   71.64    4.71
 -19  -3  -3   67.59    4.46
 -19   3  -4  121.29    6.16
 -19  -3  -4  128.30    6.17
 -19   3  -5    7.34    2.25
 -19  -3  -5    6.35    1.97
 -19   3  -6    1.95    1.70
 -19  -3  -6    3.58    1.63
 -19  -3  -7  380.32   11.52
 -19   3  -7  378.16   11.95
  19   3   8    2.53    0.82
 -19   3  -8    5.67    2.10
 -19  -3  -8    3.84    1.70
  19   3   9    6.54    1.17
 -19  -3  -9    5.70    1.68
 -19   3  -9    7.00    2.25
 -19  -3 -10    2.74    1.70
 -19   3 -10    5.82    2.16
 -19  -3 -11   11.97    2.23
 -19   3 -11   22.94    3.23
 -19  -3 -12    0.25    1.57
 -19  -3 -13   54.95    4.40
  19  -3  14    1.57    1.81
 -19  -3 -14    2.11    1.76
  19  -3  15    7.58    2.04
  19  -3  16   10.18    2.99
 -19   5  13  301.36   10.18
 -19   5  12   25.27    2.90
 -19   5  11    4.71    1.71
 -19   5  10  112.58    5.85
 -19   5   9  120.60    6.00
 -19   5   8   83.98    4.93
 -19   5   7   25.87    2.83
 -19   5   6   22.21    2.68
 -19  -5   6   21.16    3.11
 -19   5   5  120.86    5.89
 -19  -5   5  121.92    6.35
 -19   5   4    0.22    1.46
 -19  -5   4    0.73    1.54
 -19   5   3    0.12    1.41
 -19  -5   3    1.25    1.66
 -19   5   2  358.41   10.92
 -19  -5   2  351.16   11.17
 -19   5   1  171.17    7.26
 -19  -5   1  174.98    7.42
 -19   5   0   56.45    4.16
 -19  -5   0   51.64    4.01
 -19   5  -1    1.72    0.75
 -19   5  -1    0.38    1.51
 -19  -5  -1    1.79    1.47
 -19   5  -2   40.63    2.22
 -19   5  -2   41.82    3.66
 -19  -5  -2   46.39    3.82
 -19   5  -3   28.66    1.93
 -19   5  -3   26.54    3.05
 -19  -5  -3   28.31    3.16
 -19   5  -4    4.38    0.89
 -19   5  -4    2.01    1.55
 -19  -5  -4    4.75    1.72
 -19   5  -5   29.93    2.14
 -19   5  -5   33.68    3.44
 -19  -5  -5   36.76    3.43
 -19   5  -6   16.55    2.75
 -19  -5  -6   14.99    2.40
 -19  -5  -7    7.91    1.99
 -19   5  -7   18.00    2.85
 -19  -5  -8   49.51    3.95
 -19   5  -8   51.64    4.43
 -19   5  -9   -0.52    1.80
 -19  -5  -9   -1.67    1.54
 -19  -5 -10   -1.05    1.36
 -19   5 -10   -1.30    1.73
 -19  -5 -11   55.77    4.26
 -19  -5 -12    1.98    1.61
  19  -5  13   13.53    2.67
 -19  -5 -13   11.25    2.24
  19  -5  14    1.69    1.61
 -19   7  11  191.99    7.55
 -19   7  10    2.67    1.29
 -19   7   9   11.80    2.09
 -19   7   8   85.28    4.90
 -19   7   7  105.89    5.53
 -19   7   6   93.53    5.21
 -19   7   5   26.05    2.91
 -19  -7   5   18.57    2.97
 -19   7   4    0.99    1.33
 -19  -7   4    0.65    1.62
 -19   7   3  161.17    6.99
 -19  -7   3  171.00    7.65
 -19   7   2  110.69    5.80
 -19  -7   2   98.72    5.76
 -19   7   1   80.54    4.93
 -19  -7   1   78.84    5.16
 -19   7   0    2.02    1.58
 -19  -7   0    0.21    1.61
 -19   7  -1  120.74    6.19
 -19  -7  -1  121.94    6.18
 -19   7  -2    3.57    1.90
 -19  -7  -2    0.18    1.42
 -19   7  -3   74.72    4.95
 -19  -7  -3   72.27    4.70
 -19   7  -4    1.70    1.63
 -19  -7  -4   -0.04    1.46
 -19   7  -5  166.64    7.69
 -19  -7  -5  149.43    6.79
 -19   7  -6   24.99    3.51
 -19  -7  -6   24.77    2.92
 -19   7  -7  168.12    7.98
 -19  -7  -7  157.63    6.98
 -19  -7  -8   18.03    2.58
 -19   7  -8   16.95    2.81
 -19  -7  -9   64.07    4.38
 -19  -7 -10    5.38    1.77
 -19  -7 -11   33.97    3.33
 -19   9   9  107.95    5.47
 -19   9   8   -0.69    1.59
 -19   9   7   18.11    2.57
 -19   9   6  135.73    6.37
 -19   9   5   47.58    3.80
 -19   9   4   20.70    2.64
 -19  -9   4   16.27    2.84
 -19   9   3   27.65    3.08
 -19  -9   3   31.00    3.43
 -19   9   2    1.22    1.44
 -19  -9   2    3.39    2.01
 -19   9   1   35.89    3.41
 -19  -9   1   37.25    3.67
 -19   9   0   53.19    4.23
 -19  -9   0   67.07    4.77
 -19   9  -1    2.26    1.51
 -19  -9  -1    2.69    1.58
 -19   9  -2   51.01    4.26
 -19  -9  -2   42.97    3.83
 -19   9  -3   46.85    4.12
 -19  -9  -3   40.06    3.62
 -19   9  -4    5.08    1.88
 -19  -9  -4    9.12    2.22
 -19   9  -5    0.20    1.67
 -19  -9  -5   -2.69    1.53
 -19   9  -6    2.45    2.02
 -19  -9  -6    2.60    1.64
 -19  -9  -7   31.51    3.15
 -19  -9  -8   71.97    4.61
 -19  -9  -9   51.72    4.02
 -19  11   6   32.86    3.13
 -19  11   5   15.70    2.38
 -19  11   4   10.61    2.18
 -19  11   3   71.65    4.71
 -19 -11   3   71.88    5.23
 -19  11   2   32.15    3.47
 -19 -11   2   38.92    3.94
 -19  11   1   19.20    2.85
 -19 -11   1   24.61    3.27
 -19  11   0   24.19    2.98
 -19 -11   0   21.55    2.89
 -19  11  -1   25.21    3.21
 -19 -11  -1   30.91    3.34
 -19  11  -2    6.24    2.04
 -19 -11  -2    7.88    2.10
 -19 -11  -3   33.19    3.40
 -19 -11  -4   39.02    3.71
 -19 -11  -5   11.88    2.46
 -19 -11  -6    0.17    1.37
 -19 -13   3   70.87    5.38
 -19 -13   2   15.27    2.54
 -19 -13   1   48.76    4.36
 -19 -13   0    9.47    2.38
 -19 -13  -1   26.79    3.30
 -19 -13  -2    4.38    1.89
 -19 -13  -3  123.04    6.49
 -20   0  15    2.67    2.00
 -20   0  14  122.41    6.99
 -20   0  13    2.89    1.88
 -20   0  12   96.93    5.97
 -20   0  11    3.58    2.08
 -20   0  10  474.57   10.96
 -20   0  10  492.11   14.20
 -20   0   9   -0.43    0.72
 -20   0   9    1.80    1.81
 -20   0   8  110.36    3.84
 -20   0   8  102.94    6.02
 -20   0   7   -0.38    0.60
 -20   0   7   -1.64    1.58
 -20   0   6   35.99    3.61
 -20   0   5    0.17    1.51
 -20   0   4  382.83   11.66
 -20   0   3   -0.23    1.56
 -20   0   2  226.00    8.57
 -20   0   1    2.79    1.88
 -20   0   0 1059.63   22.63
 -20   0  -1    3.20    1.77
 -20   0  -2  856.22   19.56
 -20   0  -3    0.69    1.54
 -20   0  -4 1055.74   22.94
 -20   0  -5    1.35    1.59
 -20   0  -6  163.95    7.40
 -20   0  -7    0.53    1.49
 -20   0  -8  277.58   10.09
 -20   0  -9    0.24    1.59
 -20   0 -10  650.10   17.17
 -20   0 -11    0.19    1.94
 -20   0 -12  152.53    7.63
 -20   0 -13   -1.24    1.69
 -20   2  16   77.20    5.72
 -20   2  15   48.73    4.35
 -20   2  14    5.65    1.90
 -20  -2  14    4.68    2.09
 -20   2  13    0.92    1.69
 -20  -2  13    2.23    1.94
 -20  -2  12  348.15   12.24
 -20   2  12  335.30   11.41
 -20   2  11    3.17    1.23
 -20   2  11    2.63    1.79
 -20  -2  11    4.55    2.08
 -20   2  10  259.29    7.60
 -20  -2  10  257.14   10.03
 -20   2  10  250.81    9.44
 -20   2   9    6.76    1.24
 -20   2   9    5.56    1.93
 -20  -2   9    7.39    2.32
 -20   2   8   93.67    5.51
 -20  -2   8   95.67    5.81
 -20  -2   7   -3.30    1.65
 -20   2   7    0.67    1.53
 -20  -2   6    9.08    2.27
 -20   2   6   10.64    2.18
 -20   2   5  160.30    7.11
 -20  -2   5  160.59    7.31
 -20   2   4   32.76    1.39
 -20  -2   4   30.28    3.33
 -20   2   4   29.53    3.25
 -20   2   3  174.51    7.35
 -20  -2   3  163.80    7.34
 -20   2   2  319.82   10.34
 -20  -2   2  312.62   10.46
 -20   2   1   49.60    3.92
 -20  -2   1   51.42    4.13
 -20   2   0    6.06    1.83
 -20  -2   0    5.66    1.94
 -20   2  -1   13.54    2.27
 -20  -2  -1   19.51    2.81
 -20   2  -2  482.45   13.58
 -20  -2  -2  484.60   13.48
 -20   2  -3   50.15    4.09
 -20  -2  -3   46.86    3.87
 -20  -2  -4  292.96   10.01
 -20   2  -4  297.86   10.23
 -20   2  -5   62.94    4.57
 -20  -2  -5   65.66    4.59
 -20  -2  -6   20.95    2.83
 -20   2  -6   19.64    2.83
 -20  -2  -7    0.19    1.51
 -20   2  -7   -0.81    1.74
 -20   2  -8  149.61    7.32
 -20  -2  -8  145.58    7.01
 -20   2  -9   14.15    2.72
 -20  -2  -9    9.82    2.18
 -20   2 -10  285.78   10.65
 -20  -2 -10  267.35    9.95
 -20  -2 -11   21.88    2.86
 -20   2 -11   17.31    2.80
 -20   2 -12   79.26    5.69
 -20  -2 -12   86.40    5.61
 -20  -2 -13    2.47    1.72
 -20  -2 -14   20.44    2.84
  20  -2  15    1.42    1.70
 -20   4  14   48.16    4.26
 -20   4  13   29.24    3.30
 -20   4  12  287.86   10.23
 -20   4  11   21.80    2.89
 -20   4  10  487.54   13.72
 -20   4   9  118.70    6.18
 -20  -4   9  125.17    6.96
 -20   4   8  314.82   10.44
 -20  -4   8  314.79   11.22
 -20  -4   7   28.14    3.45
 -20   4   7   29.69    3.26
 -20   4   6  169.87    7.31
 -20  -4   6  169.91    7.81
 -20  -4   5   15.40    2.66
 -20   4   5   21.93    2.76
 -20   4   4  688.33   16.97
 -20  -4   4  733.86   17.95
 -20   4   3   95.27    5.38
 -20  -4   3   97.74    5.70
 -20   4   2  639.47   16.15
 -20  -4   2  659.53   16.62
 -20   4   1   -1.36    1.63
 -20  -4   1   -2.50    1.64
 -20   4   0  182.87    4.41
 -20   4   0  184.40    7.67
 -20  -4   0  187.46    7.82
 -20   4  -1   48.67    3.96
 -20  -4  -1   44.30    3.82
 -20  -4  -2  607.07   15.67
 -20   4  -2  619.11   16.00
 -20   4  -3   17.40    2.67
 -20  -4  -3   22.45    2.79
 -20  -4  -4  741.58   17.76
 -20   4  -4  733.25   18.15
 -20  -4  -5   45.99    3.93
 -20   4  -5   49.64    4.20
 -20   4  -6  418.44   12.97
 -20  -4  -6  420.25   12.47
 -20   4  -7    2.08    1.62
 -20  -4  -7    2.06    1.49
 -20  -4  -8  438.46   12.96
 -20   4  -8  454.47   13.91
 -20  -4  -9    0.08    1.52
 -20   4  -9    0.83    1.65
 -20   4 -10  317.61   11.60
 -20  -4 -10  302.77   10.59
 -20  -4 -11   23.42    3.02
 -20   4 -11   32.86    3.88
 -20  -4 -12   85.31    5.41
 -20  -4 -13    2.18    1.82
  20  -4  14   67.73    5.38
 -20  -4 -14   58.78    4.72
 -20   6  12  100.05    5.59
 -20   6  11    2.69    1.47
 -20   6  10  207.65    8.30
 -20   6   9  111.70    5.87
 -20   6   8   53.89    4.17
 -20   6   7   13.12    2.43
 -20  -6   7   10.32    2.36
 -20   6   6  142.42    6.73
 -20  -6   6  153.52    7.55
 -20   6   5   18.08    2.52
 -20  -6   5   24.38    3.21
 -20   6   4  415.35   12.23
 -20  -6   4  410.93   12.95
 -20   6   3   47.19    3.95
 -20  -6   3   37.03    3.74
 -20   6   2  203.83    8.19
 -20  -6   2  224.90    8.89
 -20   6   1   10.71    2.26
 -20  -6   1   12.74    2.49
 -20   6   0   90.26    5.36
 -20  -6   0   88.80    5.41
 -20   6  -1   13.19    2.36
 -20  -6  -1   13.57    2.40
 -20  -6  -2   80.87    5.16
 -20   6  -2   83.29    5.28
 -20   6  -3    7.70    2.15
 -20  -6  -3    7.15    1.97
 -20  -6  -4  335.87   10.93
 -20   6  -4  359.86   11.76
 -20   6  -5   22.56    3.11
 -20  -6  -5   19.20    2.65
 -20  -6  -6  285.98    9.98
 -20   6  -6  284.80   10.62
 -20  -6  -7   14.21    2.40
 -20   6  -7   19.00    2.95
 -20  -6  -8  265.85    9.60
 -20   6  -8  273.52   10.58
 -20   6  -9   27.07    3.64
 -20  -6  -9   26.64    3.04
 -20  -6 -10   86.70    5.30
 -20  -6 -11    3.61    1.79
 -20  -6 -12   30.31    3.35
 -20   8  10  114.52    5.89
 -20   8   9   69.16    4.56
 -20   8   8  117.75    5.97
 -20   8   7    0.06    1.41
 -20   8   6  194.95    7.88
 -20   8   5   64.54    4.52
 -20  -8   5   61.98    4.93
 -20   8   4  303.45   10.23
 -20  -8   4  300.71   10.98
 -20   8   3    2.91    1.61
 -20  -8   3    3.37    2.00
 -20   8   2  344.46   11.10
 -20  -8   2  354.49   11.83
 -20   8   1  214.95    8.59
 -20  -8   1  216.93    8.92
 -20   8   0   64.15    4.66
 -20  -8   0   72.75    5.03
 -20   8  -1    4.04    2.00
 -20  -8  -1    1.86    1.61
 -20   8  -2  204.15    8.58
 -20  -8  -2  197.54    8.29
 -20   8  -3   51.61    4.44
 -20  -8  -3   44.69    3.83
 -20   8  -4  221.24    9.13
 -20  -8  -4  201.97    8.27
 -20   8  -5  109.27    6.43
 -20  -8  -5  107.68    5.89
 -20  -8  -6  232.52    8.92
 -20   8  -6  263.80   10.27
 -20  -8  -7    5.61    1.83
 -20   8  -7    4.01    1.87
 -20  -8  -8  199.55    8.12
 -20  -8  -9   17.33    2.66
 -20  -8 -10   79.56    5.01
 -20  10   7   28.10    3.10
 -20  10   6  113.16    5.87
 -20  10   5  123.80    6.25
 -20  10   4  210.91    8.39
 -20 -10   4  213.90    9.29
 -20  10   3    0.12    1.42
 -20 -10   3    1.91    1.82
 -20  10   2  229.80    8.95
 -20 -10   2  239.93    9.78
 -20  10   1   14.57    2.59
 -20 -10   1   17.87    2.93
 -20  10   0  278.96   10.20
 -20 -10   0  269.74   10.15
 -20  10  -1   -0.84    1.69
 -20 -10  -1   -0.56    1.66
 -20  10  -2  269.54   10.30
 -20 -10  -2  271.05   10.03
 -20  10  -3   -0.77    1.71
 -20 -10  -3    0.23    1.47
 -20  10  -4  266.14   10.41
 -20 -10  -4  257.00    9.65
 -20  10  -5   10.03    2.73
 -20 -10  -5    7.48    2.06
 -20 -10  -6  220.06    8.61
 -20 -10  -7    7.28    1.93
 -20  12   4   89.99    5.36
 -20 -12   4   89.59    6.21
 -20  12   3    7.59    2.10
 -20 -12   3   11.52    2.54
 -20  12   2  205.12    8.62
 -20 -12   2  220.64    9.50
 -20  12   1   17.91    2.85
 -20 -12   1   18.01    3.05
 -20  12   0  203.75    8.83
 -20 -12   0  222.54    9.38
 -20 -12  -1    0.83    1.55
 -20 -12  -2  109.71    6.25
 -20 -12  -3    0.59    1.49
 -20 -12  -4  120.56    6.46
 -20 -14   0  162.71    8.28
 -21   1  15  141.56    7.66
 -21   1  14    3.16    1.88
 -21   1  13   18.67    3.08
 -21  -1  13   22.07    3.26
 -21   1  12   -2.00    1.88
 -21  -1  12    0.40    1.79
 -21   1  11   40.72    4.00
 -21  -1  11   36.94    4.00
 -21   1  10    3.84    1.88
 -21  -1  10    5.73    2.24
 -21   1   9   28.33    3.33
 -21  -1   9   34.06    3.77
 -21   1   8    0.43    1.66
 -21  -1   8   -1.46    1.78
 -21   1   7  205.00    8.45
 -21  -1   7  196.68    8.50
 -21  -1   6    3.59    1.86
 -21   1   6    4.25    1.91
 -21   1   5  262.02    9.66
 -21  -1   5  270.95    9.92
 -21   1   4   14.54    2.48
 -21  -1   4   17.63    2.67
 -21   1   3  171.63    7.56
 -21  -1   3  179.78    7.79
 -21   1   2    2.87    1.75
 -21  -1   2    3.06    1.70
 -21  -1   1  157.12    7.24
 -21   1   1  160.41    7.30
 -21   1   0    4.96    1.92
 -21  -1   0    8.81    2.30
 -21   1  -1  123.03    7.24
 -21  -1  -1  125.63    6.42
 -21   1  -2   12.07    2.52
 -21  -1  -2    9.41    2.13
 -21  -1  -3  344.74   11.23
 -21   1  -3  342.17   11.25
 -21  -1  -4   16.76    2.63
 -21   1  -4   16.02    2.71
 -21   1  -5  346.28   11.51
 -21  -1  -5  348.63   11.42
 -21  -1  -6   12.39    2.52
 -21   1  -6   12.40    2.48
 -21  -1  -7  112.54    6.32
 -21   1  -7  111.77    6.34
 -21   1  -8   19.47    3.07
 -21  -1  -8   16.84    2.68
 -21   1  -9    1.16    1.64
 -21  -1  -9    1.58    1.73
 -21  -1 -10    0.55    1.66
 -21   1 -10   -1.08    1.64
 -21   1 -11   95.08    6.15
 -21  -1 -11   98.45    6.11
 -21   1 -12   -0.39    2.00
 -21  -1 -12    0.79    1.61
 -21   1 -13  262.73   10.74
 -21  -1 -13  247.52   10.14
 -21  -1 -14   14.18    2.84
 -21   3  15   45.61    4.36
 -21   3  14   -1.51    1.57
 -21   3  13   59.78    4.81
 -21  -3  12   19.30    3.08
 -21   3  12   22.94    3.13
 -21  -3  11    2.07    1.82
 -21   3  11    0.64    1.54
 -21  -3  10    3.58    1.70
 -21   3  10    4.94    1.92
 -21  -3   9   31.06    3.69
 -21   3   9   33.60    3.46
 -21  -3   8    8.63    2.30
 -21   3   8    9.58    2.24
 -21   3   7  229.33    8.90
 -21  -3   7  233.19    9.51
 -21  -3   6   24.17    3.14
 -21   3   6   22.23    2.89
 -21  -3   5   39.38    3.85
 -21   3   5   36.82    3.59
 -21  -3   4    2.33    1.95
 -21   3   4   -0.72    1.57
 -21   3   3  396.38   12.09
 -21  -3   3  393.96   12.33
 -21   3   2    6.29    1.95
 -21  -3   2    6.97    2.08
 -21   3   1  375.02   11.77
 -21  -3   1  372.93   11.87
 -21   3   0   40.43    3.76
 -21  -3   0   31.23    3.36
 -21  -3  -1  258.34    9.49
 -21   3  -1  250.51    9.44
 -21   3  -2   10.86    2.51
 -21  -3  -2    7.29    2.25
 -21   3  -3  314.01   10.83
 -21  -3  -3  300.12   10.43
 -21  -3  -4    0.58    1.60
 -21   3  -4    1.74    1.73
 -21  -3  -5  515.91   14.50
 -21   3  -5  525.18   14.83
 -21   3  -6    0.79    1.68
 -21  -3  -6    4.43    1.96
 -21  -3  -7  178.76    7.95
 -21   3  -7  191.50    8.54
 -21   3  -8    9.73    2.52
 -21  -3  -8    8.17    2.19
 -21   3  -9   98.05    6.17
 -21  -3  -9   87.27    5.49
 -21  -3 -10    2.06    1.59
 -21   3 -10    2.55    1.84
 -21   3 -11  135.38    7.46
 -21  -3 -11  113.20    6.51
 -21  -3 -12   10.86    2.51
 -21  -3 -13  364.61   12.36
 -21  -3 -14   12.61    2.58
 -21   5  13  109.99    6.23
 -21   5  12   11.03    2.25
 -21   5  11   15.36    2.69
 -21   5  10    7.87    2.25
 -21  -5  10    9.79    2.52
 -21   5   9  106.79    5.93
 -21  -5   9  105.76    6.54
 -21   5   8    2.16    1.74
 -21  -5   8    7.43    2.35
 -21   5   7    5.80    1.83
 -21  -5   7    9.37    2.41
 -21   5   6   31.38    3.38
 -21  -5   6   34.63    3.88
 -21   5   5   52.72    4.18
 -21  -5   5   52.41    4.46
 -21   5   4   30.83    3.36
 -21  -5   4   32.22    3.47
 -21   5   3  183.23    7.86
 -21  -5   3  194.72    8.36
 -21   5   2   -0.62    1.63
 -21  -5   2   -1.24    1.90
 -21   5   1  403.71   12.46
 -21  -5   1  410.40   12.68
 -21   5   0    2.48    1.75
 -21  -5   0    2.04    1.65
 -21   5  -1  250.31    9.47
 -21  -5  -1  235.23    9.21
 -21   5  -2   -0.15    1.58
 -21  -5  -2   -0.28    1.56
 -21  -5  -3  210.35    8.51
 -21   5  -3  204.60    8.65
 -21   5  -4    9.52    2.44
 -21  -5  -4   13.28    2.46
 -21  -5  -5  127.04    6.61
 -21   5  -5  135.09    7.08
 -21   5  -6    0.17    1.61
 -21  -5  -6    1.26    1.60
 -21  -5  -7  288.57   10.33
 -21   5  -7  307.43   11.26
 -21  -5  -8   33.48    3.52
 -21   5  -8   34.07    3.91
 -21   5  -9   21.56    3.11
 -21  -5  -9   21.68    2.97
 -21  -5 -10   19.01    2.85
 -21   5 -10   16.80    2.96
 -21  -5 -11  101.07    6.00
 -21  -5 -12   20.42    2.95
 -21  -5 -13   85.02    5.62
 -21   7  11  134.58    6.64
 -21   7  10   14.99    2.46
 -21   7   9   28.20    3.17
 -21   7   8    2.64    1.65
 -21   7   7   30.41    3.36
 -21  -7   7   32.92    4.06
 -21   7   6   16.04    2.70
 -21  -7   6   16.83    2.81
 -21   7   5   22.09    2.93
 -21  -7   5   24.62    3.62
 -21   7   4   -0.92    1.42
 -21  -7   4    2.40    1.96
 -21   7   3   58.68    4.58
 -21  -7   3   57.10    4.67
 -21   7   2    2.51    1.89
 -21  -7   2    2.61    2.06
 -21   7   1  153.18    7.27
 -21  -7   1  146.54    7.31
 -21   7   0   31.42    3.41
 -21  -7   0   27.69    3.36
 -21   7  -1  137.00    6.99
 -21  -7  -1  137.07    6.94
 -21   7  -2    4.66    2.22
 -21  -7  -2   -2.64    1.77
 -21   7  -3   44.21    4.08
 -21  -7  -3   41.40    3.94
 -21  -7  -4   61.77    4.69
 -21   7  -4   66.27    5.05
 -21  -7  -5   51.43    4.26
 -21   7  -5   58.39    4.83
 -21  -7  -6    4.10    1.61
 -21   7  -6    0.69    1.67
 -21   7  -7  116.03    6.87
 -21  -7  -7   98.91    5.90
 -21  -7  -8   27.67    3.17
 -21   7  -8   35.53    4.01
 -21  -7  -9  147.74    7.18
 -21  -7 -10    0.87    1.49
 -21  -7 -11   13.11    2.41
 -21   9   8    3.37    2.02
 -21   9   7   17.66    2.53
 -21   9   6   33.63    3.46
 -21  -9   6   31.60    3.79
 -21   9   5   46.03    4.04
 -21  -9   5   52.67    4.74
 -21   9   4   14.09    2.48
 -21  -9   4   20.09    3.09
 -21   9   3   57.14    4.53
 -21  -9   3   59.68    4.92
 -21   9   2   14.89    2.73
 -21  -9   2    9.15    2.34
 -21   9   1   49.44    4.24
 -21  -9   1   40.20    4.12
 -21   9   0   61.82    4.78
 -21  -9   0   52.58    4.50
 -21   9  -1  154.83    7.62
 -21  -9  -1  160.83    7.67
 -21   9  -2    7.13    2.07
 -21  -9  -2    1.96    1.57
 -21  -9  -3  113.55    6.39
 -21   9  -3  125.27    6.94
 -21   9  -4    6.38    2.11
 -21  -9  -4    9.22    2.25
 -21   9  -5   39.57    4.16
 -21  -9  -5   35.20    3.66
 -21  -9  -6    3.03    1.65
 -21   9  -6    1.22    1.62
 -21  -9  -7  122.64    6.42
 -21  -9  -8   36.52    3.74
 -21  11   5  191.80    8.09
 -21  11   4   16.74    2.71
 -21  11   3  106.74    6.14
 -21 -11   3  105.05    6.68
 -21  11   2    1.27    1.66
 -21 -11   2    2.84    2.03
 -21  11   1   21.05    2.90
 -21 -11   1   25.38    3.36
 -21  11   0   11.18    2.38
 -21 -11   0   13.14    2.72
 -21  11  -1  137.70    7.30
 -21 -11  -1  130.04    7.09
 -21  11  -2    0.94    1.52
 -21 -11  -2   -0.98    1.54
 -21  11  -3  176.74    8.52
 -21 -11  -3  169.07    7.91
 -21 -11  -4    3.21    1.91
 -21 -11  -5   14.18    2.35
 -21 -13   0    1.13    1.77
 -21 -13  -1   62.15    5.05
 -21 -13  -2    8.70    2.13
 -22   0  13    0.60    1.73
 -22   0  12   25.87    3.43
 -22   0  11   -0.54    1.61
 -22   0  10    6.00    2.10
 -22   0   9    2.50    1.97
 -22   0   8  128.01    6.85
 -22   0   7    0.24    1.62
 -22   0   6    1.61    1.66
 -22   0   5    1.68    1.92
 -22   0   4   10.72    2.38
 -22   0   3   -1.43    1.54
 -22   0   2   99.82    5.91
 -22   0   1    1.89    1.61
 -22   0   0  349.13   11.52
 -22   0  -1    1.38    1.73
 -22   0  -2   40.10    3.87
 -22   0  -3    0.84    1.58
 -22   0  -4  119.65    6.59
 -22   0  -5    2.04    1.89
 -22   0  -6  197.13    8.61
 -22   0  -7   -1.35    1.96
 -22   0  -8    1.88    1.76
 -22   0  -9   -1.23    1.77
 -22   0 -10   15.82    2.97
 -22   0 -11   -1.67    1.62
 -22   0 -12    2.92    1.75
 -22   2  14   32.12    3.93
 -22   2  13    3.42    1.93
 -22   2  12    7.96    2.27
 -22  -2  11   13.37    2.65
 -22   2  11   14.25    2.64
 -22  -2  10   29.37    3.75
 -22   2  10   29.50    3.48
 -22  -2   9    6.40    1.99
 -22   2   9    8.11    2.35
 -22  -2   8    8.21    2.29
 -22   2   8    3.00    1.72
 -22  -2   7   43.15    4.20
 -22   2   7   37.38    3.73
 -22  -2   6    8.06    2.31
 -22   2   6    6.72    2.03
 -22  -2   5    5.22    1.80
 -22   2   5   11.43    2.31
 -22   2   4   88.90    5.60
 -22  -2   4   98.64    5.99
 -22   2   3   57.85    4.61
 -22  -2   3   50.31    4.29
 -22   2   2   66.68    4.83
 -22  -2   2   73.33    5.05
 -22   2   1    9.45    2.31
 -22  -2   1   12.12    2.47
 -22   2   0    0.68    1.70
 -22  -2   0    1.25    1.71
 -22  -2  -1   63.97    4.77
 -22   2  -1   53.60    4.41
 -22   2  -2   17.88    2.92
 -22  -2  -2   21.73    2.97
 -22   2  -3    0.72    1.61
 -22  -2  -3    2.46    1.82
 -22   2  -4    4.01    1.99
 -22  -2  -4    1.52    1.58
 -22   2  -5   22.00    3.16
 -22  -2  -5   24.00    3.24
 -22  -2  -6  101.78    6.06
 -22   2  -6   99.94    6.10
 -22  -2  -7    2.16    1.81
 -22   2  -7   -0.04    1.75
 -22   2  -8   17.30    2.95
 -22  -2  -8   18.16    2.95
 -22   2  -9    0.96    1.60
 -22  -2  -9    3.03    1.91
 -22   2 -10   65.48    5.24
 -22  -2 -10   61.12    4.89
 -22  -2 -11    3.98    2.09
 -22   2 -11    3.01    1.96
 -22  -2 -12    7.26    2.12
 -22  -2 -13    3.86    1.96
 -22   4  13    2.15    1.60
 -22   4  12   19.88    3.05
 -22   4  11    4.21    1.90
 -22  -4  10    8.70    2.62
 -22   4  10   12.40    2.44
 -22  -4   9   43.56    4.45
 -22   4   9   40.13    3.86
 -22  -4   8    3.93    2.09
 -22   4   8   -0.46    1.61
 -22   4   7   97.01    5.84
 -22  -4   7  111.96    6.60
 -22  -4   6    0.05    1.86
 -22   4   6    0.46    1.59
 -22  -4   5   10.75    2.57
 -22   4   5    5.26    1.87
 -22   4   4    0.19    1.52
 -22  -4   4   -1.76    1.75
 -22   4   3   15.18    2.73
 -22  -4   3   11.73    2.54
 -22   4   2   12.36    2.51
 -22  -4   2    8.86    2.30
 -22   4   1   78.28    5.29
 -22  -4   1   80.64    5.39
 -22   4   0    0.08    1.59
 -22  -4   0    0.31    1.62
 -22   4  -1  200.68    8.60
 -22  -4  -1  210.66    8.79
 -22   4  -2   58.87    4.66
 -22  -4  -2   59.58    4.67
 -22   4  -3    0.79    1.60
 -22  -4  -3    2.54    1.85
 -22   4  -4   19.50    3.11
 -22  -4  -4   16.60    2.74
 -22   4  -5   11.18    2.49
 -22  -4  -5    8.50    2.21
 -22  -4  -6    8.17    2.32
 -22   4  -6    2.95    1.61
 -22   4  -7    3.68    2.05
 -22  -4  -7    0.37    1.63
 -22  -4  -8   38.14    3.84
 -22   4  -8   39.90    4.12
 -22  -4  -9   11.54    2.47
 -22   4  -9   12.03    2.67
 -22  -4 -10   27.17    3.42
 -22  -4 -11   -1.50    1.58
 -22  -4 -12   -1.30    1.67
 -22  -4 -13    2.37    1.65
 -22   6  11    2.35    1.70
 -22   6  10   11.86    2.43
 -22   6   9   11.26    2.40
 -22   6   8   12.26    2.47
 -22  -6   8   12.58    2.73
 -22   6   7   11.87    2.47
 -22  -6   7    9.19    2.61
 -22   6   6   36.58    3.78
 -22  -6   6   28.78    3.65
 -22   6   5   20.05    2.91
 -22  -6   5   24.47    3.39
 -22   6   4   31.04    3.50
 -22  -6   4   34.65    3.95
 -22   6   3   70.04    5.05
 -22  -6   3   75.33    5.42
 -22   6   2   30.85    3.43
 -22  -6   2   28.41    3.39
 -22   6   1   13.15    2.67
 -22  -6   1    5.79    2.07
 -22   6   0    1.80    1.89
 -22  -6   0   -0.34    1.82
 -22   6  -1   60.49    4.76
 -22  -6  -1   65.33    4.93
 -22   6  -2    0.36    1.65
 -22  -6  -2   -0.77    1.78
 -22   6  -3   37.91    3.95
 -22  -6  -3   37.35    3.74
 -22   6  -4   74.50    5.39
 -22  -6  -4   75.95    5.22
 -22  -6  -5    8.47    2.30
 -22   6  -5    9.00    2.31
 -22  -6  -6   25.05    3.19
 -22   6  -6   34.90    3.96
 -22  -6  -7   28.12    3.38
 -22   6  -7   24.53    3.59
 -22  -6  -8    1.30    1.59
 -22   6  -8    3.61    2.22
 -22  -6  -9    5.03    2.13
 -22  -6 -10   20.87    2.96
 -22  -6 -11    2.39    1.63
 -22   8   9    1.78    1.68
 -22   8   8    0.67    1.50
 -22   8   7    6.60    1.88
 -22   8   6    4.84    2.06
 -22  -8   6    8.54    2.71
 -22   8   5    9.75    2.17
 -22  -8   5    5.83    2.00
 -22   8   4    6.23    2.19
 -22  -8   4    7.45    2.27
 -22   8   3    2.06    1.69
 -22  -8   3    3.93    1.89
 -22   8   2    9.23    2.34
 -22  -8   2   15.20    2.77
 -22   8   1   58.85    4.71
 -22  -8   1   63.05    4.97
 -22   8   0    8.53    2.16
 -22  -8   0   14.13    2.69
 -22   8  -1   48.21    4.29
 -22  -8  -1   46.32    4.31
 -22   8  -2    6.31    2.28
 -22  -8  -2    3.68    1.89
 -22   8  -3    8.89    2.43
 -22  -8  -3   10.77    2.57
 -22   8  -4   43.56    4.40
 -22  -8  -4   34.14    3.70
 -22   8  -5    3.91    1.94
 -22  -8  -5    5.09    1.96
 -22  -8  -6   -0.18    1.61
 -22   8  -6   -0.54    2.05
 -22  -8  -7   71.80    5.03
 -22  -8  -8    3.31    1.73
 -22  -8  -9    2.06    1.66
 -22  10   6   23.41    3.04
 -22  10   5    8.12    2.33
 -22  10   4   16.16    2.80
 -22  10   3   -4.19    1.94
 -22 -10   3   -4.09    2.12
 -22  10   2    2.38    1.65
 -22 -10   2    1.51    1.75
 -22  10   1    4.24    2.17
 -22 -10   1    2.10    1.98
 -22  10   0   -0.95    1.71
 -22 -10   0    0.86    1.74
 -22  10  -1   34.03    3.94
 -22 -10  -1   35.83    3.92
 -22  10  -2    2.96    2.06
 -22 -10  -2    0.95    1.64
 -22  10  -3   35.47    3.94
 -22 -10  -3   30.73    3.67
 -22 -10  -4    4.14    1.99
 -22 -10  -5    4.81    2.03
 -22 -10  -6   34.33    3.63
 -22  12   3    2.89    1.72
 -22  12   2    3.01    1.72
 -22  12   1    5.54    2.11
 -22  12   0    1.07    1.80
 -22 -12   0    0.63    1.74
 -22 -12  -1    8.50    2.50
 -22 -12  -2   31.97    3.63
 -22 -12  -3    7.17    2.03
 -23   1  12    6.95    2.41
 -23   1  11  129.10    7.24
 -23  -1  11  132.69    7.55
 -23  -1  10    1.98    1.88
 -23   1  10    4.12    2.13
 -23  -1   9   31.83    3.85
 -23   1   9   34.31    3.72
 -23  -1   8    9.50    2.35
 -23   1   8   11.40    2.40
 -23   1   7  208.69    9.04
 -23  -1   7  199.61    9.01
 -23   1   6   25.39    3.33
 -23  -1   6   29.98    3.60
 -23   1   5  421.56   13.35
 -23  -1   5  420.92   13.41
 -23   1   4   16.53    2.91
 -23  -1   4   11.82    2.56
 -23  -1   3  173.59    8.10
 -23   1   3  171.12    7.98
 -23   1   2    7.71    2.28
 -23  -1   2    8.41    2.40
 -23  -1   1  344.83   11.75
 -23   1   1  336.81   11.60
 -23   1   0   33.71    3.70
 -23  -1   0   29.44    3.53
 -23  -1  -1  560.37   15.76
 -23   1  -1  555.85   15.71
 -23   1  -2    3.64    1.75
 -23  -1  -2    4.25    1.88
 -23   1  -3  302.14   11.04
 -23  -1  -3  303.35   10.94
 -23  -1  -4   12.76    2.62
 -23   1  -4   10.06    2.48
 -23   1  -5   21.87    3.09
 -23  -1  -5   24.33    3.26
 -23  -1  -6    0.12    1.64
 -23   1  -6    0.08    1.81
 -23   1  -7   41.71    4.08
 -23  -1  -7   43.26    4.17
 -23   1  -8    0.20    1.65
 -23  -1  -8    0.29    1.74
 -23   1  -9  369.47   12.85
 -23  -1  -9  367.66   12.68
 -23   1 -10    0.72    1.83
 -23  -1 -10    2.24    1.61
 -23  -1 -11   63.84    5.18
 -23   3  13  186.21    8.76
 -23   3  12    3.20    1.80
 -23   3  11  101.96    6.32
 -23   3  10    1.03    2.02
 -23  -3   9   21.91    3.19
 -23   3   9   22.68    3.16
 -23  -3   8   -0.17    2.01
 -23   3   8    1.82    1.77
 -23   3   7  172.45    8.11
 -23  -3   7  182.19    8.60
 -23  -3   6    1.34    1.89
 -23   3   6    2.97    1.83
 -23   3   5  200.83    8.75
 -23  -3   5  212.83    9.18
 -23  -3   4   19.12    2.95
 -23   3   4   20.83    3.01
 -23   3   3  183.44    8.26
 -23  -3   3  182.39    8.38
 -23   3   2    1.17    1.63
 -23  -3   2    1.27    1.85
 -23   3   1  108.26    6.30
 -23  -3   1  108.95    6.41
 -23   3   0   16.84    2.71
 -23  -3   0   20.14    3.11
 -23  -3  -1  328.84   11.55
 -23   3  -1  330.71   11.55
 -23   3  -2    3.15    1.99
 -23  -3  -2    3.06    1.95
 -23   3  -3  377.31   12.49
 -23  -3  -3  351.41   12.04
 -23   3  -4   97.15    6.17
 -23  -3  -4   90.42    5.82
 -23  -3  -5   21.16    3.08
 -23   3  -5   17.01    2.87
 -23   3  -6    1.40    1.81
 -23  -3  -6    4.00    1.67
 -23  -3  -7  112.36    6.60
 -23   3  -7  113.52    6.80
 -23   3  -8   -0.30    1.72
 -23  -3  -8    1.96    1.67
 -23  -3  -9  212.48    9.19
 -23  -3 -10   61.29    5.07
 -23  -3 -11   21.65    3.12
 -23  -3 -12   22.05    3.27
 -23   5  12    0.15    1.60
 -23   5  11  124.65    6.83
 -23   5  10   31.72    3.54
 -23   5   9   55.35    4.62
 -23   5   8    1.16    1.73
 -23   5   7  121.22    6.68
 -23  -5   7  138.92    7.65
 -23   5   6    4.61    1.77
 -23  -5   6    8.74    2.53
 -23   5   5  428.34   13.37
 -23  -5   5  444.44   14.28
 -23   5   4   40.10    3.97
 -23  -5   4   36.10    3.90
 -23   5   3  184.07    8.26
 -23  -5   3  172.22    8.29
 -23   5   2   17.13    3.01
 -23  -5   2   11.25    2.53
 -23   5   1  118.26    6.68
 -23  -5   1  119.91    6.73
 -23   5   0   37.92    3.95
 -23  -5   0   33.47    3.84
 -23   5  -1  257.48   10.12
 -23  -5  -1  246.18    9.92
 -23   5  -2   23.96    3.33
 -23  -5  -2   19.52    3.11
 -23  -5  -3  314.28   11.16
 -23   5  -3  292.43   11.11
 -23   5  -4   46.86    4.32
 -23  -5  -4   43.15    4.07
 -23   5  -5   88.29    6.06
 -23  -5  -5   82.05    5.57
 -23   5  -6    9.85    2.46
 -23  -5  -6    9.05    2.29
 -23   5  -7   25.65    3.52
 -23  -5  -7   28.94    3.52
 -23  -5  -8   83.12    5.66
 -23  -5  -9  109.14    6.53
 -23  -5 -10   17.30    2.82
 -23  -5 -11   15.60    2.64
 -23  -5 -12   -1.16    1.83
 -23   7  10   46.22    4.11
 -23   7   9   16.51    2.69
 -23   7   8   12.19    2.44
 -23   7   7  117.62    6.57
 -23   7   6   14.91    2.64
 -23   7   5  175.24    8.06
 -23  -7   5  177.82    8.81
 -23   7   4    9.07    2.32
 -23  -7   4    9.69    2.39
 -23   7   3  100.91    6.15
 -23  -7   3  110.63    6.67
 -23   7   2   29.55    3.53
 -23  -7   2   34.37    3.82
 -23   7   1   98.82    6.12
 -23  -7   1   97.92    6.27
 -23   7   0   31.31    3.73
 -23  -7   0   31.14    3.70
 -23   7  -1  166.90    8.06
 -23  -7  -1  157.43    7.91
 -23   7  -2    2.24    1.93
 -23  -7  -2    1.85    1.73
 -23  -7  -3  267.72   10.37
 -23   7  -3  286.33   10.95
 -23   7  -4   11.59    2.68
 -23  -7  -4   12.91    2.60
 -23  -7  -5   90.83    5.88
 -23   7  -5   98.85    6.51
 -23  -7  -6    4.11    1.99
 -23  -7  -7   84.69    5.70
 -23  -7  -8   68.98    5.08
 -23  -7  -9  281.10   10.67
 -23  -7 -10   10.82    2.37
 -23   9   7  160.56    7.67
 -23   9   6   11.70    2.56
 -23   9   5   81.03    5.46
 -23   9   4    6.58    2.12
 -23   9   3   90.42    5.84
 -23   9   2   19.87    3.00
 -23  -9   2   16.11    3.01
 -23   9   1   97.00    6.15
 -23  -9   1   98.19    6.28
 -23   9   0    1.78    1.83
 -23  -9   0   -1.27    1.65
 -23   9  -1  131.83    7.30
 -23  -9  -1  127.45    7.24
 -23   9  -2   -0.87    1.59
 -23  -9  -2   -2.05    1.76
 -23  -9  -3   92.75    6.04
 -23  -9  -4   62.57    4.91
 -23  -9  -5   14.04    2.58
 -23  -9  -6    2.20    1.72
 -23  -9  -7   66.46    5.04
 -23  11   4   64.40    4.97
 -23  11   3   29.95    3.65
 -23  11   2    6.53    2.13
 -23  11   1   84.14    6.03
 -23 -11  -1   78.47    5.73
 -23 -11  -2    3.96    1.90
 -23 -11  -3   22.64    3.19
 -23 -11  -4   26.05    3.41
 -24   0  10   56.92    4.97
 -24   0   9    0.08    1.58
 -24   0   8  351.01   12.47
 -24   0   7   -0.09    1.66
 -24   0   6   60.41    4.92
 -24   0   5   -2.42    2.19
 -24   0   4   26.54    3.44
 -24   0   3    1.83    1.81
 -24   0   2  382.25   12.80
 -24   0   1    2.36    1.92
 -24   0   0  327.33   11.66
 -24   0  -1   -1.11    1.79
 -24   0  -2   79.11    5.50
 -24   0  -3    3.44    2.22
 -24   0  -4  522.20   15.55
 -24   0  -5    2.80    1.75
 -24   0  -6  653.77   18.08
 -24   0  -7    0.08    1.68
 -24   0  -8  119.07    7.06
 -24   0  -9    0.12    1.75
 -24   2  11    1.13    1.77
 -24   2  10  112.10    6.76
 -24   2   9   19.62    3.12
 -24   2   8  452.99   14.25
 -24  -2   8  435.22   14.39
 -24  -2   7    1.42    1.76
 -24   2   7    5.61    2.31
 -24   2   6   93.35    6.02
 -24  -2   6   93.90    6.20
 -24   2   5    1.47    1.86
 -24  -2   5    4.26    2.10
 -24   2   4   47.28    4.26
 -24  -2   4   46.85    4.49
 -24   2   3    8.77    2.30
 -24  -2   3    9.16    2.33
 -24   2   2  369.13   12.48
 -24  -2   2  369.87   12.64
 -24   2   1    1.02    1.72
 -24  -2   1    2.63    2.18
 -24  -2   0   75.94    5.44
 -24   2   0   71.28    5.29
 -24   2  -1   17.61    2.96
 -24  -2  -1   18.62    2.91
 -24   2  -2   -0.55    1.86
 -24  -2  -2    1.60    1.67
 -24   2  -3   36.11    4.02
 -24  -2  -3   30.06    3.60
 -24   2  -4   99.13    6.26
 -24  -2  -4   91.72    6.03
 -24  -2  -5    0.04    1.64
 -24   2  -5    1.80    2.40
 -24  -2  -6  106.81    6.54
 -24   2  -6  100.69    6.48
 -24   2  -7   17.56    3.08
 -24  -2  -7   21.91    3.30
 -24  -2  -8    9.42    2.44
 -24  -2  -9    0.83    1.99
 -24   4  11    6.58    2.02
 -24   4  10   59.00    4.86
 -24   4   9    0.12    1.71
 -24   4   8  256.61   10.19
 -24  -4   7    0.39    1.91
 -24   4   7    0.23    1.60
 -24   4   6   59.81    4.79
 -24  -4   6   70.29    5.51
 -24   4   5   -1.37    1.96
 -24  -4   5    1.85    1.79
 -24   4   4  226.75    9.49
 -24  -4   4  223.57    9.70
 -24   4   3   48.43    4.42
 -24  -4   3   45.17    4.49
 -24   4   2  548.66   15.90
 -24  -4   2  552.84   16.22
 -24   4   1    7.71    2.34
 -24  -4   1    4.79    2.07
 -24   4   0  195.74    8.84
 -24  -4   0  203.93    9.06
 -24   4  -1    1.26    1.91
 -24  -4  -1    0.19    1.90
 -24   4  -2   85.98    5.86
 -24  -4  -2   73.90    5.46
 -24   4  -3   15.16    2.89
 -24  -4  -3   17.43    2.90
 -24  -4  -4  156.86    7.92
 -24   4  -4  159.79    8.04
 -24   4  -5   -2.10    1.83
 -24  -4  -5   -1.60    2.11
 -24  -4  -6  279.07   10.83
 -24   4  -6  294.25   11.44
 -24  -4  -7   -3.33    1.77
 -24  -4  -8   79.36    5.72
 -24  -4  -9    1.93    1.64
 -24  -4 -10   30.63    3.78
 -24   6  10   96.20    6.11
 -24   6   9    0.24    1.59
 -24   6   8   75.02    5.41
 -24   6   7   11.81    2.53
 -24   6   6   69.70    5.19
 -24   6   5    9.64    2.32
 -24   6   4  165.26    7.98
 -24  -6   4  156.71    8.27
 -24   6   3   39.89    4.12
 -24  -6   3   43.43    4.35
 -24   6   2  284.33   10.91
 -24  -6   2  293.03   11.30
 -24   6   1    1.26    1.72
 -24  -6   1    1.62    1.80
 -24   6   0  143.34    7.58
 -24  -6   0  126.36    7.17
 -24   6  -1   -1.02    1.87
 -24  -6  -1    0.46    1.85
 -24   6  -2    7.43    2.38
 -24  -6  -2    5.57    1.89
 -24   6  -3   81.81    5.88
 -24  -6  -3   77.78    5.55
 -24  -6  -4  128.30    7.23
 -24   6  -4  145.89    7.82
 -24  -6  -5    2.83    1.63
 -24  -6  -6  190.55    8.84
 -24  -6  -7    8.79    2.17
 -24  -6  -8   34.38    3.80
 -24  -6  -9    1.90    1.75
 -24  -6 -10   90.03    6.06
 -24   8   8  108.92    6.43
 -24   8   7   60.39    4.89
 -24   8   6   91.34    5.90
 -24   8   5    3.72    1.99
 -24   8   4  121.38    6.90
 -24   8   3   31.18    3.65
 -24   8   2  219.68    9.46
 -24   8   1   19.53    3.02
 -24  -8   1    8.97    2.34
 -24   8   0   76.86    5.63
 -24  -8   0   79.02    5.78
 -24   8  -1   14.25    2.68
 -24  -8  -1   11.83    2.61
 -24  -8  -2  123.97    7.17
 -24  -8  -3    0.85    1.78
 -24  -8  -4  177.07    8.45
 -24  -8  -5    3.27    1.96
 -24  -8  -6   91.12    5.98
 -24  -8  -7  147.92    7.68
 -24  -8  -8  247.85   10.22
 -24  10   5   -0.10    1.69
 -24  10   4   51.49    4.56
 -24  10   3   87.28    5.91
 -24  10   2   34.69    3.84
 -24 -10  -4   73.41    5.71
 -24 -10  -5    3.36    1.98
 -25   1   8    7.64    2.22
 -25   1   7    7.06    2.29
 -25  -1   7    6.46    2.40
 -25   1   6    4.87    2.13
 -25  -1   6    3.40    2.08
 -25   1   5   20.69    3.08
 -25  -1   5   27.42    3.57
 -25   1   4   32.33    3.76
 -25  -1   4   36.22    4.07
 -25   1   3   -2.29    2.10
 -25  -1   3    2.28    1.86
 -25   1   2    1.12    1.63
 -25  -1   2   -1.25    1.75
 -25   1   1    8.92    2.30
 -25  -1   1    9.23    2.48
 -25   1   0    1.56    1.83
 -25  -1   0   -0.80    1.99
 -25   1  -1   48.48    4.54
 -25  -1  -1   51.88    4.65
 -25  -1  -2    0.07    1.69
 -25   1  -2   -2.66    2.08
 -25  -1  -3   28.34    3.64
 -25   1  -3   33.50    3.94
 -25   1  -4   35.09    4.01
 -25  -1  -4   38.96    4.17
 -25  -1  -5   28.10    3.73
 -25   1  -5   33.97    4.14
 -25  -1  -6   45.65    4.49
 -25   1  -6   38.62    4.11
 -25  -1  -7    1.35    1.76
 -25   3   9    2.39    1.99
 -25   3   8    7.93    2.46
 -25   3   7   -2.66    1.65
 -25   3   6    0.52    1.71
 -25   3   5    1.56    1.82
 -25  -3   5    2.52    2.20
 -25   3   4    8.13    2.40
 -25  -3   4    9.59    2.38
 -25   3   3   18.48    3.03
 -25  -3   3   17.24    2.97
 -25   3   2    1.67    1.89
 -25  -3   2   -1.79    1.86
 -25   3   1   35.92    4.05
 -25  -3   1   46.07    4.44
 -25  -3   0  150.46    7.95
 -25   3   0  151.27    7.86
 -25   3  -1    8.54    2.38
 -25  -3  -1    2.72    2.20
 -25   3  -2   33.89    4.00
 -25  -3  -2   35.62    3.86
 -25  -3  -3   81.94    5.84
 -25   3  -3   80.29    5.91
 -25  -3  -4   -1.07    1.62
 -25   3  -4    4.57    2.20
 -25  -3  -5   18.67    3.33
 -25  -3  -6    4.18    1.94
 -25  -3  -7   28.87    3.64
 -25   5   9   24.01    3.40
 -25   5   8   23.80    3.23
 -25   5   7    9.18    2.42
 -25   5   6    0.29    1.68
 -25   5   5   16.98    2.98
 -25   5   4   44.89    4.37
 -25   5   3    1.00    1.67
 -25  -5   3    3.99    2.21
 -25   5   2    4.67    2.05
 -25  -5   2    4.43    2.25
 -25   5   1   11.74    2.66
 -25  -5   1   11.16    2.82
 -25   5   0    5.08    2.14
 -25  -5   0    2.30    1.89
 -25   5  -1  137.23    7.53
 -25  -5  -1  124.26    7.17
 -25   5  -2    4.46    2.10
 -25  -5  -2    7.34    2.31
 -25  -5  -3   44.30    4.42
 -25  -5  -4  151.90    7.96
 -25  -5  -5   15.23    2.92
 -25  -5  -6   82.37    5.93
 -25  -5  -7   39.63    4.27
 -25   7   8   -1.92    2.01
 -25   7   7    0.19    1.62
 -25   7   6   29.25    3.69
 -25   7   5    4.21    1.96
 -25   7   4    7.43    2.17
 -25   7   3    2.24    1.89
 -25   7   2   -1.14    1.88
 -25   7   1   -2.02    1.97
 -25  -7  -1    4.06    2.12
 -25  -7  -2   48.66    4.69
 -25  -7  -3   24.03    3.54
 -25  -7  -4   23.63    3.47
 -25  -7  -5    1.50    1.89
 -25  -7  -6   50.48    4.66
 -26   0   4  139.18    7.71
 -26   0   3   -0.68    1.79
 -26   0   2   22.95    3.39
 -26   0   1   -1.79    2.02
 -26   0   0  149.73    8.00
 -26   0  -1   -2.72    2.08
 -26   0  -2  173.15    8.70
 -26   0  -3    0.50    1.78
 -26   2   5   29.25    3.75
 -26   2   4   75.84    5.82
 -26   2   3   -2.77    1.83
 -26   2   2    2.70    1.71
 -26  -2   2    4.32    2.42
 -26   2   1    3.95    1.95
 -26  -2   1    2.11    2.17
 -26   2   0   52.23    4.92
 -26  -2   0   50.20    4.77
 -26   2  -1   20.62    3.30
 -26  -2  -1   20.16    3.30
 -26  -2  -2  149.66    8.00
 -26  -2  -3    3.25    1.92
 -26   4   4   40.28    4.23
 -26   4   3    5.23    2.26
 -26   4   2    4.73    2.10
 -26   4   1    7.97    2.77
   0   0   0    0.00    0.00


TITL pvl854B_autored in C2/c
REM C2/c (#15 in standard setting)
CELL 0.71073  21.541462  14.097818  15.986972  90.0000  90.9437  90.0000
ZERR   54.00   0.000824   0.000504   0.000553   0.0000   0.0032   0.0000
LATT  7
SYMM -x, y,-z+1/2
SFAC C H N O S Zn
UNIT 54.00 54.00 54.00 54.00 54.00 54.00
REM  CrysAlisPro recorded range (K): Min=130.0; max=130.0; aver:130.0
TEMP -143
TREF
HKLF 4
END
_computing_structure_solution     'SHELXT 2014/5 (Sheldrick, 2014)'
;
_shelx_hkl_checksum   23551

