 
data_pvl1148_a
 
_audit_creation_method            'SHELXL-2019/3'
_shelx_SHELXL_version_number      '2019/3'
_chemical_name_systematic         ?
_chemical_name_common             ?
_chemical_melting_point           ?
_chemical_formula_moiety          ?
_chemical_formula_sum
 'C4 H0.02 Cl0.29 N0.71 O S0.29 Zn0.14' 
_chemical_formula_weight          102.69

loop_
 _atom_type_symbol
 _atom_type_description
 _atom_type_scat_dispersion_real
 _atom_type_scat_dispersion_imag
 _atom_type_scat_source
 'C'  'C'   0.0033   0.0016
 'International Tables Vol C Tables 4.2.6.8 and 6.1.1.4'
 'N'  'N'   0.0061   0.0033
 'International Tables Vol C Tables 4.2.6.8 and 6.1.1.4'
 'O'  'O'   0.0106   0.0060
 'International Tables Vol C Tables 4.2.6.8 and 6.1.1.4'
 'S'  'S'   0.1246   0.1234
 'International Tables Vol C Tables 4.2.6.8 and 6.1.1.4'
 'Zn'  'Zn'   0.2839   1.4301
 'International Tables Vol C Tables 4.2.6.8 and 6.1.1.4'
 'Cl'  'Cl'   0.1484   0.1585
 'International Tables Vol C Tables 4.2.6.8 and 6.1.1.4'
 'H'  'H'   0.0000   0.0000
 'International Tables Vol C Tables 4.2.6.8 and 6.1.1.4'
 
_space_group_crystal_system       monoclinic
_space_group_IT_number            15
_space_group_name_H-M_alt         'C 2/c'
_space_group_name_Hall            '-C 2yc'
 
_shelx_space_group_comment
;
The symmetry employed for this shelxl refinement is uniquely defined
by the following loop, which should always be used as a source of
symmetry information in preference to the above space-group names.
They are only intended as comments.
;
 
loop_
 _space_group_symop_operation_xyz
 'x, y, z'
 '-x, y, -z+1/2'
 'x+1/2, y+1/2, z'
 '-x+1/2, y+1/2, -z+1/2'
 '-x, -y, -z'
 'x, -y, z-1/2'
 '-x+1/2, -y+1/2, -z'
 'x+1/2, -y+1/2, z-1/2'
 
_cell_length_a                    23.0704(11)
_cell_length_b                    11.2726(6)
_cell_length_c                    26.0739(12)
_cell_angle_alpha                 90
_cell_angle_beta                  113.9740(10)
_cell_angle_gamma                 90
_cell_volume                      6195.9(5)
_cell_formula_units_Z             56
_cell_measurement_temperature     150(2)
_cell_measurement_reflns_used     ?
_cell_measurement_theta_min       ?
_cell_measurement_theta_max       ?
 
_exptl_crystal_description        ?
_exptl_crystal_colour             ?
_exptl_crystal_density_meas       ?
_exptl_crystal_density_method     ?
_exptl_crystal_density_diffrn     1.541          
_exptl_crystal_F_000              2841
_exptl_transmission_factor_min    ?
_exptl_transmission_factor_max    ?
_exptl_crystal_size_max           ?
_exptl_crystal_size_mid           ?
_exptl_crystal_size_min           ?
_exptl_absorpt_coefficient_mu     1.153
_shelx_estimated_absorpt_T_min    ?
_shelx_estimated_absorpt_T_max    ?
_exptl_absorpt_correction_type    ?
_exptl_absorpt_correction_T_min   ?
_exptl_absorpt_correction_T_max   ?
_exptl_absorpt_process_details    ?
_exptl_absorpt_special_details    ?
_diffrn_ambient_temperature       150(2)
_diffrn_radiation_wavelength      0.71073
_diffrn_radiation_type            MoK\a
_diffrn_source                    ?
_diffrn_measurement_device_type   ?
_diffrn_measurement_method        ?
_diffrn_detector_area_resol_mean  ?
_diffrn_reflns_number             26957
_diffrn_reflns_av_unetI/netI      0.0913
_diffrn_reflns_av_R_equivalents   0.1067
_diffrn_reflns_limit_h_min        -28
_diffrn_reflns_limit_h_max        28
_diffrn_reflns_limit_k_min        -13
_diffrn_reflns_limit_k_max        12
_diffrn_reflns_limit_l_min        -31
_diffrn_reflns_limit_l_max        31
_diffrn_reflns_theta_min          1.932
_diffrn_reflns_theta_max          25.709
_diffrn_reflns_theta_full         25.242
_diffrn_measured_fraction_theta_max   0.998
_diffrn_measured_fraction_theta_full  0.999
_diffrn_reflns_Laue_measured_fraction_max    0.998
_diffrn_reflns_Laue_measured_fraction_full   0.999
_diffrn_reflns_point_group_measured_fraction_max   0.998
_diffrn_reflns_point_group_measured_fraction_full  0.999
_reflns_number_total              5892
_reflns_number_gt                 3544
_reflns_threshold_expression      'I > 2\s(I)'
_reflns_Friedel_coverage          0.000
_reflns_Friedel_fraction_max      .
_reflns_Friedel_fraction_full     .
 
_reflns_special_details
;
 Reflections were merged by SHELXL according to the crystal
 class for the calculation of statistics and refinement.
 
 _reflns_Friedel_fraction is defined as the number of unique
 Friedel pairs measured divided by the number that would be
 possible theoretically, ignoring centric projections and
 systematic absences.
;
 
_computing_data_collection        ?
_computing_cell_refinement        ?
_computing_data_reduction         ?
_computing_structure_solution     'SHELXT 2018/2 (Sheldrick, 2018)'
_computing_structure_refinement 'SHELXL-2019/2 (Sheldrick, 2019)'
_computing_molecular_graphics     ?
_computing_publication_material   ?
_refine_special_details           ?
_refine_ls_structure_factor_coef  Fsqd
_refine_ls_matrix_type            full
_refine_ls_weighting_scheme       calc
_refine_ls_weighting_details
'w=1/[\s^2^(Fo^2^)+(0.1000P)^2^] where P=(Fo^2^+2Fc^2^)/3'
_atom_sites_solution_primary      ?
_atom_sites_solution_secondary    ?
_atom_sites_solution_hydrogens    .
_refine_ls_hydrogen_treatment     undef
_refine_ls_extinction_method      none
_refine_ls_extinction_coef        .
_refine_ls_number_reflns          5892
_refine_ls_number_parameters      390
_refine_ls_number_restraints      0
_refine_ls_R_factor_all           0.1581
_refine_ls_R_factor_gt            0.1004
_refine_ls_wR_factor_ref          0.3018
_refine_ls_wR_factor_gt           0.2730
_refine_ls_goodness_of_fit_ref    1.651
_refine_ls_restrained_S_all       1.651
_refine_ls_shift/su_max           5.402
_refine_ls_shift/su_mean          0.257
 
loop_
 _atom_site_label
 _atom_site_type_symbol
 _atom_site_fract_x
 _atom_site_fract_y
 _atom_site_fract_z
 _atom_site_U_iso_or_equiv
 _atom_site_adp_type
 _atom_site_occupancy
 _atom_site_site_symmetry_order  
 _atom_site_calc_flag
 _atom_site_refinement_flags_posn
 _atom_site_refinement_flags_adp
 _atom_site_refinement_flags_occupancy
 _atom_site_disorder_assembly
 _atom_site_disorder_group
Zn1 Zn 0.09905(5) 0.76424(9) 0.03151(4) 0.0338(4) Uani 1 1 d . . . . .
S1 S 0.27448(16) 1.4347(3) 0.10232(15) 0.0658(10) Uani 1 1 d . . . . .
S2 S 0.14889(14) 0.1347(3) 0.22788(10) 0.0546(8) Uani 1 1 d . . . . .
O1 O 0.1413(3) 0.6546(7) 0.0991(3) 0.0543(19) Uani 1 1 d . . . . .
O5 O 0.1698(4) 0.2911(6) 0.4844(3) 0.0442(17) Uani 1 1 d . . . . .
O6 O 0.0740(3) 0.2128(6) 0.4477(3) 0.0467(18) Uani 1 1 d . . . . .
O7 O 0.3843(13) 1.010(3) 0.1989(12) 0.264(13) Uiso 1 1 d . . . . .
N1 N 0.4249(4) 1.2973(6) 0.0458(3) 0.0375(19) Uani 1 1 d . . . . .
C1 C 0.3611(5) 1.1242(9) 0.0349(5) 0.047(3) Uani 1 1 d . . . . .
O2 O 0.0687(4) 0.5579(6) 0.0287(3) 0.0511(19) Uani 1 1 d . . . . .
O3 O 0.2128(4) 0.0978(8) 0.2422(3) 0.066(2) Uani 1 1 d . . . . .
O4 O 0.0969(4) 0.0526(7) 0.1983(3) 0.064(2) Uani 1 1 d . . . . .
N2 N 0.5174(4) 1.3136(6) 0.0400(3) 0.0355(18) Uani 1 1 d . . . . .
N3 N 0.3318(4) 1.4161(7) 0.0824(4) 0.053(2) Uani 1 1 d . . . . .
N4 N 0.2470(4) 1.3018(8) 0.0969(4) 0.055(3) Uani 1 1 d . . . . .
N5 N 0.2265(4) 1.0484(7) 0.0742(3) 0.043(2) Uani 1 1 d . . . . .
N6 N 0.1573(4) 0.9061(7) 0.0647(3) 0.042(2) Uani 1 1 d . . . . .
N7 N 0.398(2) 1.180(6) 0.204(2) 0.50(3) Uiso 1 1 d . . . . .
C2 C 0.5015(5) 1.4230(9) 0.0549(5) 0.048(3) Uani 1 1 d . . . . .
C3 C 0.4449(5) 1.4145(9) 0.0592(5) 0.050(3) Uani 1 1 d . . . . .
C4 C 0.4719(4) 1.2393(8) 0.0359(4) 0.037(2) Uani 1 1 d . . . . .
C5 C 0.3716(5) 1.2396(8) 0.0481(4) 0.041(2) Uani 1 1 d . . . . .
C6 C 0.3127(5) 1.0600(10) 0.0441(5) 0.053(3) Uani 1 1 d . . . . .
C7 C 0.2738(5) 1.1127(8) 0.0649(5) 0.047(3) Uani 1 1 d . . . . .
C8 C 0.2806(5) 1.2345(9) 0.0764(5) 0.046(3) Uani 1 1 d . . . . .
C9 C 0.3303(5) 1.3011(9) 0.0686(5) 0.045(3) Uani 1 1 d . . . . .
C10 C 0.1933(4) 0.9562(8) 0.0419(4) 0.038(2) Uani 1 1 d . . . . .
C11 C 0.1684(5) 0.9665(11) 0.1132(5) 0.058(3) Uani 1 1 d . . . . .
C12 C 0.2116(6) 1.0553(11) 0.1209(5) 0.066(4) Uani 1 1 d . . . . .
C13 C 0.1094(5) 0.5636(9) 0.0789(5) 0.046(3) Uani 1 1 d . . . . .
C14 C 0.1171(4) 0.4592(9) 0.1167(4) 0.036(2) Uani 1 1 d . . . . .
C15 C 0.0727(4) 0.3694(9) 0.1029(4) 0.039(2) Uani 1 1 d . . . . .
C16 C 0.0804(4) 0.2717(9) 0.1371(4) 0.038(2) Uani 1 1 d . . . . .
C17 C 0.1339(5) 0.2645(9) 0.1859(4) 0.041(2) Uani 1 1 d . . . . .
C18 C 0.1801(5) 0.3561(11) 0.2022(4) 0.051(3) Uani 1 1 d . . . . .
C19 C 0.1700(5) 0.4540(10) 0.1680(4) 0.049(3) Uani 1 1 d . . . . .
C20 C 0.1244(5) 0.2459(9) 0.4445(4) 0.041(2) Uani 1 1 d . . . . .
C21 C 0.1311(5) 0.2275(9) 0.3905(4) 0.044(3) Uani 1 1 d . . . . .
C22 C 0.1906(5) 0.2378(8) 0.3881(4) 0.040(2) Uani 1 1 d . . . . .
C23 C 0.1958(5) 0.2124(9) 0.3372(4) 0.043(2) Uani 1 1 d . . . . .
C24 C 0.1429(5) 0.1788(11) 0.2911(4) 0.051(3) Uani 1 1 d . . . . .
C25 C 0.0837(6) 0.1649(18) 0.2920(5) 0.102(6) Uani 1 1 d . . . . .
C26 C 0.0785(6) 0.1879(16) 0.3432(5) 0.090(5) Uani 1 1 d . . . . .
C27 C 0.4733(19) 1.315(4) 0.1918(16) 0.272(17) Uiso 1 1 d . . . . .
C28 C 0.409(2) 1.305(4) 0.2148(17) 0.294(19) Uiso 1 1 d . . . . .
C29 C 0.4844(6) 1.0514(12) 0.1544(5) 0.067(3) Uiso 1 1 d . . . . .
 
loop_
 _atom_site_aniso_label
 _atom_site_aniso_U_11
 _atom_site_aniso_U_22
 _atom_site_aniso_U_33
 _atom_site_aniso_U_23
 _atom_site_aniso_U_13
 _atom_site_aniso_U_12
Zn1 0.0328(6) 0.0427(7) 0.0357(6) -0.0087(5) 0.0240(5) -0.0143(5)
S1 0.074(2) 0.0467(17) 0.113(3) -0.0344(17) 0.075(2) -0.0165(15)
S2 0.0581(18) 0.080(2) 0.0341(14) 0.0145(14) 0.0276(14) 0.0169(16)
O1 0.052(5) 0.051(5) 0.075(5) 0.000(4) 0.040(4) -0.014(4)
O5 0.060(5) 0.046(4) 0.036(4) 0.009(3) 0.029(4) 0.007(4)
O6 0.052(5) 0.062(5) 0.040(4) 0.006(3) 0.033(4) 0.010(4)
N1 0.042(5) 0.027(4) 0.064(5) -0.008(4) 0.042(4) -0.010(3)
C1 0.043(6) 0.038(6) 0.073(8) -0.015(5) 0.036(6) -0.018(5)
O2 0.059(5) 0.057(5) 0.049(4) 0.005(4) 0.034(4) 0.007(4)
O3 0.067(5) 0.101(6) 0.042(4) 0.020(4) 0.035(4) 0.033(5)
O4 0.084(6) 0.073(6) 0.038(4) 0.003(4) 0.027(4) -0.020(5)
N2 0.042(5) 0.032(4) 0.052(5) -0.007(4) 0.038(4) -0.012(4)
N3 0.057(6) 0.035(5) 0.097(7) -0.027(5) 0.061(6) -0.016(4)
N4 0.057(6) 0.050(5) 0.081(7) -0.026(5) 0.053(5) -0.016(5)
N5 0.035(5) 0.048(5) 0.064(5) -0.026(4) 0.040(4) -0.023(4)
N6 0.045(5) 0.052(5) 0.046(5) -0.012(4) 0.036(4) -0.023(4)
C2 0.050(6) 0.037(6) 0.072(7) -0.010(5) 0.041(6) -0.008(5)
C3 0.051(7) 0.035(6) 0.082(8) -0.010(5) 0.044(6) -0.019(5)
C4 0.035(5) 0.044(6) 0.047(5) -0.009(4) 0.033(5) -0.010(4)
C5 0.051(6) 0.027(5) 0.067(6) -0.013(5) 0.047(6) -0.013(4)
C6 0.050(7) 0.056(7) 0.080(8) -0.028(6) 0.054(7) -0.025(5)
C7 0.057(7) 0.036(5) 0.074(7) -0.015(5) 0.055(6) -0.020(5)
C8 0.046(6) 0.041(6) 0.073(7) -0.021(5) 0.047(6) -0.012(5)
C9 0.036(6) 0.038(6) 0.077(8) -0.027(5) 0.039(6) -0.017(4)
C10 0.037(6) 0.036(5) 0.047(5) -0.013(4) 0.025(5) -0.016(4)
C11 0.054(7) 0.073(8) 0.069(8) -0.029(6) 0.048(6) -0.035(6)
C12 0.076(9) 0.078(8) 0.076(8) -0.036(7) 0.064(8) -0.039(7)
C13 0.044(6) 0.044(6) 0.064(7) 0.000(5) 0.036(6) -0.004(5)
C14 0.024(5) 0.052(6) 0.040(5) -0.002(5) 0.021(4) 0.002(4)
C15 0.039(6) 0.052(6) 0.030(5) 0.003(4) 0.018(4) -0.002(5)
C16 0.036(5) 0.046(6) 0.036(5) 0.000(4) 0.019(4) 0.001(4)
C17 0.035(5) 0.063(7) 0.033(5) 0.003(5) 0.021(4) 0.001(5)
C18 0.036(6) 0.075(8) 0.048(6) -0.006(6) 0.024(5) -0.002(6)
C19 0.041(6) 0.067(7) 0.049(6) -0.006(6) 0.027(5) -0.011(5)
C20 0.053(6) 0.043(6) 0.035(5) 0.008(5) 0.028(5) 0.014(5)
C21 0.041(6) 0.062(7) 0.035(5) 0.015(5) 0.022(5) 0.014(5)
C22 0.049(6) 0.042(6) 0.039(5) 0.008(4) 0.028(5) 0.008(5)
C23 0.045(6) 0.051(6) 0.040(5) 0.010(5) 0.024(5) 0.013(5)
C24 0.040(6) 0.084(8) 0.031(5) 0.014(5) 0.016(5) 0.021(6)
C25 0.061(9) 0.213(19) 0.052(7) 0.014(10) 0.043(7) 0.015(10)
C26 0.043(7) 0.192(17) 0.038(6) 0.009(8) 0.019(6) 0.026(9)
 
_geom_special_details
;
 All esds (except the esd in the dihedral angle between two l.s. planes)
 are estimated using the full covariance matrix.  The cell esds are taken
 into account individually in the estimation of esds in distances, angles
 and torsion angles; correlations between esds in cell parameters are only
 used when they are defined by crystal symmetry.  An approximate (isotropic)
 treatment of cell esds is used for estimating esds involving l.s. planes.
;
 
loop_
 _geom_bond_atom_site_label_1
 _geom_bond_atom_site_label_2
 _geom_bond_distance
 _geom_bond_site_symmetry_2
 _geom_bond_publ_flag
Zn1 O6 2.038(6) 6_565 ?
Zn1 O1 2.047(8) . ?
Zn1 N6 2.042(8) . ?
Zn1 N2 2.061(7) 3_445 ?
Zn1 O2 2.422(7) . ?
Zn1 O5 2.487(6) 6_565 ?
Zn1 C20 2.564(9) 6_565 ?
Zn1 C13 2.542(10) . ?
S1 N4 1.610(9) . ?
S1 N3 1.619(8) . ?
S2 O3 1.428(8) . ?
S2 O4 1.463(8) . ?
S2 C24 1.778(10) . ?
S2 C17 1.775(10) . ?
O1 C13 1.248(12) . ?
O5 C20 1.247(12) . ?
O6 C20 1.254(12) . ?
O7 C29 3.01(3) . ?
O7 N7 1.93(7) . ?
N1 C4 1.378(11) . ?
N1 C5 1.413(11) . ?
N1 C3 1.396(11) . ?
C1 C5 1.342(12) . ?
C1 C6 1.431(13) . ?
O2 C13 1.266(12) . ?
N2 C4 1.312(11) . ?
N2 C2 1.386(12) . ?
N3 C9 1.342(12) . ?
N4 C8 1.343(12) . ?
N5 C10 1.361(11) . ?
N5 C7 1.409(11) . ?
N5 C12 1.397(12) . ?
N6 C10 1.327(11) . ?
N6 C11 1.366(12) . ?
N7 C28 1.44(7) . ?
N7 C27 2.43(7) . ?
N7 C29 3.14(6) . ?
C2 C3 1.357(13) . ?
C5 C9 1.445(12) . ?
C6 C7 1.360(13) . ?
C7 C8 1.401(13) . ?
C8 C9 1.452(13) . ?
C11 C12 1.368(14) . ?
C13 C14 1.498(14) . ?
C14 C15 1.380(13) . ?
C14 C19 1.398(14) . ?
C15 C16 1.381(13) . ?
C16 C17 1.370(13) . ?
C17 C18 1.419(14) . ?
C18 C19 1.378(15) . ?
C20 C21 1.494(13) . ?
C21 C26 1.404(17) . ?
C21 C22 1.405(13) . ?
C22 C23 1.411(12) . ?
C23 C24 1.372(14) . ?
C24 C25 1.387(16) . ?
C25 C26 1.412(16) . ?
C27 C28 1.81(5) . ?
 
loop_
 _geom_angle_atom_site_label_1
 _geom_angle_atom_site_label_2
 _geom_angle_atom_site_label_3
 _geom_angle
 _geom_angle_site_symmetry_1
 _geom_angle_site_symmetry_3
 _geom_angle_publ_flag
O6 Zn1 O1 146.0(3) 6_565 . ?
O6 Zn1 N6 101.9(3) 6_565 . ?
O1 Zn1 N6 96.1(3) . . ?
O6 Zn1 N2 102.0(3) 6_565 3_445 ?
O1 Zn1 N2 101.9(3) . 3_445 ?
N6 Zn1 N2 102.5(3) . 3_445 ?
O6 Zn1 O2 97.9(3) 6_565 . ?
O1 Zn1 O2 58.5(3) . . ?
N6 Zn1 O2 153.9(3) . . ?
N2 Zn1 O2 89.8(3) 3_445 . ?
O6 Zn1 O5 57.3(3) 6_565 6_565 ?
O1 Zn1 O5 95.5(3) . 6_565 ?
N6 Zn1 O5 87.4(3) . 6_565 ?
N2 Zn1 O5 158.8(3) 3_445 6_565 ?
O2 Zn1 O5 89.1(2) . 6_565 ?
O6 Zn1 C20 28.8(3) 6_565 6_565 ?
O1 Zn1 C20 122.3(3) . 6_565 ?
N6 Zn1 C20 93.6(3) . 6_565 ?
N2 Zn1 C20 130.9(3) 3_445 6_565 ?
O2 Zn1 C20 95.6(3) . 6_565 ?
O5 Zn1 C20 28.5(3) 6_565 6_565 ?
O6 Zn1 C13 124.4(3) 6_565 . ?
O1 Zn1 C13 29.1(3) . . ?
N6 Zn1 C13 125.1(4) . . ?
N2 Zn1 C13 95.5(3) 3_445 . ?
O2 Zn1 C13 29.4(3) . . ?
O5 Zn1 C13 93.8(3) 6_565 . ?
C20 Zn1 C13 112.4(3) 6_565 . ?
N4 S1 N3 101.3(4) . . ?
O3 S2 O4 119.4(5) . . ?
O3 S2 C24 107.5(5) . . ?
O4 S2 C24 108.0(5) . . ?
O3 S2 C17 108.8(5) . . ?
O4 S2 C17 106.5(5) . . ?
C24 S2 C17 105.8(5) . . ?
C13 O1 Zn1 98.0(7) . . ?
C20 O5 Zn1 79.2(5) . 6_566 ?
C20 O6 Zn1 99.6(6) . 6_566 ?
C29 O7 N7 75(2) . . ?
C4 N1 C5 123.6(7) . . ?
C4 N1 C3 106.8(7) . . ?
C5 N1 C3 129.1(7) . . ?
C5 C1 C6 121.3(9) . . ?
C13 O2 Zn1 80.5(6) . . ?
C4 N2 C2 107.3(7) . . ?
C4 N2 Zn1 123.7(6) . 3 ?
C2 N2 Zn1 128.9(6) . 3 ?
C9 N3 S1 106.1(6) . . ?
C8 N4 S1 106.8(7) . . ?
C10 N5 C7 124.6(7) . . ?
C10 N5 C12 107.7(7) . . ?
C7 N5 C12 127.1(8) . . ?
C10 N6 C11 106.7(8) . . ?
C10 N6 Zn1 124.6(6) . . ?
C11 N6 Zn1 128.7(6) . . ?
C28 N7 C27 48(3) . . ?
C28 N7 C29 115(4) . . ?
C27 N7 C29 67.9(17) . . ?
C28 N7 O7 174(5) . . ?
C27 N7 O7 136(3) . . ?
C29 N7 O7 68(2) . . ?
C3 C2 N2 109.4(8) . . ?
C2 C3 N1 106.2(8) . . ?
N2 C4 N1 110.2(8) . . ?
C1 C5 N1 120.4(8) . . ?
C1 C5 C9 118.8(8) . . ?
N1 C5 C9 120.6(8) . . ?
C7 C6 C1 122.2(9) . . ?
C6 C7 C8 118.5(8) . . ?
C6 C7 N5 121.7(9) . . ?
C8 C7 N5 119.7(8) . . ?
N4 C8 C7 127.2(9) . . ?
N4 C8 C9 112.4(8) . . ?
C7 C8 C9 120.3(8) . . ?
N3 C9 C5 127.9(8) . . ?
N3 C9 C8 113.3(8) . . ?
C5 C9 C8 118.7(8) . . ?
N6 C10 N5 110.2(8) . . ?
N6 C11 C12 110.6(8) . . ?
C11 C12 N5 104.7(9) . . ?
O1 C13 O2 122.8(10) . . ?
O1 C13 C14 118.4(10) . . ?
O2 C13 C14 118.8(9) . . ?
O1 C13 Zn1 52.9(5) . . ?
O2 C13 Zn1 70.0(6) . . ?
C14 C13 Zn1 168.9(7) . . ?
C15 C14 C19 119.1(9) . . ?
C15 C14 C13 121.8(9) . . ?
C19 C14 C13 119.1(9) . . ?
C16 C15 C14 122.0(9) . . ?
C15 C16 C17 118.5(9) . . ?
C18 C17 C16 121.3(9) . . ?
C18 C17 S2 118.8(8) . . ?
C16 C17 S2 119.9(8) . . ?
C17 C18 C19 118.7(9) . . ?
C18 C19 C14 120.3(10) . . ?
O5 C20 O6 123.6(8) . . ?
O5 C20 C21 118.0(9) . . ?
O6 C20 C21 118.3(10) . . ?
O5 C20 Zn1 72.3(5) . 6_566 ?
O6 C20 Zn1 51.6(4) . 6_566 ?
C21 C20 Zn1 167.6(8) . 6_566 ?
C26 C21 C22 120.0(9) . . ?
C26 C21 C20 119.2(9) . . ?
C22 C21 C20 120.5(9) . . ?
C23 C22 C21 118.8(9) . . ?
C24 C23 C22 119.8(9) . . ?
C25 C24 C23 123.2(10) . . ?
C25 C24 S2 115.6(9) . . ?
C23 C24 S2 120.9(8) . . ?
C24 C25 C26 117.2(13) . . ?
C25 C26 C21 120.9(11) . . ?
N7 C27 C28 36(2) . . ?
N7 C28 C27 97(4) . . ?
O7 C29 N7 36.5(11) . . ?
 
_refine_diff_density_max    2.117
_refine_diff_density_min   -0.591
_refine_diff_density_rms    0.176

_shelx_res_file
;
TITL pvl1148_a.res in C2/c
    pvl1148_a.res
    created by SHELXL-2019/3 at 12:40:43 on 13-Sep-2023
REM Old TITL pvl1148 in C2/c
REM SHELXT solution in C2/c: R1 0.263, Rweak 0.032, Alpha 0.054
REM <I/s>   0.460 for  319 systematic absences,  Orientation as input
REM Formula found by SHELXT:  C26 N8 O7 S2 Cd
CELL  0.71073  23.0704  11.2726  26.0739   90.000  113.974   90.000
ZERR   56.000   0.0011   0.0006   0.0012    0.000    0.001    0.000
LATT  7
SYMM -X, Y, 1/2-Z
SFAC C N O S Zn Cl H
UNIT 224 40 56 16 8 16 1
ACTA
TEMP -123.150
L.S. 10
BOND
LIST 6
FMAP 2
PLAN 20
WGHT    0.100000
FVAR       0.18177
ZN1   5    0.099049    0.764242    0.031512    11.00000    0.03282    0.04269 =
         0.03572   -0.00867    0.02402   -0.01434
S1    4    0.274484    1.434668    0.102316    11.00000    0.07379    0.04667 =
         0.11324   -0.03441    0.07523   -0.01651
S2    4    0.148891    0.134748    0.227876    11.00000    0.05806    0.08031 =
         0.03410    0.01451    0.02755    0.01692
O1    3    0.141338    0.654597    0.099140    11.00000    0.05183    0.05071 =
         0.07475    0.00020    0.04039   -0.01399
O5    3    0.169783    0.291086    0.484427    11.00000    0.06012    0.04580 =
         0.03572    0.00940    0.02860    0.00746
O6    3    0.074046    0.212766    0.447678    11.00000    0.05208    0.06220 =
         0.03958    0.00591    0.03269    0.01039
O7    3    0.384266    1.010103    0.198900    11.00000    0.26376
N1    2    0.424883    1.297344    0.045812    11.00000    0.04248    0.02654 =
         0.06366   -0.00841    0.04215   -0.00963
C1    1    0.361146    1.124178    0.034916    11.00000    0.04324    0.03772 =
         0.07270   -0.01515    0.03650   -0.01764
O2    3    0.068698    0.557867    0.028670    11.00000    0.05890    0.05690 =
         0.04921    0.00455    0.03406    0.00700
O3    3    0.212807    0.097764    0.242161    11.00000    0.06660    0.10077 =
         0.04233    0.01963    0.03538    0.03296
O4    3    0.096887    0.052590    0.198307    11.00000    0.08409    0.07288 =
         0.03763    0.00288    0.02674   -0.02045
N2    2    0.517404    1.313578    0.040044    11.00000    0.04191    0.03151 =
         0.05156   -0.00738    0.03805   -0.01167
N3    2    0.331814    1.416062    0.082421    11.00000    0.05656    0.03546 =
         0.09692   -0.02658    0.06146   -0.01587
N4    2    0.246989    1.301819    0.096926    11.00000    0.05707    0.04985 =
         0.08106   -0.02630    0.05261   -0.01577
N5    2    0.226541    1.048408    0.074200    11.00000    0.03471    0.04820 =
         0.06444   -0.02639    0.04035   -0.02298
N6    2    0.157348    0.906109    0.064691    11.00000    0.04470    0.05250 =
         0.04640   -0.01248    0.03649   -0.02253
N7    2    0.397975    1.179633    0.204421    11.00000    0.50291
C2    1    0.501503    1.422996    0.054914    11.00000    0.05016    0.03731 =
         0.07184   -0.00968    0.04141   -0.00762
C3    1    0.444946    1.414523    0.059171    11.00000    0.05090    0.03479 =
         0.08237   -0.00985    0.04450   -0.01911
C4    1    0.471923    1.239295    0.035914    11.00000    0.03537    0.04433 =
         0.04741   -0.00917    0.03306   -0.01008
C5    1    0.371625    1.239602    0.048074    11.00000    0.05070    0.02712 =
         0.06669   -0.01294    0.04737   -0.01318
C6    1    0.312712    1.059973    0.044130    11.00000    0.04967    0.05571 =
         0.07980   -0.02795    0.05442   -0.02477
C7    1    0.273793    1.112673    0.064947    11.00000    0.05728    0.03595 =
         0.07436   -0.01457    0.05548   -0.02046
C8    1    0.280636    1.234541    0.076373    11.00000    0.04644    0.04070 =
         0.07333   -0.02096    0.04655   -0.01235
C9    1    0.330339    1.301109    0.068564    11.00000    0.03602    0.03760 =
         0.07736   -0.02717    0.03919   -0.01713
C10   1    0.193314    0.956188    0.041926    11.00000    0.03747    0.03596 =
         0.04709   -0.01292    0.02468   -0.01643
C11   1    0.168418    0.966454    0.113207    11.00000    0.05449    0.07303 =
         0.06922   -0.02876    0.04836   -0.03523
C12   1    0.211565    1.055288    0.120910    11.00000    0.07558    0.07842 =
         0.07628   -0.03563    0.06449   -0.03858
PART 1 10.25
PART 0
C13   1    0.109375    0.563605    0.078943    11.00000    0.04381    0.04386 =
         0.06353    0.00048    0.03642   -0.00380
C14   1    0.117117    0.459249    0.116744    11.00000    0.02392    0.05202 =
         0.04020   -0.00210    0.02056    0.00170
C15   1    0.072696    0.369421    0.102947    11.00000    0.03896    0.05245 =
         0.03026    0.00252    0.01849   -0.00194
C16   1    0.080383    0.271697    0.137058    11.00000    0.03626    0.04642 =
         0.03561    0.00029    0.01877    0.00086
C17   1    0.133947    0.264502    0.185899    11.00000    0.03464    0.06295 =
         0.03284    0.00314    0.02099    0.00095
C18   1    0.180059    0.356147    0.202197    11.00000    0.03616    0.07536 =
         0.04790   -0.00591    0.02443   -0.00185
C19   1    0.170039    0.453996    0.167977    11.00000    0.04097    0.06686 =
         0.04879   -0.00559    0.02676   -0.01105
C20   1    0.124356    0.245918    0.444519    11.00000    0.05329    0.04283 =
         0.03512    0.00812    0.02769    0.01430
C21   1    0.131068    0.227474    0.390462    11.00000    0.04108    0.06182 =
         0.03541    0.01517    0.02161    0.01392
C22   1    0.190644    0.237835    0.388146    11.00000    0.04941    0.04183 =
         0.03866    0.00822    0.02759    0.00794
C23   1    0.195775    0.212432    0.337158    11.00000    0.04525    0.05066 =
         0.03952    0.00968    0.02388    0.01296
C24   1    0.142949    0.178845    0.291051    11.00000    0.04033    0.08417 =
         0.03084    0.01376    0.01648    0.02075
C25   1    0.083664    0.164877    0.291976    11.00000    0.06070    0.21327 =
         0.05186    0.01384    0.04289    0.01516
C26   1    0.078537    0.187938    0.343214    11.00000    0.04343    0.19153 =
         0.03762    0.00879    0.01883    0.02570
C27   1    0.473319    1.314824    0.191821    11.00000    0.27182
C28   1    0.409463    1.304518    0.214778    11.00000    0.29446
C29   1    0.484357    1.051428    0.154415    11.00000    0.06657
REM #####
HKLF 4




REM  pvl1148_a.res in C2/c
REM wR2 = 0.3018, GooF = S = 1.651, Restrained GooF = 1.651 for all data
REM R1 = 0.1004 for 3544 Fo > 4sig(Fo) and 0.1581 for all 5892 data
REM 390 parameters refined using 0 restraints

END

WGHT      0.1839     65.9292

REM Highest difference peak  2.117,  deepest hole -0.591,  1-sigma level  0.176
Q1    1   0.3547  1.2327  0.2175  11.00000  0.05    1.96
Q2    1   0.5079  1.1406  0.1615  11.00000  0.05    1.81
Q3    1   0.4468  1.1488  0.1781  11.00000  0.05    1.50
Q4    1   0.4898  1.2568  0.1706  11.00000  0.05    1.08
Q5    1   0.4804  1.3508  0.1758  11.00000  0.05    1.04
Q6    1   0.4657  0.9468  0.1874  11.00000  0.05    0.97
Q7    1   0.4388  1.2520  0.1863  11.00000  0.05    0.94
Q8    1   0.3898  1.0847  0.0177  11.00000  0.05    0.72
Q9    1   0.0505  0.2071  0.1323  11.00000  0.05    0.63
Q10   1   0.4139  1.3644  0.2062  11.00000  0.05    0.58
Q11   1   0.0393  0.3772  0.0640  11.00000  0.05    0.58
Q12   1   0.4809  1.1415  0.0366  11.00000  0.05    0.57
Q13   1   0.3800  1.2338  0.2741  11.00000  0.05    0.54
Q14   1   0.5365  1.4972  0.0637  11.00000  0.05    0.53
Q15   1   0.4140  1.4793  0.0686  11.00000  0.05    0.52
Q16   1   0.0689  0.2592  0.3412  11.00000  0.05    0.51
Q17   1   0.0319  0.1825  0.3372  11.00000  0.05    0.50
Q18   1   0.3099  0.9773  0.0378  11.00000  0.05    0.50
Q19   1   0.1911  0.9368  0.0022  11.00000  0.05    0.50
Q20   1   0.2321  1.1276  0.1519  11.00000  0.05    0.49
;
_shelx_res_checksum   21346

_shelx_hkl_file
;
   2   0   0   -2.30    1.40
   4   0   0 8112.39  305.47
  -4   0   0 7726.53  308.47
  -4   0   0 7938.31  305.47
   4   0   0 7827.02  309.37
   6   0   0  272.17   24.70
  -6   0   0  272.37   18.20
  -6   0   0  250.47   22.30
   6   0   0  232.78   17.20
   8   0   0   62.99   10.90
   8   0   0   68.59   17.20
  -8   0   0   26.90   12.20
  -8   0   0   60.99   11.80
 -10   0   0  385.06   32.10
 -10   0   0  432.76   28.10
  10   0   0  407.06   37.00
  10   0   0  363.76   28.80
  12   0   0  553.54   45.70
  12   0   0  396.06   30.40
 -12   0   0  484.65   37.50
 -12   0   0  542.75   34.00
 -14   0   0  153.78   21.40
  14   0   0  122.79   18.60
  14   0   0  166.68   33.70
 -14   0   0  122.89   24.90
  16   0   0  320.47   43.30
 -16   0   0  319.07   34.30
 -16   0   0  277.07   30.00
  16   0   0  308.37   28.70
 -18   0   0  -13.90   13.10
 -18   0   0   16.00   13.80
  18   0   0    7.60   13.60
  18   0   0   33.90   27.60
  20   0   0    6.70   27.10
 -22   0   0   66.39   27.60
  22   0   0   62.99   37.00
  -1  -1   0   -1.30    4.60
   1   1   0   21.50    7.30
   3  -1   0  671.23   30.70
  -3  -1   0  649.04   36.60
   3  -1   0  686.93   30.90
  -3  -1   0  657.93   29.10
  -3   1   0  691.03   30.70
   3   1   0  665.63   29.10
   3   1   0  702.43   38.00
  -5  -1   0 1452.95   62.59
   5  -1   0 1502.15   65.49
   5  -1   0 1480.75   63.99
  -5  -1   0 1532.65   71.89
  -5   1   0 1485.65   64.79
   5   1   0 1484.55   62.49
   5   1   0 1488.65   73.09
  -5   1   0 1541.65   64.79
   7  -1   0  423.56   26.60
  -7  -1   0  510.45   26.50
   7  -1   0  443.96   29.90
  -7  -1   0  434.46   33.50
   7   1   0  515.85   37.70
  -7   1   0  433.56   27.30
  -7   1   0  421.26   27.90
   7   1   0  482.85   25.70
  -9  -1   0   49.50   17.20
  -9  -1   0   75.89   12.70
   9  -1   0   63.19   16.90
   9  -1   0   62.69   14.90
  -9   1   0   53.39   12.60
  -9   1   0   77.59   15.80
   9   1   0   73.29   12.10
   9   1   0   41.50   20.20
  11  -1   0   33.90   11.00
 -11  -1   0   44.10   11.90
  11  -1   0   57.19   18.10
 -11  -1   0   54.89   18.00
  11   1   0   20.90   10.00
  11   1   0   26.90   20.60
 -11   1   0   22.90   13.60
 -11   1   0   32.80   14.20
 -13  -1   0  417.06   31.30
  13  -1   0  518.35   33.20
  13  -1   0  474.55   41.60
 -13  -1   0  486.75   40.90
  13   1   0  462.35   31.00
 -13   1   0  459.25   35.70
  13   1   0  364.16   44.60
 -13   1   0  454.95   34.30
  15  -1   0   42.20   22.10
  15  -1   0   78.99   16.30
 -15  -1   0  112.69   25.80
 -15  -1   0   79.29   17.40
 -15   1   0   75.09   20.20
  15   1   0  110.99   32.80
  15   1   0   78.69   16.40
  17  -1   0   83.19   29.90
  17  -1   0   50.79   16.90
 -17  -1   0   15.60   20.30
 -17  -1   0   98.79   20.90
  17   1   0   87.59   19.00
  17   1   0   86.39   33.20
 -17   1   0   42.40   20.20
  19  -1   0   75.99   32.70
 -19  -1   0   52.19   20.10
  19  -1   0   39.50   18.90
  19   1   0   57.19   34.50
  19   1   0   43.50   16.40
 -19   1   0   67.39   24.50
 -21  -1   0  -10.40   16.00
 -21  -1   0   31.70   23.00
  21  -1   0   27.50   28.20
  21   1   0   42.80   35.10
  23  -1   0   -1.60   29.40
 -23   1   0   56.29   27.90
  25  -1   0   51.19   46.70
  25   1   0   -9.10   36.40
   0  -2   0 5468.45  219.88
   0   2   0 5418.46  210.18
  -2  -2   0 1186.28   62.29
   2  -2   0 1301.97   54.89
  -2  -2   0 1251.97   51.09
   2   2   0 1229.68   64.09
   2   2   0 1257.17   51.09
  -4  -2   0 3314.57  128.19
  -4  -2   0 3166.88  140.79
   4  -2   0 3275.27  130.69
  -4   2   0 3220.68  130.59
   4   2   0 3198.58  142.49
   4   2   0 3255.87  127.99
  -6  -2   0  743.83   47.80
  -6  -2   0  735.43   34.50
   6  -2   0  697.23   37.10
   6  -2   0  720.63   37.20
  -6   2   0  753.42   37.10
   6   2   0  712.53   34.20
   6   2   0  722.33   50.49
  -8  -2   0  107.09   13.40
   8  -2   0  111.79   15.60
  -8  -2   0  160.08   27.80
   8  -2   0  136.99   17.50
  -8   2   0  141.19   16.40
   8   2   0  115.19   13.50
   8   2   0  107.29   26.50
 -10  -2   0  113.89   24.60
  10  -2   0  164.98   21.20
 -10  -2   0  148.99   17.00
  10  -2   0  123.19   18.70
  10   2   0  126.69   15.60
 -10   2   0  132.29   18.00
  10   2   0  145.69   30.40
 -12  -2   0  202.38   30.10
 -12  -2   0  187.78   20.60
  12  -2   0  206.28   21.50
  12  -2   0  213.28   26.70
  12   2   0  232.38   40.70
 -12   2   0  170.98   21.80
  12   2   0  187.08   19.40
  14  -2   0   47.30   19.90
 -14  -2   0   29.30   12.10
 -14  -2   0   84.59   24.80
  14  -2   0   57.09   14.80
  14   2   0   54.99   13.90
 -14   2   0   45.10   15.10
  14   2   0   48.90   26.50
 -16  -2   0   99.59   27.60
  16  -2   0  104.79   28.80
 -16  -2   0  101.79   20.30
 -16   2   0  157.38   26.90
  16   2   0  119.79   37.10
  16   2   0  113.99   20.20
  18  -2   0  233.18   43.70
 -18  -2   0  268.67   29.20
  18  -2   0  241.78   29.60
 -18   2   0  222.88   32.00
  18   2   0  208.88   50.29
  20  -2   0   69.99   32.30
 -20  -2   0   80.99   22.40
 -20  -2   0   72.49   29.30
  20   2   0   97.89   22.20
 -20   2   0   69.09   24.50
  20   2   0   45.90   35.70
 -22  -2   0    4.80   17.70
  22  -2   0  -42.20   23.50
 -22   2   0   55.09   23.80
  24  -2   0   32.40   37.40
  24   2   0   58.49   48.00
 -24   2   0    9.60   21.80
  -1  -3   0 1602.64   84.09
  -1  -3   0 1712.53   70.09
   1  -3   0 1715.63   70.89
   1   3   0 1727.93   69.99
   1   3   0 1779.02   87.29
  -3  -3   0  130.79   26.30
   3  -3   0  114.09   15.50
  -3  -3   0  102.49   10.40
   3   3   0  120.69   10.70
   3   3   0  111.49   24.30
  -5  -3   0  696.73   31.80
   5  -3   0  644.84   35.00
  -5  -3   0  687.93   47.80
   5   3   0  705.83   51.19
  -5   3   0  621.24   35.10
   5   3   0  640.74   31.20
  -7  -3   0   13.40   16.00
   7  -3   0   34.90   12.10
   7  -3   0   16.70   10.10
  -7  -3   0   27.40    8.00
   7   3   0   21.80    7.70
  -7   3   0   15.80   10.40
   7   3   0   36.70   21.30
   9  -3   0   47.70   11.80
  -9  -3   0   44.40   11.00
   9  -3   0   27.00   12.50
  -9  -3   0   32.20   22.60
   9   3   0   26.70   21.90
   9   3   0   17.80    9.40
  -9   3   0   49.90   13.20
 -11  -3   0  217.38   32.70
  11  -3   0  218.28   22.10
  11  -3   0  287.87   26.40
 -11  -3   0  216.78   20.50
  11   3   0  220.78   41.80
 -11   3   0  217.68   22.60
  11   3   0  223.08   19.50
  13  -3   0   10.30   13.50
  13  -3   0    9.40   10.70
 -13  -3   0   -1.10   13.60
 -13  -3   0    1.70    9.40
  13   3   0   11.40   24.20
  13   3   0    1.10    8.70
 -15  -3   0   11.00   19.50
  15  -3   0   22.50   14.90
  15  -3   0  -11.00   16.40
 -15  -3   0   24.50   12.30
  15   3   0   10.30   11.70
  15   3   0   42.70   28.60
 -15   3   0   30.20   17.10
  17  -3   0   86.39   19.20
 -17  -3   0  110.19   21.50
 -17  -3   0  143.59   37.80
  17  -3   0   84.69   27.00
 -17   3   0   87.69   23.70
  17   3   0  104.89   41.70
  17   3   0   70.19   18.00
 -19  -3   0    0.00   13.90
 -19  -3   0    3.20   20.80
  19  -3   0  -28.10   19.70
  19   3   0   17.40   13.90
  19   3   0   54.19   36.20
 -19   3   0  -12.10   13.10
 -21  -3   0   16.50   17.00
  21  -3   0    0.20   24.20
 -21   3   0  -17.60   16.20
  23  -3   0  -20.90   28.10
 -23  -3   0   -6.80   17.20
  23   3   0   -2.50   40.10
 -23   3   0   -6.50   19.20
  25  -3   0   -5.70   34.50
  25   3   0   14.30   47.50
   0  -4   0 2636.64  105.39
   0  -4   0 2513.35  121.79
   2  -4   0  144.99   14.70
  -2  -4   0  184.08   13.70
  -2  -4   0  199.38   29.70
   2   4   0  194.18   30.80
   2   4   0  161.78   13.00
   4  -4   0  831.52   43.70
  -4  -4   0  796.22   37.60
  -4  -4   0  833.72   56.89
   4   4   0  746.43   57.79
   4   4   0  814.42   37.40
  -6  -4   0 1263.67   73.69
  -6  -4   0 1171.28   52.39
   6  -4   0 1162.98   57.49
  -6   4   0 1174.58   57.79
   6   4   0 1137.79   76.59
   6   4   0 1155.88   52.19
   8  -4   0  128.59   19.00
  -8  -4   0  104.59   28.50
  -8  -4   0  109.99   14.70
   8  -4   0  137.19   18.10
  -8   4   0  135.09   18.40
   8   4   0  150.98   35.90
   8   4   0  119.49   13.80
 -10  -4   0 1261.57   59.69
 -10  -4   0 1285.77   81.19
  10  -4   0 1280.07   64.69
  10  -4   0 1242.58   63.99
  10   4   0 1291.27   59.89
  10   4   0 1323.77   88.89
 -10   4   0 1286.27   63.59
 -12  -4   0   12.40   10.80
  12  -4   0  -11.50    8.20
  12  -4   0   -8.80   10.60
 -12  -4   0   10.00   16.70
  12   4   0   -3.50    8.50
  12   4   0    0.30   21.80
 -12   4   0    2.00   10.90
  14  -4   0  570.04   46.80
 -14  -4   0  613.84   38.40
 -14  -4   0  560.64   54.39
  14  -4   0  644.14   45.30
 -14   4   0  598.24   41.80
  14   4   0  632.64   66.99
  14   4   0  591.14   37.10
  16  -4   0   18.10   15.10
  16  -4   0    8.00   16.90
 -16  -4   0   16.90   13.40
 -16  -4   0   25.20   23.60
  16   4   0   12.50   13.00
  16   4   0    1.70   28.50
 -16   4   0   12.90   16.30
  18  -4   0  -10.80   17.00
 -18  -4   0   -5.10   12.30
 -18  -4   0  -14.40   20.20
  18   4   0    4.40   12.60
  18   4   0   73.49   36.70
 -18   4   0   12.90   16.10
  20  -4   0   27.50   25.30
 -20  -4   0  -11.80   11.80
  20   4   0    9.70   14.10
  20   4   0   40.10   43.60
 -20   4   0   -0.60   18.90
  22  -4   0   11.70   24.40
 -22  -4   0   -5.30   19.90
  22   4   0    1.50   38.90
 -22   4   0   24.60   20.20
  24  -4   0   28.70   32.80
 -24  -4   0    8.90   16.60
 -24   4   0   -3.40   20.30
  24   4   0  -19.40   47.20
  -1  -5   0  244.38   34.70
   1  -5   0  295.47   20.20
  -1  -5   0  274.87   18.90
   1  -5   0  246.18   33.40
   1   5   0  287.67   18.80
   3  -5   0  134.99   16.10
   3  -5   0  128.99   20.70
  -3  -5   0  187.98   34.20
  -3  -5   0  133.69   14.20
   3   5   0  185.88   14.60
   3   5   0  217.98   39.10
  -5  -5   0  717.73   35.40
   5  -5   0  746.83   42.30
  -5  -5   0  678.53   56.29
   5   5   0  665.53   34.60
   5   5   0  602.64   82.49
   7  -5   0  296.87   26.10
  -7  -5   0  298.57   21.00
  -7  -5   0  319.27   48.60
   7   5   0  289.87   44.10
   7   5   0  319.87   21.00
   9  -5   0   -7.30   10.00
  -9  -5   0    4.50   16.40
   9  -5   0   25.80   12.30
  -9  -5   0    1.50    8.20
   9   5   0   11.20    8.50
  -9   5   0   11.70   11.10
   9   5   0  -16.30   18.30
 -11  -5   0  378.46   26.80
  11  -5   0  357.36   30.20
 -11  -5   0  363.56   45.50
  11  -5   0  416.96   31.80
  11   5   0  369.06   25.60
 -11   5   0  336.47   29.90
  11   5   0  418.66   55.29
  13  -5   0   25.40   15.30
 -13  -5   0   -1.00   17.70
 -13  -5   0   -3.50   10.20
  13   5   0  -37.00   18.70
 -13   5   0   -5.40   11.20
  13   5   0   27.20   11.60
  15  -5   0    9.00   20.50
  15  -5   0   12.00   13.70
 -15  -5   0   -7.00   18.30
 -15  -5   0   -5.50   11.40
 -15   5   0   14.30   13.90
  15   5   0   -3.10   32.90
  15   5   0    7.40   11.60
 -17  -5   0   19.70   15.10
  17  -5   0   -4.50   17.20
  17   5   0   27.80   35.20
 -17   5   0    2.50   15.50
  17   5   0   -2.40   11.00
 -19  -5   0   37.30   17.70
  19  -5   0   45.20   24.50
  19   5   0   41.40   17.00
 -19   5   0   27.10   20.80
  19   5   0   33.40   41.10
 -21  -5   0   19.40   17.10
  21  -5   0    3.60   23.10
 -21   5   0   14.80   18.80
  21   5   0   -4.20   35.40
  23  -5   0    1.50   27.90
 -23  -5   0    8.40   18.30
  23   5   0   29.10   50.69
   0  -6   0 3670.63  175.68
   0  -6   0 3716.83  151.08
   2  -6   0   46.20   11.30
  -2  -6   0   68.49   12.40
   2  -6   0   24.90   19.20
  -2  -6   0   65.09   25.30
   2   6   0   50.99   10.70
  -4  -6   0  143.59   15.50
   4  -6   0  155.68   23.00
  -4  -6   0  222.78   39.60
   4   6   0  165.98   15.40
   4   6   0  157.28   36.80
  -6  -6   0  428.06   26.30
  -6  -6   0  353.56   45.30
   6  -6   0  423.86   33.50
   6   6   0  417.76   52.99
   6   6   0  437.86   26.00
  -8  -6   0    6.00    8.00
  -8  -6   0   25.10   20.50
   8  -6   0   -5.20   11.70
   8   6   0   -9.70   20.00
 -10  -6   0  654.83   60.39
  10  -6   0  714.53   44.80
  10  -6   0  624.64   43.70
 -10  -6   0  616.04   37.30
  10   6   0  710.53   37.40
  10   6   0  815.02   75.09
  12  -6   0   25.50   14.50
 -12  -6   0   28.50   11.90
  12  -6   0   19.10   14.40
 -12  -6   0   13.70   21.90
  12   6   0   37.50   35.80
  12   6   0   40.20   11.70
 -12   6   0   28.20   17.10
  14  -6   0   20.00   15.00
  14  -6   0   10.40   18.80
 -14  -6   0   49.20   15.30
 -14  -6   0    5.60   22.40
 -14   6   0   12.30   16.20
  14   6   0   10.10   11.00
  14   6   0    6.80   34.40
  16  -6   0   66.49   22.80
 -16  -6   0   73.89   18.80
  16   6   0   75.09   16.60
 -16   6   0  112.09   24.90
  16   6   0  156.78   51.79
 -18  -6   0   95.09   21.00
  18  -6   0   50.99   23.70
  18   6   0  153.48   58.19
 -18   6   0   68.59   22.70
  20  -6   0   18.90   24.00
 -20  -6   0   11.40   16.20
  20   6   0    3.40   36.90
  20   6   0   20.10   16.10
 -20   6   0   38.90   20.90
 -22  -6   0   -2.30   16.20
  22  -6   0   47.10   29.10
  22   6   0  -30.10   39.80
 -22   6   0   28.80   23.60
  -1  -7   0  420.06   49.30
  -1  -7   0  488.15   29.50
   1  -7   0  453.95   33.20
   1  -7   0  378.16   46.40
   3  -7   0   41.60   20.70
  -3  -7   0   75.99   13.50
  -3  -7   0   93.59   33.00
   3  -7   0   86.29   16.10
   3  -7   0  130.99   34.30
   3   7   0   85.79   13.70
  -5  -7   0    2.30   20.60
   5  -7   0  -13.50    8.20
  -5  -7   0    5.10    7.40
   5  -7   0    3.20   13.30
   5  -7   0   -2.90   19.50
   5   7   0   -3.70    6.40
   5   7   0   10.10   26.20
   7  -7   0  308.97   36.50
  -7  -7   0  422.86   50.19
  -7  -7   0  367.36   25.10
   7   7   0  364.26   24.70
   7   7   0  369.06   55.89
  -9  -7   0  230.88   55.49
  -9  -7   0  172.18   22.20
   9   7   0  174.28   17.90
   9   7   0  156.68   44.20
  11  -7   0   -1.10   14.70
 -11  -7   0    5.10   21.70
 -11  -7   0   43.30   12.90
  11  -7   0   60.29   18.50
  11   7   0    7.50   32.40
  11   7   0   36.50   12.30
  13  -7   0   18.80   14.40
 -13  -7   0    4.90   11.30
  13  -7   0    4.40   15.40
  13   7   0   13.90   10.70
  13   7   0   48.50   35.70
 -15  -7   0   11.20   13.00
  15  -7   0    1.90   14.40
  15   7   0   20.80   47.30
  15   7   0   -6.50   11.60
 -17  -7   0   -9.80   12.80
  17  -7   0   17.70   19.40
  17   7   0    1.00   35.90
  17   7   0   -5.00   12.20
 -17   7   0   27.90   18.80
 -19  -7   0   24.70   16.90
  19  -7   0   -8.30   19.20
  19   7   0   15.10   36.90
 -19   7   0   -9.60   17.20
  19   7   0   -1.00   14.60
 -21  -7   0   32.40   18.50
  21  -7   0   22.10   26.10
  21   7   0  133.19   65.09
 -21   7   0   14.80   20.70
   0  -8   0    8.70    9.80
   0  -8   0   45.20   27.50
   2  -8   0   64.99   15.40
  -2  -8   0   66.99   14.30
   2  -8   0   90.89   32.00
  -2  -8   0   58.59   27.00
   4  -8   0  725.33   63.29
  -4  -8   0  629.44   41.50
   4  -8   0  621.74   40.10
   4  -8   0  618.74   48.40
  -4  -8   0  577.74   61.19
   4   8   0  662.13   36.60
   6  -8   0   15.90   13.10
  -6  -8   0    6.10   10.40
   6  -8   0   35.60   27.90
  -6  -8   0   19.00   24.80
   6  -8   0   -3.40   13.60
   6   8   0   10.00    9.40
   6   8   0    2.10   27.60
   8  -8   0  206.98   32.00
  -8  -8   0  192.88   43.90
  -8  -8   0  185.08   20.50
   8   8   0  164.48   47.70
   8   8   0  163.98   18.70
 -10  -8   0   24.90   30.00
  10  -8   0  -18.00   13.60
  10  -8   0    5.10   13.20
 -10  -8   0    6.00   10.80
  10   8   0    7.60    9.30
  10   8   0  -14.30   32.20
  12  -8   0   15.40   17.70
 -12  -8   0   32.30   12.50
  12   8   0   47.00   42.50
  12   8   0   24.50   11.80
 -14  -8   0   33.80   14.90
  14  -8   0   18.30   17.00
  14   8   0   12.90   13.00
  14   8   0   26.90   37.60
 -16  -8   0   42.90   16.40
  16  -8   0   33.60   20.40
  16   8   0   33.90   14.60
  16   8   0   20.20   41.40
  18  -8   0   32.90   20.80
 -18  -8   0   29.60   17.20
  18   8   0   12.10   15.00
  18   8   0   -1.70   42.90
 -20  -8   0   81.79   22.30
  20  -8   0   73.09   29.10
  20   8   0    5.80   47.20
  -1  -9   0  131.09   20.40
   1  -9   0   55.59   32.50
   1  -9   0  141.39   22.00
  -1  -9   0  155.68   42.90
   3  -9   0  -11.90   16.00
   3  -9   0   -0.80   10.60
   3  -9   0   -7.20   20.50
  -3  -9   0   -8.20    8.90
   5  -9   0  264.97   51.29
  -5  -9   0  326.67   26.30
   5  -9   0  341.27   30.70
  -5  -9   0  225.98   50.79
   5  -9   0  335.37   39.30
   5   9   0  287.97   25.10
   7  -9   0   26.10   16.30
  -7  -9   0  -10.10    9.30
   7  -9   0  -17.90   23.80
  -7  -9   0  -12.70   24.50
   7  -9   0   19.30   19.30
   7   9   0    3.60    9.20
   9  -9   0   41.10   20.00
   9  -9   0    4.50   25.80
   9  -9   0   60.19   17.50
  -9  -9   0   36.20   13.60
   9   9   0   46.40   42.50
   9   9   0   30.60   12.80
  11  -9   0  172.08   30.90
 -11  -9   0  176.58   22.70
  11   9   0  201.88   23.30
  11   9   0  103.49   43.80
  13  -9   0   27.90   18.60
 -13  -9   0   14.80   14.30
  13   9   0   -4.90   34.20
  13   9   0   31.50   13.40
  15  -9   0   30.50   20.00
 -15  -9   0    5.40   12.40
  15   9   0  -31.00   35.60
  15   9   0   -4.90   12.10
 -17  -9   0    4.40   14.10
  17  -9   0   10.30   18.90
  17   9   0   -5.30   44.70
  17   9   0   18.90   15.20
  19  -9   0    6.90   20.80
 -19  -9   0   26.80   17.10
  19   9   0   36.60   50.29
  19   9   0   17.70   16.70
   0 -10   0  363.76   62.39
   0 -10   0  371.16   31.80
  -2 -10   0   18.00   27.90
   2 -10   0   19.30   22.00
   2 -10   0    3.60   12.20
  -2 -10   0    9.00   12.30
   2 -10   0   24.00   52.19
  -4 -10   0   30.40   33.80
   4 -10   0  136.69   33.40
   4 -10   0   54.29   33.40
  -4 -10   0   96.69   18.00
   4 -10   0   89.99   19.90
   6 -10   0   17.30   29.20
   6 -10   0   30.50   19.70
  -6 -10   0   55.69   14.80
   6 -10   0   44.70   16.90
   8 -10   0  113.79   28.60
  -8 -10   0   52.39   14.90
   8 -10   0   74.49   34.50
   8 -10   0   82.49   19.60
   8  10   0   67.19   16.50
  10 -10   0   24.50   17.10
  10 -10   0   58.79   21.90
 -10 -10   0   42.70   15.30
  10 -10   0    9.90   31.40
  10  10   0   20.80   13.40
  12 -10   0   22.50   19.30
  12 -10   0   29.80   37.00
 -12 -10   0    2.00   12.30
  12 -10   0   51.99   22.90
  12  10   0   21.30   13.60
  12  10   0   84.79   52.29
  14 -10   0    8.40   18.40
 -14 -10   0    4.80   13.80
  14  10   0    5.30   14.00
  14  10   0   12.30   50.49
  16 -10   0   11.00   19.70
 -16 -10   0   52.89   18.00
  16  10   0   51.29   49.00
  16  10   0    0.90   12.90
  -1 -11   0  -11.50   10.00
   1 -11   0    9.30   12.40
   1 -11   0   -8.30   28.00
  -3 -11   0    8.60   12.00
   3 -11   0   -1.00   13.00
   3 -11   0   -8.60   28.00
   3 -11   0  -11.60   19.00
   5 -11   0  109.39   22.80
   5 -11   0   14.20   21.00
   5 -11   0  100.59   41.50
  -5 -11   0   33.60   15.10
  -7 -11   0   43.60   15.20
   7 -11   0   93.29   28.50
   7 -11   0   88.89   42.00
  -9 -11   0   41.70   16.50
   9 -11   0  103.79   44.00
   9 -11   0   28.90   22.40
   9 -11   0   93.69   23.00
   9  11   0   74.59   18.30
 -11 -11   0   17.40   13.70
  11 -11   0    6.50   15.60
  11 -11   0   62.49   41.30
  11 -11   0   -1.90   17.40
  11  11   0   10.50   14.50
  13 -11   0   46.80   37.40
  13 -11   0  -10.10   18.90
 -13 -11   0    6.20   13.00
  13 -11   0   -9.20   16.40
  15 -11   0   28.30   21.20
  15 -11   0   24.30   22.70
 -15 -11   0   79.79   20.00
  15 -11   0   40.40   43.70
  15  11   0   48.40   52.79
  15  11   0   29.30   16.00
   0 -12   0    1.10   12.50
   2 -12   0   39.10   17.50
   2 -12   0   34.40   28.30
  -2 -12   0   17.50   13.20
  -4 -12   0    8.70   11.80
   4 -12   0   -1.20   24.00
   6 -12   0   21.50   16.40
  -6 -12   0  -23.60    9.90
   6 -12   0    3.00   20.90
   8 -12   0   71.79   29.30
   8 -12   0   18.20   17.60
  -8 -12   0   14.50   13.60
  10 -12   0   11.90   18.00
  10 -12   0   14.10   20.10
 -10 -12   0   22.00   14.40
  12 -12   0   71.09   28.90
 -12 -12   0   47.40   17.50
  12 -12   0   37.20   21.60
  12  12   0   15.80   15.40
   1 -13   0   10.50   25.00
  -1 -13   0    1.40   13.10
   1 -13   0  -14.20   11.20
  -3 -13   0   20.40   16.10
   3 -13   0  -17.20   20.20
   3 -13   0    8.10   15.10
   5 -13   0   25.10   25.90
   5 -13   0    1.80   13.60
  -5 -13   0   16.70   15.60
   7 -13   0  -12.50   20.50
  -7 -13   0    2.30   13.60
   7 -13   0  -11.30   14.60
  26   0  -1   24.60   45.10
  22   0  -1   26.70   32.00
 -22   0   1    1.70   19.20
 -20   0   1   17.30   16.00
  20   0  -1   18.70   27.20
  18   0  -1    6.10   12.40
 -18   0   1    7.80   15.80
 -18   0   1    9.70   14.40
  18   0  -1   14.30   24.80
 -16   0   1   -4.90   11.40
  16   0  -1   -0.80   17.70
  16   0  -1   -3.00   10.30
 -16   0   1  -22.90   10.80
 -14   0   1  -12.40    9.00
  14   0  -1  -10.10   18.40
  14   0  -1    4.00   10.00
 -14   0   1   11.10   13.00
 -12   0   1   21.20   10.00
  12   0  -1    2.20   15.10
 -12   0   1    0.00   12.00
  12   0  -1   -5.50    8.40
  10   0  -1   -1.00   13.20
 -10   0   1   -4.40    7.50
 -10   0   1   -9.10    9.80
  -8   0   1    4.70    7.70
   8   0  -1   -7.00    9.90
   8   0  -1    6.90    6.70
  -8   0   1    0.00   10.10
  -6   0   1    4.10    9.90
  -6   0   1    2.90    6.80
   6   0  -1   -5.70    9.60
   6   0  -1  -12.10    5.80
  -4   0   1   -5.20    7.10
  -4   0   1   -4.00    4.40
   4   0  -1   -4.80    4.70
   4   0  -1   -4.00    7.40
   2   0  -1    0.10    1.60
  -2   0  -1   -3.50    4.40
   2   0   1   -5.40    2.30
  -2   0  -1   -0.70    4.30
  -4   0  -1   -0.60    6.00
   4   0   1    7.00   10.30
  -4   0  -1   -5.00    8.20
   4   0   1   -4.50    5.10
   6   0   1   -0.80    6.10
   6   0   1   21.30   13.80
  -6   0  -1  -10.50    6.90
  -6   0  -1   -1.40    9.00
  -8   0  -1  -13.20    9.60
   8   0   1   19.50   14.10
   8   0   1    3.00    6.70
  -8   0  -1    2.70    7.70
  10   0   1    8.30    8.50
 -10   0  -1    0.40   10.60
  10   0   1    1.50   14.70
 -10   0  -1   -7.50    8.80
 -12   0  -1   -3.60   12.40
  12   0   1  -16.80   13.80
  12   0   1    6.00    8.30
 -12   0  -1    1.00    9.70
 -14   0  -1  -10.50   11.00
 -14   0  -1    9.70   11.00
  14   0   1    9.40    9.20
  14   0   1    8.40   19.10
  16   0   1  -44.70   17.60
 -16   0  -1   12.40   12.90
  16   0   1    0.70   11.60
 -16   0  -1  -20.90   11.70
 -18   0  -1   -4.90   16.70
  18   0   1   -5.30   13.10
  18   0   1   10.80   27.60
  20   0   1   21.00   29.20
 -20   0  -1    8.70   21.10
  22   0   1    7.30   29.80
 -22   0  -1    5.60   19.70
  25  -1  -1   76.39   41.50
  25   1  -1   66.79   49.20
  23  -1  -1   60.29   40.40
 -23  -1   1   94.49   24.50
 -23   1   1  119.79   31.50
  21  -1  -1  102.69   39.60
 -21  -1   1  130.49   33.40
 -21  -1   1  153.48   29.20
 -21   1   1  157.58   38.30
  21   1  -1  188.18   49.20
  19  -1  -1  357.46   50.99
  19  -1  -1  379.26   35.40
 -19  -1   1  449.46   38.00
  19   1  -1  349.87   33.50
 -19   1   1  319.27   38.70
  19   1  -1  419.86   58.79
  17  -1  -1  175.18   38.40
 -17  -1   1  228.58   38.90
  17  -1  -1  247.68   34.50
 -17  -1   1  277.87   29.10
 -17   1   1  305.97   31.60
  17   1  -1  291.67   51.89
  17   1  -1  292.47   28.30
 -17   1   1  258.17   32.30
 -15  -1   1  133.99   22.20
 -15  -1   1  175.68   28.70
  15  -1  -1  142.19   20.80
  15  -1  -1  148.39   30.60
  15   1  -1  131.09   34.70
  15   1  -1  127.79   19.30
 -15   1   1  147.69   24.10
 -15   1   1  195.58   24.30
  13  -1  -1 1003.80   52.89
  13  -1  -1  994.80   62.19
 -13  -1   1  986.60   52.29
 -13  -1   1  917.41   60.09
  13   1  -1 1014.90   68.69
 -13   1   1  916.31   53.49
  13   1  -1 1003.80   51.59
 -13   1   1  974.30   56.79
  11  -1  -1  217.18   27.50
 -11  -1   1  235.08   28.80
  11  -1  -1  235.98   21.30
 -11  -1   1  211.88   21.20
  11   1  -1  246.68   34.70
  11   1  -1  228.98   20.60
 -11   1   1  231.68   24.30
   9  -1  -1 1523.05   71.19
   9  -1  -1 1581.54   77.29
  -9  -1   1 1580.84   80.09
  -9  -1   1 1560.34   70.59
  -9   1   1 1662.83   75.39
   9   1  -1 1544.85   83.89
   9   1  -1 1606.04   70.39
  -9   1   1 1615.24   72.59
   7  -1  -1 1091.49   50.69
  -7  -1   1 1112.59   58.79
  -7  -1   1 1159.48   50.09
   7  -1  -1 1068.09   54.19
   7   1  -1 1083.59   61.19
  -7   1   1 1038.10   52.69
  -7   1   1 1054.99   50.99
   7   1  -1 1093.29   49.30
  -5  -1   1 1065.09   46.60
  -5  -1   1 1102.09   54.99
   5  -1  -1 1119.79   50.39
   5  -1  -1 1081.29   48.00
   5   1  -1 1037.60   46.40
  -5   1   1 1018.90   48.00
  -5   1   1 1090.59   49.50
   5   1  -1 1038.30   56.39
  -3  -1   1  293.57   15.40
   3  -1  -1  305.37   17.70
   3  -1  -1  311.57   16.50
  -3  -1   1  315.77   22.60
  -3   1   1  298.77   17.50
  -3   1   1  296.97   16.70
   3   1  -1  287.07   22.60
   3   1  -1  311.37   15.50
   1   1  -1    6.50    5.60
   1   1  -1   -0.70    1.40
  -1   1   1   -1.50    2.30
  -1  -1  -1   83.29   11.50
   1   1   1   85.49   12.80
  -3  -1  -1 8048.59  307.77
  -3  -1  -1 7972.20  316.27
   3  -1   1 7872.51  308.47
   3   1   1 7985.30  316.87
   3   1   1 7993.20  307.57
  -3   1  -1 8175.68  308.27
  -5  -1  -1  675.33   41.20
   5  -1   1  631.64   33.80
   5  -1   1  690.23   33.30
  -5  -1  -1  653.23   31.20
  -5   1  -1  698.03   33.20
   5   1   1  627.24   30.80
   5   1   1  640.84   42.50
  -7  -1  -1  163.18   21.70
  -7  -1  -1  110.69   13.10
   7  -1   1  126.69   14.60
   7  -1   1  137.69   18.10
   7   1   1  122.09   13.30
  -7   1  -1  143.69   16.30
   7   1   1  151.18   26.40
   9  -1   1  220.28   24.40
  -9  -1  -1  225.88   19.00
  -9  -1  -1  209.48   25.80
  -9   1  -1  191.78   20.70
   9   1   1  184.78   30.70
   9   1   1  215.38   18.00
 -11  -1  -1  394.06   34.40
 -11  -1  -1  326.97   25.20
  11  -1   1  318.37   33.00
  11  -1   1  303.67   25.00
  11   1   1  307.17   38.20
 -11   1  -1  297.47   27.30
  11   1   1  326.27   24.20
  13  -1   1  494.85   42.70
  13  -1   1  444.16   32.10
 -13  -1  -1  458.65   32.40
 -13  -1  -1  437.06   40.20
 -13   1  -1  443.96   34.90
  13   1   1  420.46   30.60
  13   1   1  556.34   51.19
 -15  -1  -1  109.09   20.20
  15  -1   1  103.19   30.00
  15  -1   1  157.58   21.40
 -15  -1  -1  120.09   26.60
 -15   1  -1   96.89   22.10
  15   1   1  104.19   18.20
  15   1   1  121.99   33.80
  17  -1   1  -15.50    9.30
 -17  -1  -1  -10.80   14.00
 -17  -1  -1   13.50   13.90
  17  -1   1   23.50   24.60
 -17   1  -1    6.20   16.00
  17   1   1   19.80   13.40
  17   1   1  -13.10   26.60
  19  -1   1   34.10   29.40
 -19  -1  -1   33.40   18.60
 -19  -1  -1   11.50   22.90
  19   1   1   -3.80   27.80
 -19   1  -1   48.30   22.70
  19   1   1    8.70   13.50
  21  -1   1   55.19   34.20
 -21  -1  -1   58.09   26.10
  21   1   1  107.49   43.80
  23  -1   1   24.50   36.40
 -23   1  -1   84.99   30.70
  25   1   1    4.60   44.60
 -24  -2   1    1.00   16.80
  24  -2  -1  -21.50   25.60
  24   2  -1   -9.70   37.40
 -22  -2   1   38.20   19.70
  22  -2  -1   32.80   31.10
  22   2  -1   -7.80   44.70
 -22   2   1  -14.10   18.00
 -20  -2   1   21.90   20.80
  20  -2  -1   14.20   24.50
 -20  -2   1   24.60   17.10
  20   2  -1   28.70   15.40
 -20   2   1    0.70   18.30
  20   2  -1   43.30   37.90
 -18  -2   1   69.09   18.80
  18  -2  -1  108.59   31.80
  18  -2  -1   55.59   19.40
  18   2  -1   21.30   31.20
 -18   2   1   34.40   19.30
  16  -2  -1   17.30   13.10
 -16  -2   1    8.70   12.20
  16  -2  -1  -16.40   14.40
 -16  -2   1   -2.00   13.90
  16   2  -1   -0.20   10.40
 -16   2   1    5.80   12.70
  16   2  -1  -18.90   20.90
 -14  -2   1  424.16   30.80
 -14  -2   1  411.36   40.20
  14  -2  -1  367.46   36.90
  14  -2  -1  364.96   30.10
 -14   2   1  401.06   33.40
  14   2  -1  334.87   27.20
  14   2  -1  311.57   46.60
 -12  -2   1   28.80   15.70
  12  -2  -1   53.79   17.30
 -12  -2   1   25.00   12.70
  12  -2  -1   44.00   12.30
  12   2  -1   29.20   11.30
  12   2  -1   20.40   20.20
 -12   2   1   80.49   17.30
  10  -2  -1    9.60   12.00
 -10  -2   1    8.70   13.90
  10  -2  -1    5.60    9.30
 -10  -2   1   12.10    8.90
 -10   2   1   33.70   11.70
  10   2  -1    6.10   18.80
  10   2  -1   -2.30    7.80
   8  -2  -1  195.58   18.50
  -8  -2   1  235.38   17.70
   8  -2  -1  192.78   20.80
  -8  -2   1  229.48   27.20
  -8   2   1  255.47   21.00
   8   2  -1  229.38   17.20
   8   2  -1  196.28   31.20
  -6  -2   1   22.30   15.60
   6  -2  -1   70.89   13.30
  -6  -2   1   46.70    9.50
   6  -2  -1   51.79   10.50
   6   2  -1   32.80   19.80
   6   2  -1   62.69    9.50
  -6   2   1   73.99   13.20
  -4  -2   1  424.56   21.70
   4  -2  -1  410.86   24.80
  -4  -2   1  399.96   32.50
   4  -2  -1  402.66   23.40
  -4   2   1  409.66   25.00
   4   2  -1  406.66   21.40
   4   2  -1  408.06   34.80
  -2  -2   1   65.49    8.40
  -2  -2   1   59.39   15.30
   2  -2  -1   79.99   12.20
   2   2  -1   68.79   16.70
   2   2  -1   58.89    8.00
   0  -2  -1 1218.98   49.10
   0  -2  -1 1243.08   61.59
   0  -2   1 1241.88   57.79
   0  -2   1 1218.48   50.49
   0   2  -1 1189.78   58.19
   0   2  -1 1184.58   50.29
  -2  -2  -1  168.08   26.40
  -2  -2  -1  121.09    8.80
   2  -2   1  142.49   12.90
   2   2   1  171.98   24.50
   2   2   1  123.39    8.90
   4  -2   1  773.12   36.50
  -4  -2  -1  824.22   49.70
  -4  -2  -1  787.42   34.70
  -4   2  -1  762.92   36.30
   4   2   1  751.02   50.29
   4   2   1  816.02   34.60
   6  -2   1   27.50    9.60
  -6  -2  -1   13.00    6.50
   6  -2   1   10.70    7.90
  -6  -2  -1   10.30   14.60
  -6   2  -1    7.10    8.20
   6   2   1   21.70    7.00
   6   2   1   18.00   15.10
   8  -2   1  130.79   17.30
  -8  -2  -1  154.88   28.40
  -8  -2  -1  114.19   13.90
  -8   2  -1   96.09   14.80
   8   2   1  134.39   13.80
   8   2   1  108.79   26.90
  10  -2   1    0.40    8.50
  10  -2   1   19.90   12.20
 -10  -2  -1    7.00   13.20
 -10  -2  -1    3.70    8.20
 -10   2  -1   -5.20    8.90
  10   2   1   28.50   21.10
  10   2   1    6.50    8.70
 -12  -2  -1  392.86   39.40
  12  -2   1  419.76   35.70
 -12  -2  -1  357.96   28.00
  12  -2   1  409.06   30.50
  12   2   1  399.06   27.40
  12   2   1  429.76   47.30
 -12   2  -1  428.16   31.20
  14  -2   1  272.27   25.80
 -14  -2  -1  229.98   23.80
 -14  -2  -1  214.08   32.90
  14  -2   1  194.58   30.70
 -14   2  -1  196.18   24.70
  14   2   1  264.57   48.20
  14   2   1  238.28   22.80
  16  -2   1  163.38   24.00
 -16  -2  -1  165.18   24.30
  16  -2   1  211.18   38.10
 -16  -2  -1  196.98   39.40
  16   2   1  157.88   22.20
 -16   2  -1  171.98   25.90
  16   2   1  175.58   45.00
  18  -2   1   55.49   18.60
  18  -2   1   21.70   26.30
 -18  -2  -1   76.89   20.10
 -18   2  -1   47.90   20.10
  18   2   1  101.59   43.30
 -20  -2  -1  123.29   25.40
  20  -2   1   98.09   36.10
 -20  -2  -1   62.39   28.50
  20   2   1  131.39   43.30
  20   2   1   93.39   22.30
 -20   2  -1  111.39   29.50
  22  -2   1  -14.00   29.30
  24  -2   1    5.10   36.70
 -24   2  -1    2.20   22.60
  24   2   1  -16.60   40.00
 -25  -3   1   36.80   20.40
  25  -3  -1   -8.90   32.80
  25   3  -1   44.90   48.90
 -23  -3   1  240.38   34.00
  23  -3  -1  271.67   54.19
  23   3  -1  204.88   61.19
 -23   3   1  190.48   40.50
  21  -3  -1  -31.50   22.00
 -21  -3   1  -25.30   13.30
 -21   3   1    1.00   17.70
 -19  -3   1   58.49   28.60
 -19  -3   1  124.59   23.00
  19  -3  -1  142.89   34.50
 -19   3   1  115.09   27.70
  19   3  -1  113.69   22.70
  19   3  -1   72.29   41.50
 -17  -3   1   60.29   27.40
  17  -3  -1  126.59   31.20
 -17  -3   1  145.49   23.70
  17  -3  -1  101.49   21.60
  17   3  -1   99.79   19.80
  17   3  -1  117.59   39.10
 -17   3   1  117.99   24.90
 -15  -3   1    7.50   17.20
  15  -3  -1   66.19   16.40
  15  -3  -1   67.09   25.30
 -15  -3   1   70.59   16.80
 -15   3   1   70.59   18.40
  15   3  -1   14.30   11.90
  15   3  -1   61.49   34.40
  13  -3  -1  416.86   35.40
  13  -3  -1  400.16   31.40
 -13  -3   1  408.06   29.20
 -13  -3   1  414.86   42.20
  13   3  -1  382.76   49.60
 -13   3   1  365.06   31.50
  13   3  -1  392.76   28.10
  11  -3  -1  317.87   25.60
 -11  -3   1  287.77   23.10
 -11  -3   1  242.98   33.50
  11  -3  -1  279.57   27.10
 -11   3   1  284.67   25.70
  11   3  -1  279.27   42.00
  11   3  -1  252.27   21.40
  -9  -3   1  620.94   49.99
   9  -3  -1  707.43   39.20
   9  -3  -1  694.03   40.50
  -9  -3   1  671.13   35.80
   9   3  -1  758.52   58.29
  -9   3   1  670.03   39.70
   9   3  -1  619.84   34.80
  -7  -3   1  466.25   42.40
   7  -3  -1  563.04   32.90
   7  -3  -1  544.35   33.50
  -7  -3   1  578.14   30.10
   7   3  -1  634.74   30.40
   7   3  -1  619.34   49.30
  -7   3   1  547.45   33.50
  -5  -3   1  191.78   27.50
   5  -3  -1  180.98   18.30
  -5  -3   1  189.18   14.70
   5   3  -1  187.58   29.80
   5   3  -1  205.78   14.60
  -5   3   1  191.88   18.70
   3  -3  -1  251.97   21.30
  -3  -3   1  258.87   30.60
  -3  -3   1  280.57   16.70
   3   3  -1  259.87   16.30
   3   3  -1  239.98   31.80
  -1  -3   1 3320.27  146.19
   1  -3  -1 3367.16  133.09
  -1  -3   1 3328.97  133.79
   1   3  -1 3526.45  148.69
   1   3  -1 3335.47  133.59
   1  -3   1 2786.52  112.69
  -1  -3  -1 2745.43  127.29
   1  -3   1 2849.01  123.29
  -1  -3  -1 2850.31  110.69
   1   3   1 2746.93  110.39
  -3  -3  -1  212.98   13.00
   3  -3   1  163.38   16.90
  -3  -3  -1  173.38   27.50
   3   3   1  205.48   12.90
   3   3   1  255.67   31.90
   5  -3   1   86.29   13.50
  -5  -3  -1   76.99   21.10
  -5  -3  -1   66.39    9.40
   5   3   1   56.19   21.30
  -5   3  -1   73.29   12.90
   5   3   1   50.99    8.40
  -7  -3  -1  712.33   34.60
   7  -3   1  642.94   36.80
   7  -3   1  687.53   39.20
   7   3   1  696.73   55.39
   7   3   1  727.13   34.40
  -7   3  -1  740.13   37.40
  -9  -3  -1  193.38   18.10
  -9  -3  -1  204.38   34.30
   9  -3   1  217.98   21.60
   9  -3   1  207.68   20.70
   9   3   1  236.58   18.20
   9   3   1  265.97   43.90
  -9   3  -1  223.18   20.80
  11  -3   1  324.37   28.60
 -11  -3  -1  398.56   26.20
 -11  -3  -1  438.16   41.50
  11  -3   1  292.67   26.80
  11   3   1  376.56   47.20
  11   3   1  347.17   24.60
 -11   3  -1  338.67   26.90
  13  -3   1  115.59   22.70
 -13  -3  -1  117.09   29.40
 -13  -3  -1  156.28   19.60
  13  -3   1  150.98   20.50
  13   3   1  155.38   39.20
 -13   3  -1  165.38   21.00
  13   3   1  117.89   16.90
 -15  -3  -1    4.70   19.40
  15  -3   1   31.10   18.20
 -15  -3  -1   50.39   14.90
  15  -3   1   47.60   19.70
  15   3   1   10.70   26.30
  15   3   1   39.80   13.70
 -15   3  -1   34.50   16.40
  17  -3   1  411.86   35.80
 -17  -3  -1  336.67   46.40
 -17  -3  -1  426.96   35.00
  17  -3   1  431.56   44.90
 -17   3  -1  318.57   35.00
  17   3   1  403.16   32.50
  17   3   1  405.76   60.19
 -19  -3  -1   21.70   15.90
 -19  -3  -1   50.89   28.30
  19  -3   1   32.70   26.40
  19   3   1   27.90   15.10
  19   3   1  -12.50   33.80
 -19   3  -1   17.10   17.20
  21  -3   1  -50.19   22.20
 -21  -3  -1    7.50   16.80
  21   3   1   -7.80   52.69
 -21   3  -1   17.20   18.90
 -23  -3  -1   99.39   27.50
  23  -3   1   73.39   37.00
 -23   3  -1  172.08   36.30
  23   3   1  108.59   50.89
  24  -4  -1   31.40   32.60
 -24  -4   1   19.30   20.10
  24   4  -1   82.39   52.29
 -24   4   1   35.60   27.40
  22  -4  -1  -35.00   22.20
 -22  -4   1   -5.00   20.10
  22   4  -1  -31.20   35.10
 -20  -4   1   -3.20   13.70
  20  -4  -1   14.30   23.30
  20   4  -1  -10.20   36.90
  20   4  -1   11.40   14.50
 -20   4   1   12.00   19.70
 -18  -4   1    0.60   12.80
  18  -4  -1  -17.60   16.30
 -18  -4   1  -12.30   17.70
  18   4  -1   38.60   37.60
  18   4  -1   -0.20   12.70
 -18   4   1   29.70   19.80
  16  -4  -1   10.10   12.60
 -16  -4   1    5.60   11.20
  16  -4  -1   46.90   20.00
 -16  -4   1    6.10   18.10
  16   4  -1   26.00   29.40
  16   4  -1   19.50   12.10
 -16   4   1   -2.80   13.90
 -14  -4   1  257.67   38.00
 -14  -4   1  232.88   24.50
  14  -4  -1  314.97   32.60
  14  -4  -1  281.57   27.80
  14   4  -1  243.38   23.40
  14   4  -1  212.48   46.70
 -14   4   1  315.67   29.90
 -12  -4   1   14.20   15.10
  12  -4  -1   54.29   16.10
 -12  -4   1   14.90   17.10
  12  -4  -1    4.40   10.60
  12   4  -1   62.99   12.70
  12   4  -1   -3.80   22.40
 -10  -4   1   28.10   10.20
  10  -4  -1    4.30    8.80
  10  -4  -1    5.60   10.00
 -10  -4   1    1.70   14.80
  10   4  -1   -2.30   17.10
 -10   4   1   14.10   10.50
  -8  -4   1 1503.35   66.89
   8  -4  -1 1465.75   70.69
   8  -4  -1 1529.65   72.19
  -8  -4   1 1523.75   87.29
   8   4  -1 1473.65   66.29
  -8   4   1 1481.95   71.79
  -6  -4   1  930.01   61.89
  -6  -4   1  969.70   44.20
   6  -4  -1  942.91   49.70
  -6   4   1  874.71   48.80
   6   4  -1  934.21   43.70
   6   4  -1  937.31   66.69
  -4  -4   1  372.16   37.80
  -4  -4   1  436.56   22.90
   4  -4  -1  364.26   27.70
   4   4  -1  353.56   21.50
   4   4  -1  434.36   42.10
  -2  -4   1   84.39   22.80
  -2  -4   1   78.09   10.50
   2   4  -1   75.89   23.20
   2   4  -1   68.19   10.10
   0  -4   1  206.78   31.30
   0  -4   1  128.49   13.40
   0  -4  -1  127.29   12.40
   0  -4  -1  201.28   33.60
  -2  -4  -1  605.84   48.40
   2  -4   1  587.24   31.50
   2  -4   1  592.54   43.00
  -2  -4  -1  613.74   29.00
   2   4   1  577.24   49.70
   2   4   1  615.04   28.80
  -4  -4  -1 1796.52   97.19
  -4  -4  -1 1849.02   75.89
   4  -4   1 1862.11   81.49
   4   4   1 1807.02   75.49
  -6  -4  -1  -14.30   15.10
  -6  -4  -1    4.30    6.50
   6  -4   1   17.10   10.40
   6   4   1  -16.60   18.10
   6   4   1    2.10    6.40
  -8  -4  -1  886.11   64.59
  -8  -4  -1  955.40   45.10
   8  -4   1  933.51   48.70
   8  -4   1  898.21   50.19
   8   4   1  970.80   44.70
  -8   4  -1  961.40   48.80
   8   4   1  997.90   73.99
 -10  -4  -1  754.12   57.19
  10  -4   1  622.94   39.60
  10  -4   1  633.74   39.00
 -10  -4  -1  625.44   34.90
  10   4   1  708.83   63.59
 -10   4  -1  609.14   37.10
  10   4   1  593.34   33.80
  12  -4   1   15.40   13.00
  12  -4   1   39.10   13.60
 -12  -4  -1   10.30   17.90
 -12  -4  -1   44.90   12.50
  12   4   1   30.80   10.40
 -12   4  -1    7.20   10.70
  12   4   1   30.50   24.20
 -14  -4  -1   11.00   21.70
  14  -4   1    3.30   13.60
  14  -4   1   36.70   15.90
 -14  -4  -1   62.79   14.30
 -14   4  -1   46.40   17.80
  14   4   1    8.40   24.90
  14   4   1    5.30   10.10
 -16  -4  -1    9.30   20.60
 -16  -4  -1    1.90   11.90
  16  -4   1    7.50   14.70
  16   4   1   35.20   34.40
  16   4   1   27.80   13.30
 -16   4  -1  -15.70   12.30
  18  -4   1    0.80   19.70
 -18  -4  -1   18.20   29.40
 -18  -4  -1   15.50   14.90
  18   4   1    1.10   12.10
 -18   4  -1    4.00   15.30
  18   4   1    9.30   35.70
  20  -4   1    2.30   25.10
 -20  -4  -1   -0.10   15.40
 -20   4  -1    9.70   19.30
  20   4   1   10.90   16.30
  20   4   1   78.99   45.10
  22  -4   1   37.20   32.10
 -22  -4  -1    0.10   20.30
  22   4   1   18.30   43.70
 -22   4  -1   13.90   23.00
  24  -4   1   34.80   34.00
 -24  -4  -1   55.89   23.50
  24   4   1    6.60   46.60
 -24   4  -1   19.00   23.20
 -23  -5   1   88.29   25.40
  23  -5  -1   41.80   32.50
 -23   5   1   33.00   27.00
  23   5  -1  125.19   61.69
  21  -5  -1   19.00   24.80
 -21  -5   1   22.80   16.30
  21   5  -1    1.50   36.50
 -21   5   1   28.90   23.40
  19  -5  -1  235.28   38.30
 -19  -5   1  220.58   28.20
  19   5  -1   94.79   45.30
  19   5  -1  145.09   23.60
 -19   5   1  222.08   36.20
 -17  -5   1   46.90   16.10
  17  -5  -1   53.39   22.60
  17   5  -1   33.30   15.40
 -17   5   1   28.10   18.60
  17   5  -1   -2.70   30.80
  15  -5  -1   51.49   17.90
 -15  -5   1   -2.00   11.30
 -15  -5   1   22.70   23.30
  15  -5  -1   16.30   17.60
  15   5  -1   14.00   11.10
  15   5  -1   26.40   33.90
 -15   5   1   -2.60   11.20
  13  -5  -1   47.70   15.40
 -13  -5   1   41.80   13.60
 -13  -5   1   93.89   31.90
  13  -5  -1   60.79   19.50
 -13   5   1   37.70   14.90
  13   5  -1   55.09   13.00
  13   5  -1   68.89   35.30
 -11  -5   1   -3.30   18.10
 -11  -5   1   18.40   10.10
  11  -5  -1   38.70   14.90
  11  -5  -1   -1.20    9.00
  11   5  -1    5.40   24.40
  11   5  -1   21.70   10.70
 -11   5   1   17.50   14.60
  -9  -5   1  422.56   27.10
   9  -5  -1  397.96   30.70
   9  -5  -1  405.86   32.00
  -9  -5   1  390.16   44.00
  -9   5   1  460.05   33.00
   9   5  -1  411.16   51.49
  -7  -5   1  364.06   23.30
  -7  -5   1  328.07   40.40
   7  -5  -1  347.87   28.90
   7   5  -1  325.57   22.10
   7   5  -1  298.17   44.10
  -5  -5   1  249.88   38.70
  -5  -5   1  263.47   19.70
   5  -5  -1  317.87   26.90
   5   5  -1  255.87   18.90
   5   5  -1  242.98   43.20
   3  -5  -1 1753.02   85.89
  -3  -5   1 1913.61  107.79
  -3  -5   1 1810.22   77.79
   3   5  -1 1927.91  104.59
   3   5  -1 1774.32   77.29
   1  -5  -1   24.00    8.10
  -1  -5   1   21.30    7.90
  -1  -5   1   17.30   17.50
   1  -5  -1  -12.20   14.10
   1   5  -1    8.40    7.10
   1  -5   1  102.39   14.30
  -1  -5  -1  175.58   45.00
   1  -5   1  191.48   32.70
  -1  -5  -1  120.69   12.60
   3  -5   1  954.50   52.29
   3  -5   1  947.41   62.09
  -3  -5  -1  953.70   44.30
  -3  -5  -1  992.30   68.09
   3  -5   1  929.31   47.50
   3   5   1  991.20   44.10
   3   5   1 1038.90   73.09
  -5  -5  -1   27.30   21.30
  -5  -5  -1    7.70    7.70
   5  -5   1   14.30   11.10
   5   5   1    0.00   23.00
   5   5   1    6.30    6.30
  -7  -5  -1  268.07   45.10
  -7  -5  -1  229.48   18.50
   7  -5   1  259.37   23.40
   7   5   1  221.38   42.10
   7   5   1  271.17   18.40
   9  -5   1  640.54   41.80
  -9  -5  -1  671.13   58.19
   9  -5   1  675.23   40.60
  -9  -5  -1  728.93   37.00
   9   5   1  641.44   35.40
   9   5   1  696.43   66.89
  -9   5  -1  732.33   41.70
  11  -5   1    9.80   10.90
  11  -5   1   -9.30   10.10
 -11  -5  -1    1.50   18.70
 -11  -5  -1   31.90   10.40
  11   5   1   19.00   29.50
 -11   5  -1    7.00   10.80
  11   5   1   16.40    8.80
 -13  -5  -1  621.94   36.40
  13  -5   1  536.65   40.30
 -13  -5  -1  562.64   62.99
  13  -5   1  496.95   39.50
  13   5   1  520.05   33.80
  13   5   1  502.05   66.59
 -15  -5  -1  147.39   22.00
  15  -5   1  137.69   25.10
  15  -5   1  138.29   26.30
 -15  -5  -1  131.79   35.90
 -15   5  -1  112.19   21.60
  15   5   1  132.59   44.60
  15   5   1  128.29   20.30
 -17  -5  -1   29.80   15.70
  17  -5   1    6.90   18.10
 -17   5  -1    8.40   15.70
  17   5   1   24.90   37.50
  17   5   1   44.60   14.90
 -19  -5  -1   47.20   17.80
  19  -5   1   73.69   27.30
 -19   5  -1   46.30   23.60
  19   5   1   56.39   18.50
  19   5   1   55.39   42.20
 -21  -5  -1  137.29   27.20
  21  -5   1   87.49   32.60
  21   5   1   44.90   44.90
 -21   5  -1  106.29   31.30
 -23  -5  -1  -11.90   17.30
  23  -5   1   -2.80   27.30
 -23   5  -1   -9.50   24.70
  23   5   1  -42.50   43.40
 -22  -6   1   22.60   17.60
  22  -6  -1   19.00   25.60
  22   6  -1  -26.10   36.00
  20  -6  -1   32.40   24.20
 -20  -6   1   23.80   17.10
 -20   6   1   55.79   22.00
  20   6  -1   33.20   17.30
  20   6  -1   -8.60   34.70
  18  -6  -1   70.89   23.70
 -18  -6   1  112.79   23.00
  18   6  -1   53.39   17.60
 -18   6   1  115.29   27.60
  18   6  -1   78.19   41.70
 -16  -6   1  158.08   23.80
  16  -6  -1  113.79   27.20
  16   6  -1   59.59   44.50
  16   6  -1  107.29   20.70
 -16   6   1  186.88   30.30
  14  -6  -1    9.70   15.40
 -14  -6   1   17.70   24.30
  14  -6  -1   10.00   13.00
 -14  -6   1   16.40   12.20
  14   6  -1    6.80   32.80
 -14   6   1   10.00   14.60
  14   6  -1   14.40   11.80
 -12  -6   1  262.47   59.19
  12  -6  -1  247.68   44.60
 -12  -6   1  279.77   24.50
 -12   6   1  279.47   29.30
  12   6  -1  214.18   52.79
  12   6  -1  260.77   23.00
 -10  -6   1   79.99   16.50
  10  -6  -1   80.89   19.00
 -10  -6   1   48.40   28.20
  10  -6  -1   74.69   17.70
  10   6  -1  181.98   49.80
  10   6  -1  103.29   16.10
   8  -6  -1  113.59   21.60
  -8  -6   1  113.39   15.00
  -8  -6   1  134.99   32.00
   8   6  -1  119.09   14.70
   8   6  -1   90.19   35.40
  -6  -6   1  251.57   43.70
  -6  -6   1  195.28   18.30
   6  -6  -1  219.08   25.50
   6   6  -1  206.98   18.20
   6   6  -1  229.38   45.40
  -4  -6   1  167.88   16.90
   4  -6  -1  157.88   18.10
   4  -6  -1  164.58   23.20
  -4  -6   1  196.48   37.90
   4   6  -1  175.88   39.70
   4   6  -1  147.79   15.20
  -2  -6   1  281.07   21.70
   2  -6  -1  278.17   21.40
   2  -6  -1  281.47   38.50
  -2  -6   1  248.98   36.80
   2   6  -1  271.67   20.30
   0  -6  -1  120.79   14.90
   0  -6  -1  127.99   33.90
   0  -6   1  184.38   36.00
   0  -6   1  142.39   16.80
   2  -6   1   -9.70   18.00
  -2  -6  -1  -19.80   19.00
   2  -6   1   -3.30    8.20
  -2  -6  -1  -13.00    7.10
   2   6   1    8.60    6.60
   4  -6   1    4.20    9.70
   4  -6   1   14.30   13.50
  -4  -6  -1    7.30    7.00
   4  -6   1   -9.20   16.50
  -4  -6  -1  -20.90   15.70
   4   6   1   12.90    7.50
   4   6   1   64.29   30.10
  -6  -6  -1   56.49   11.10
   6  -6   1   89.69   19.00
  -6  -6  -1   67.29   28.20
   6   6   1   70.99   11.70
   6   6   1   42.30   27.90
  -8  -6  -1   -1.50   17.00
  -8  -6  -1   57.79   11.40
   8  -6   1   72.69   16.70
   8   6   1   47.30   27.50
   8   6   1   42.80   10.40
 -10  -6  -1  143.79   35.30
  10  -6   1  149.39   22.30
 -10  -6  -1  154.38   17.90
  10  -6   1  172.38   22.40
  10   6   1  221.88   48.70
  10   6   1  140.89   16.80
  12  -6   1  544.95   41.20
 -12  -6  -1  580.14   35.60
 -12  -6  -1  467.85   56.89
  12  -6   1  598.04   40.70
  12   6   1  663.03   74.69
  12   6   1  558.54   34.20
  14  -6   1   10.30   14.80
 -14  -6  -1   12.30   11.60
 -14  -6  -1   28.80   28.10
  14  -6   1  -19.20   12.20
  14   6   1   19.70   34.70
  14   6   1   -1.40   11.20
 -14   6  -1   -3.30   13.30
 -16  -6  -1   18.90   12.80
  16  -6   1   37.60   19.60
 -16   6  -1   15.50   15.60
  16   6   1  -10.90   30.10
  16   6   1  -13.40   11.00
 -18  -6  -1   33.60   16.50
  18  -6   1   31.00   19.70
 -18   6  -1   25.90   17.10
  18   6   1  101.19   48.00
  18   6   1   36.80   18.40
  20  -6   1   71.49   30.30
 -20  -6  -1   10.30   14.40
 -20   6  -1  -13.70   15.90
  20   6   1  -15.60   12.60
  20   6   1    2.00   43.50
 -22  -6  -1   29.50   23.00
  22  -6   1  -23.50   24.50
 -22   6  -1   40.00   24.10
  22   6   1   38.30   51.49
  21  -7  -1    3.30   22.60
 -21  -7   1   48.30   21.80
 -21   7   1   15.80   22.70
  21   7  -1  -16.00   40.70
 -19  -7   1   38.30   17.70
  19  -7  -1   45.20   23.20
  19   7  -1   49.60   50.59
  19   7  -1   64.99   19.30
 -19   7   1   57.89   21.60
  17  -7  -1  180.28   32.90
 -17  -7   1  185.78   26.10
  17   7  -1  197.48   31.60
  17   7  -1  121.09   51.89
 -17   7   1  198.18   34.00
  15  -7  -1   -2.20   16.10
 -15  -7   1   10.70   13.30
  15   7  -1   19.20   12.90
 -13  -7   1  292.07   59.59
  13  -7  -1  236.08   28.70
 -13  -7   1  272.77   25.40
  13  -7  -1  245.18   30.50
  13   7  -1  240.38   24.50
  13   7  -1  280.07   62.19
  11  -7  -1    5.60   12.40
 -11  -7   1   42.70   26.80
  11  -7  -1   35.00   17.60
 -11  -7   1   -0.80   10.10
  11   7  -1   19.00   11.10
  11   7  -1   -8.00   27.10
   9  -7  -1  146.79   22.40
   9  -7  -1  212.38   27.00
  -9  -7   1  212.48   20.10
  -9  -7   1  149.99   37.60
   9   7  -1  229.18   54.39
   9   7  -1  143.49   17.50
  -7  -7   1  398.06   27.30
   7  -7  -1  447.16   37.70
  -7  -7   1  324.97   46.40
   7   7  -1  469.05   59.59
   7   7  -1  394.36   26.50
   5  -7  -1   37.60   17.10
  -5  -7   1   13.00    9.30
   5  -7  -1   15.90   10.50
  -5  -7   1   21.60   21.40
   5   7  -1   53.09   29.50
   5   7  -1    9.80    8.90
  -3  -7   1   99.49   28.60
   3  -7  -1   84.09   21.40
   3  -7  -1   59.79   24.60
   3  -7  -1   80.89   15.40
  -3  -7   1   83.59   14.40
   3   7  -1   90.19   14.20
  -1  -7   1   37.80   12.20
   1  -7  -1   40.60   12.00
   1  -7  -1   51.09   26.10
  -1  -7   1   35.10   24.30
  -1  -7  -1  192.58   42.70
   1  -7   1  134.49   18.00
   1  -7   1  239.78   43.30
  -1  -7  -1  108.49   15.10
  -3  -7  -1   27.00   24.60
   3  -7   1   50.09   23.90
   3  -7   1   34.10   13.00
  -3  -7  -1   30.80   10.20
   3  -7   1   19.80   16.30
   3   7   1   30.80    8.70
   5  -7   1   79.59   27.00
  -5  -7  -1   40.00   26.10
   5  -7   1   76.09   19.00
   5  -7   1   56.79   13.90
  -5  -7  -1   65.99   12.70
   5   7   1   22.20   27.70
   5   7   1   83.79   13.10
  -7  -7  -1  449.66   56.19
  -7  -7  -1  604.44   33.60
   7  -7   1  597.24   42.10
   7   7   1  690.53   71.59
  -9  -7  -1   60.19   13.00
   9  -7   1    2.60   12.40
  -9  -7  -1   48.80   45.20
   9   7   1   13.50   29.60
   9   7   1   43.60   11.40
 -11  -7  -1   70.99   31.40
 -11  -7  -1   70.89   14.70
  11  -7   1   38.20   15.60
  11  -7   1   65.09   17.70
  11   7   1  108.19   44.40
  11   7   1   87.09   15.40
 -13  -7  -1  202.58   22.80
  13   7   1  206.58   56.09
  13   7   1  212.48   22.20
 -15  -7  -1   59.49   16.80
  15  -7   1  164.98   26.70
  15   7   1  126.69   52.89
  15   7   1  113.29   19.20
 -17  -7  -1   79.29   19.40
  17  -7   1   55.49   22.10
  17   7   1   73.49   17.80
  17   7   1    8.20   39.90
  19  -7   1   28.90   22.70
 -19  -7  -1    6.20   14.60
  19   7   1   -4.50   12.40
  19   7   1   31.60   49.00
  21  -7   1   56.79   31.80
 -21  -7  -1   -4.20   15.60
 -21   7  -1   15.40   20.70
  21   7   1  -34.60   39.10
 -20  -8   1   63.09   20.70
  20  -8  -1   69.39   29.80
  20   8  -1   26.60   47.00
  18  -8  -1   32.40   23.00
 -18  -8   1   32.20   17.40
  18   8  -1   43.70   47.40
  18   8  -1    1.80   14.20
 -16  -8   1   49.30   17.20
  16  -8  -1   92.29   24.70
  16   8  -1  111.39   21.10
  16   8  -1   65.09   49.00
  14  -8  -1   29.50   18.80
 -14  -8   1    9.80   13.30
  14   8  -1  -22.00   34.50
  14   8  -1   25.60   13.00
 -12  -8   1   10.30   13.10
  12  -8  -1  -12.30   13.00
  12  -8  -1  -27.50   15.30
  12   8  -1    4.70   32.30
  12   8  -1    6.60   10.90
  10  -8  -1  183.58   30.10
 -10  -8   1  171.78   21.60
  10  -8  -1  174.18   26.60
 -10  -8   1  141.49   40.60
  10   8  -1  151.38   19.90
  10   8  -1  155.68   45.20
   8  -8  -1  418.76   39.60
  -8  -8   1  365.86   51.99
  -8  -8   1  427.36   30.10
   8   8  -1  345.07   65.29
   8   8  -1  449.86   29.70
  -6  -8   1   43.10   13.80
  -6  -8   1   59.39   28.60
   6  -8  -1   57.49   17.80
   6  -8  -1   87.39   22.60
   6  -8  -1   70.39   31.40
   6   8  -1    3.10   30.00
   6   8  -1   77.99   14.20
  -4  -8   1  207.98   21.00
   4  -8  -1  239.58   23.00
   4  -8  -1  271.37   49.90
  -4  -8   1  128.19   37.90
   4  -8  -1  154.58   30.80
   4   8  -1  191.38   19.10
  -2  -8   1   63.89   26.80
  -2  -8   1   66.89   14.80
   2  -8  -1   65.99   30.00
   2  -8  -1  111.19   18.60
   0  -8   1   67.49   15.70
   0  -8  -1   37.90   12.60
   0  -8   1   31.20   19.90
   0  -8  -1   28.90   25.00
   2  -8   1  215.48   23.60
  -2  -8  -1  254.87   50.69
  -2  -8  -1  226.68   24.50
   2  -8   1  279.47   47.00
   4  -8   1   47.40   20.10
  -4  -8  -1   18.50   22.80
   4  -8   1    4.80   21.90
  -4  -8  -1    5.90    8.80
   4  -8   1   29.10   14.50
   4   8   1   38.00   10.90
   6  -8   1   67.89   20.10
  -6  -8  -1  104.79   16.30
   6  -8   1   75.39   31.50
   6  -8   1   78.89   17.50
  -6  -8  -1   -1.80   41.50
   6   8   1   97.89   15.10
  -8  -8  -1  130.79   37.30
   8  -8   1  163.18   26.50
   8  -8   1  177.78   29.30
   8   8   1  155.28   17.60
   8   8   1  104.79   44.70
  10  -8   1  -18.40   12.20
 -10  -8  -1   13.60   11.30
 -10  -8  -1  -21.90   25.10
  10   8   1   67.99   42.90
  10   8   1    5.00    8.90
 -12  -8  -1   41.50   13.70
  12  -8   1   46.00   18.40
  12   8   1   45.10   13.60
  12   8   1   77.89   63.99
 -14  -8  -1  130.59   21.40
  14  -8   1   64.89   20.90
  14   8   1   83.39   43.40
  14   8   1   76.69   17.80
  16  -8   1    4.70   16.00
 -16  -8  -1    0.10   13.50
  16   8   1   -1.30   12.10
  16   8   1   -8.80   42.90
  18  -8   1   36.00   22.50
 -18  -8  -1   55.49   18.00
  18   8   1   48.60   49.80
  18   8   1   28.20   15.90
 -20  -8  -1    6.40   15.70
  20  -8   1    3.00   22.70
  20   8   1   -1.80   15.40
  20   8   1   43.20   55.89
 -19  -9   1   -4.40   14.30
  19  -9  -1   13.90   21.60
  19   9  -1   -2.10   47.20
  17  -9  -1   11.50   18.20
 -17  -9   1   38.30   18.60
  17   9  -1   20.00   15.40
  17   9  -1   81.99   54.09
 -15  -9   1   25.10   14.60
  15  -9  -1    4.60   19.50
  15   9  -1   41.90   15.40
  15   9  -1   61.59   46.60
  13  -9  -1  122.79   26.00
 -13  -9   1   93.49   19.70
  13   9  -1  108.09   51.49
  13   9  -1   94.99   18.10
  11  -9  -1  -15.90   13.40
 -11  -9   1   10.40   12.20
  11   9  -1    4.30   12.00
  11   9  -1  -46.70   31.60
   9  -9  -1  193.08   28.20
   9  -9  -1  157.08   30.20
  -9  -9   1  249.97   24.10
   9   9  -1  161.48   21.50
   9   9  -1  133.09   51.99
   7  -9  -1   25.90   16.00
  -7  -9   1   38.60   14.20
   7  -9  -1   39.10   20.30
  -7  -9   1   15.60   26.40
   7  -9  -1   45.70   32.00
   7   9  -1   -6.50   35.40
   7   9  -1   14.00   10.60
   5  -9  -1   22.70   19.70
   5  -9  -1    8.40   24.00
   5  -9  -1  -20.80    8.60
  -5  -9   1   -5.60   22.90
  -5  -9   1   -5.90    9.60
   5   9  -1   -4.90    8.60
   3  -9  -1   -4.80   17.60
   3  -9  -1    6.60   12.50
   3  -9  -1    8.00   23.30
  -3  -9   1   -3.00   10.40
  -3  -9   1   13.50   24.40
  -1  -9   1  162.18   21.60
   1  -9  -1  132.59   39.30
  -1  -9   1  206.18   45.00
   1  -9  -1  165.98   20.90
   1  -9   1   34.30   26.70
   1  -9   1   17.60   13.30
  -1  -9  -1   44.40   29.60
  -1  -9  -1   30.30   12.50
   3  -9   1   85.89   19.40
  -3  -9  -1  152.48   43.30
  -3  -9  -1  130.19   18.70
   3  -9   1  166.78   33.80
   3  -9   1   88.49   33.20
   5  -9   1   -6.70   12.40
   5  -9   1   35.80   20.00
  -5  -9  -1    0.90   24.70
   5  -9   1  -23.80   21.30
  -5  -9  -1    7.00   10.90
  -7  -9  -1  103.39   17.00
  -7  -9  -1  170.48   53.19
   7  -9   1  154.58   26.40
   7  -9   1   85.99   37.40
   7  -9   1  107.19   28.30
   7   9   1  115.79   17.60
   9  -9   1   96.89   21.70
  -9  -9  -1   60.49   15.60
   9  -9   1   69.49   22.30
   9  -9   1   47.50   30.00
   9   9   1   66.19   16.00
   9   9   1   43.20   45.20
  11  -9   1   46.10   20.80
  11  -9   1   36.60   24.70
 -11  -9  -1   54.59   15.20
  11   9   1   41.70   45.20
  11   9   1    5.00   10.80
 -13  -9  -1    2.10   11.80
  13  -9   1  -14.80   14.50
  13   9   1   42.90   47.10
  13   9   1  -12.60    9.80
 -15  -9  -1   71.99   18.20
  15  -9   1   38.40   20.20
  15   9   1   64.29   48.70
  15   9   1   34.40   15.20
 -17  -9  -1  101.39   23.00
  17  -9   1   61.79   23.60
  17   9   1   55.39   51.59
 -19  -9  -1   -2.60   15.20
  19  -9   1   12.50   22.50
  19   9   1  -12.10   48.60
  19   9   1   -3.70   14.90
  16 -10  -1   12.90   19.50
 -16 -10   1   18.40   15.30
  16  10  -1  -29.90   42.10
  16  10  -1   10.20   14.80
 -14 -10   1   79.79   19.00
  14 -10  -1   23.80   20.40
  14  10  -1   31.00   26.90
  14  10  -1   -5.90   39.90
  12 -10  -1   -9.70   15.80
  12 -10  -1  -13.60   15.00
 -12 -10   1   -7.20   11.60
  12  10  -1   -1.50   36.70
  12  10  -1    9.70   12.20
  10 -10  -1   48.10   37.70
 -10 -10   1   24.50   13.80
  10 -10  -1   19.90   17.70
  10  10  -1   12.40   12.10
  10  10  -1   55.09   42.40
   8 -10  -1  160.88   26.30
   8 -10  -1  146.99   44.20
  -8 -10   1  154.18   22.30
   8 -10  -1  127.39   30.10
   8  10  -1  176.88   23.90
  -6 -10   1   24.00   12.90
   6 -10  -1  -14.00   25.50
   6 -10  -1  -22.10   12.30
   6 -10  -1    7.90   19.40
   6  10  -1    6.00   12.30
   4 -10  -1   94.79   29.30
  -4 -10   1   81.09   39.10
  -4 -10   1  165.98   23.30
   4 -10  -1  112.19   22.30
  -2 -10   1  193.88   25.00
   2 -10  -1  283.77   45.90
   2 -10  -1  239.78   53.09
   2 -10  -1  214.78   25.60
  -2 -10   1  140.99   41.40
   0 -10  -1   28.60   14.80
   0 -10   1   36.10   15.70
   0 -10   1   -2.60   26.50
   0 -10  -1  -16.70   23.00
  -2 -10  -1  605.54   38.30
  -2 -10  -1  467.95   64.69
   2 -10   1  568.44   40.70
   2 -10   1  548.15   53.89
   2 -10   1  620.44   67.19
   4 -10   1  -12.70   16.30
   4 -10   1  -32.50   11.40
   4 -10   1   36.90   31.50
  -4 -10  -1    8.50   11.10
   6 -10   1   15.60   15.70
  -6 -10  -1    7.50   11.30
   6 -10   1   46.60   22.40
   6 -10   1   25.90   29.50
  -8 -10  -1  227.88   24.20
   8 -10   1  208.78   47.40
   8 -10   1  227.18   37.00
   8 -10   1  253.47   30.90
   8  10   1  260.17   25.30
 -10 -10  -1   31.60   13.00
  10 -10   1    9.80   14.50
  10 -10   1  -24.30   27.90
  10 -10   1   16.10   17.60
  10  10   1    1.70   10.80
 -12 -10  -1   35.90   14.30
  12 -10   1   42.00   20.20
  12 -10   1   28.60   36.10
  12 -10   1   31.00   19.80
  12  10   1   16.90   38.40
  12  10   1   38.30   15.50
  14 -10   1  -38.60   33.30
 -14 -10  -1    0.40   12.60
  14 -10   1   18.70   19.50
  14 -10   1   -3.40   16.90
  14  10   1   -8.30   11.10
  14  10   1    9.90   46.40
  16 -10   1   -7.40   18.00
 -16 -10  -1    2.60   13.90
  16  10   1    9.00   48.70
  15 -11  -1  -44.90   36.00
 -15 -11   1   14.70   16.10
  15 -11  -1    6.80   18.50
  15 -11  -1   10.40   18.70
  15  11  -1    7.60   44.80
  15  11  -1    3.50   14.30
  13 -11  -1   26.20   21.80
  13 -11  -1   -6.60   17.20
  13 -11  -1   11.50   39.50
 -13 -11   1    0.90   14.20
  13  11  -1  -40.80   43.20
  13  11  -1   12.70   14.30
  11 -11  -1   -8.80   33.20
 -11 -11   1   11.10   13.70
  11 -11  -1  -13.30   14.80
  11 -11  -1  -16.30   15.00
  11  11  -1   22.40   24.90
   9 -11  -1   61.39   25.90
  -9 -11   1   25.90   13.70
   9 -11  -1   48.10   19.40
   9 -11  -1   26.80   35.90
   9  11  -1   36.20   14.80
   7 -11  -1   92.59   40.90
  -7 -11   1   67.49   16.90
   7 -11  -1   85.29   26.50
   7 -11  -1   80.99   20.00
   5 -11  -1   21.50   34.50
   5 -11  -1   16.40   13.20
  -5 -11   1    7.90   12.10
   5 -11  -1    9.40   21.30
   3 -11  -1   75.39   37.60
   3 -11  -1  131.29   34.00
   3 -11  -1  113.99   21.30
  -3 -11   1  153.48   24.50
  -1 -11   1   -6.00   11.90
   1 -11  -1  -16.70   10.30
   1 -11  -1    1.60   23.40
   1 -11   1  -31.60   23.60
  -1 -11  -1   10.70   12.30
   1 -11   1   40.20   16.40
   3 -11   1   52.99   26.50
   3 -11   1   85.09   20.20
  -3 -11  -1   88.89   18.30
   3 -11   1   94.29   40.60
   5 -11   1    2.00   19.20
   5 -11   1    3.60   27.40
   5 -11   1   29.50   16.10
  -5 -11  -1   -3.60   10.90
   7 -11   1  166.18   34.50
   7 -11   1  153.08   28.70
  -7 -11  -1  165.88   22.40
   7 -11   1  128.29   45.10
   9 -11   1   14.50   18.80
  -9 -11  -1   12.50   13.10
   9 -11   1    9.80   15.60
   9 -11   1   43.70   43.90
   9  11   1   17.30   12.80
  11 -11   1   21.80   18.70
 -11 -11  -1    1.20   12.10
  11 -11   1    9.40   16.60
  11  11   1    6.40   13.90
  13 -11   1    8.70   17.70
  13 -11   1   35.10   20.70
 -13 -11  -1   12.30   13.60
  13  11   1   12.50   14.50
 -15 -11  -1   18.50   14.80
  15 -11   1    9.40   20.40
  15 -11   1  -26.40   18.70
  15  11   1   13.70   18.00
  12 -12  -1   42.20   24.90
  12 -12  -1   30.90   20.30
 -12 -12   1   75.69   19.90
  12  12  -1   52.59   20.50
  10 -12  -1   35.80   21.60
 -10 -12   1   31.80   16.70
  10 -12  -1   45.50   25.70
  10  12  -1   71.39   20.10
  -8 -12   1   30.70   14.80
   8 -12  -1   23.00   23.50
   8 -12  -1    3.40   13.90
  -6 -12   1    8.40   13.60
   6 -12  -1   -6.80   24.50
   6 -12  -1   20.90   16.70
  -4 -12   1   18.10   14.20
   4 -12  -1    0.80   11.90
   4 -12  -1  -14.00   21.90
  -2 -12   1   52.49   17.10
   2 -12  -1   28.90   16.00
   2 -12  -1   49.60   30.60
   0 -12  -1   -1.50   11.70
   0 -12   1   -5.30   11.90
   0 -12  -1    1.30   22.10
   2 -12   1  -11.90   32.90
   2 -12   1   26.00   16.40
  -2 -12  -1   17.80   12.80
   4 -12   1   51.49   18.50
  -4 -12  -1   62.49   17.30
   4 -12   1   61.19   30.40
  -6 -12  -1   77.99   17.60
   6 -12   1   77.39   21.60
   6 -12   1   51.19   26.70
   8 -12   1   33.30   19.00
   8 -12   1   35.40   41.90
   8 -12   1   10.60   19.30
  -8 -12  -1   16.40   14.20
 -10 -12  -1   14.50   13.70
  10 -12   1   27.50   24.30
  10 -12   1   10.70   17.60
  10 -12   1   27.90   39.80
 -12 -12  -1   56.09   17.70
  12 -12   1   90.39   29.00
  12 -12   1  128.09   53.69
  12 -12   1   17.90   19.70
   7 -13  -1   18.00   24.40
   7 -13  -1   31.70   16.60
  -7 -13   1   30.60   16.10
   5 -13  -1  -25.70   17.80
  -5 -13   1   -2.00   14.10
   5 -13  -1    3.00   13.80
   3 -13  -1    8.10   13.90
  -3 -13   1   -8.00   12.70
   3 -13  -1    0.70   22.80
   1 -13  -1   -8.70   13.00
   1 -13  -1   19.10   25.60
  -1 -13   1  -11.50   13.40
  -1 -13  -1   22.40   14.60
   1 -13   1   36.30   26.10
  -1 -13  -1   34.50   31.60
   1 -13   1   43.30   17.30
  -3 -13  -1    1.90   12.20
   3 -13   1  -21.80   18.70
   3 -13   1   -2.70   14.30
   5 -13   1   11.70   14.30
  -5 -13  -1   11.90   13.10
   5 -13   1    1.40   23.80
   7 -13   1  -25.70   12.90
   7 -13   1   -6.60   22.80
  -7 -13  -1   25.40   15.70
  26   0  -2   23.30   43.00
  24   0  -2   69.89   50.09
 -22   0   2  122.79   26.30
 -22   0   2   37.80   25.10
  22   0  -2  119.99   42.30
  20   0  -2   47.10   31.10
 -20   0   2   33.50   18.90
 -20   0   2   29.80   24.20
 -18   0   2   37.90   21.00
  18   0  -2   18.90   14.80
 -18   0   2    8.90   14.70
  18   0  -2  -18.80   19.80
  16   0  -2  138.79   20.40
 -16   0   2   71.19   21.40
 -16   0   2  114.99   21.20
  16   0  -2  119.49   33.40
 -14   0   2  144.79   20.20
  14   0  -2  138.69   18.70
 -14   0   2  126.89   25.10
  14   0  -2  142.49   30.60
 -12   0   2  790.42   51.59
  12   0  -2  924.91   46.60
  12   0  -2  829.02   57.19
 -12   0   2  828.02   46.40
  10   0  -2  337.27   31.70
 -10   0   2  257.17   26.90
 -10   0   2  323.67   23.80
  -8   0   2   48.30   10.50
  -8   0   2   47.90   14.70
   8   0  -2   50.69   16.40
   8   0  -2   30.30    9.30
  -6   0   2 5033.90  193.68
   6   0  -2 4816.02  199.48
   6   0  -2 4899.11  193.28
  -6   0   2 4837.92  198.28
   4   0  -2  112.09   14.40
  -4   0   2  121.49   10.40
  -4   0   2  135.89   14.20
   4   0  -2  141.59   10.60
  -2   0   2   26.00    3.80
  -2   0   2    1.00    3.00
   2   0  -2   24.10    5.10
   2   0  -2   -0.30    2.70
   2   0   2   13.20    7.30
  -2   0  -2    7.20    6.30
   4   0   2   42.00    8.20
  -4   0  -2   48.40   12.50
   4   0   2   36.20   13.20
  -6   0  -2  125.39   17.90
   6   0   2  116.39   13.40
  -6   0  -2  128.19   14.40
   6   0   2  117.89   19.80
  -8   0  -2   24.30   11.80
   8   0   2    5.20   13.00
   8   0   2   21.20    8.20
  -8   0  -2   13.10    8.80
 -10   0  -2 1079.99   59.29
  10   0   2 1048.30   53.19
  10   0   2 1102.59   64.69
 -10   0  -2 1122.99   55.09
  12   0   2    9.70    9.20
 -12   0  -2   -3.80   10.80
  12   0   2    1.80   17.20
  14   0   2  647.14   40.50
  14   0   2  657.33   63.49
 -14   0  -2  613.14   45.90
  16   0   2   24.20   25.40
 -16   0  -2   12.30   16.90
  16   0   2  -12.70    9.90
 -18   0  -2  359.76   40.50
  18   0   2  378.36   35.10
  18   0   2  435.06   57.29
  20   0   2   17.30   31.80
 -20   0  -2  -13.50   15.70
 -22   0  -2   11.60   20.50
  22   0   2   50.29   41.60
  24   0   2    6.20   45.20
  25  -1  -2   -7.90   33.00
  25   1  -2   22.50   40.90
  23  -1  -2   22.50   32.30
 -23  -1   2   29.40   19.80
 -23   1   2   34.30   25.50
  21  -1  -2   -6.10   24.40
 -21  -1   2    0.40   19.00
 -21  -1   2    4.70   15.20
 -21   1   2   11.90   19.10
  21   1  -2   50.69   34.20
  19  -1  -2  103.49   35.10
 -19  -1   2   54.39   19.70
  19  -1  -2   50.69   16.90
 -19   1   2   79.79   25.90
 -19   1   2   55.19   21.00
  19   1  -2   40.70   16.10
  19   1  -2  110.69   35.50
 -17  -1   2   68.19   17.30
  17  -1  -2   76.29   27.30
 -17  -1   2   46.30   20.80
 -17   1   2  100.19   22.40
  17   1  -2   26.80   15.00
 -17   1   2  103.69   24.70
  17   1  -2   75.29   32.10
  15  -1  -2  -11.20    7.80
  15  -1  -2    1.90   16.40
 -15  -1   2    2.30   11.20
 -15  -1   2  -10.40   12.50
 -15   1   2    4.20   10.90
 -15   1   2   -6.50   11.50
  15   1  -2  -10.50   17.90
  15   1  -2   16.90   10.20
  13  -1  -2   28.40   16.80
 -13  -1   2    0.60    9.80
  13  -1  -2   15.40   10.10
 -13  -1   2   12.60   13.50
 -13   1   2   -5.20    9.50
  13   1  -2    4.10   19.70
 -13   1   2  -13.70   10.20
  13   1  -2   -5.50    8.50
  11  -1  -2  466.45   37.60
  11  -1  -2  493.85   31.20
 -11  -1   2  453.65   30.40
 -11  -1   2  438.16   37.60
  11   1  -2  468.55   30.00
  11   1  -2  460.05   44.00
 -11   1   2  505.05   33.70
 -11   1   2  493.95   35.10
   9  -1  -2   24.80   13.40
  -9  -1   2    9.70    7.80
  -9  -1   2    4.80   12.10
   9  -1  -2   42.40   10.20
   9   1  -2   23.70   17.10
  -9   1   2   33.60   11.00
  -9   1   2   22.70   11.20
   9   1  -2   25.50    8.80
  -7  -1   2  204.78   23.30
   7  -1  -2  214.58   17.10
  -7  -1   2  178.98   16.00
   7  -1  -2  172.38   20.70
   7   1  -2  244.48   26.90
   7   1  -2  242.28   16.80
  -7   1   2  186.48   19.40
  -7   1   2  171.08   16.60
   5  -1  -2  187.68   14.70
  -5  -1   2  198.88   14.60
   5  -1  -2  180.78   18.00
  -5  -1   2  175.38   21.20
  -5   1   2  197.18   15.30
   5   1  -2  196.78   23.40
  -5   1   2  164.88   17.20
   5   1  -2  177.98   13.80
   3  -1  -2   21.80    5.20
   3  -1  -2   15.20    7.40
  -3  -1   2   20.40    5.10
  -3  -1   2   19.20    9.30
  -3   1   2   19.20    5.10
  -3   1   2   11.10    6.60
   3   1  -2   25.30    5.50
   3   1  -2   28.70   10.30
  -1  -1   2    3.50    2.90
   1  -1  -2    6.90    5.20
   1   1  -2    3.90    2.40
  -1   1   2    6.90    2.40
  -1   1   2    2.60    3.90
   1   1  -2   19.50    6.40
  -1  -1  -2  181.58   18.30
   3  -1   2  784.62   35.00
  -3  -1  -2  837.32   44.90
  -3  -1  -2  827.32   34.60
   3   1   2  836.32   46.40
   3   1   2  818.02   34.50
  -3   1  -2  795.62   34.30
  -5  -1  -2  776.92   35.20
   5  -1   2  774.02   37.40
   5  -1   2  720.03   37.40
  -5  -1  -2  759.32   44.80
   5   1   2  866.11   48.30
  -5   1  -2  711.33   35.80
   5   1   2  753.52   34.80
   7  -1   2   35.90   12.10
  -7  -1  -2   34.60    8.80
   7  -1   2   40.50    9.80
  -7  -1  -2   32.40   14.90
  -7   1  -2   38.00    9.90
   7   1   2   18.20    7.50
   7   1   2   36.30   18.90
   9  -1   2   57.69   16.70
  -9  -1  -2   29.80   15.50
  -9  -1  -2   36.10   10.50
   9  -1   2   19.20    9.80
  -9   1  -2   28.30   11.50
   9   1   2   21.70   18.10
   9   1   2   26.70    9.90
 -11  -1  -2   11.50   13.50
 -11  -1  -2  -14.50    7.80
  11  -1   2    5.00    8.80
  11  -1   2   20.30   15.40
 -11   1  -2    9.90   11.80
  11   1   2  -18.70   15.10
  11   1   2   17.30    9.70
  13  -1   2   20.10   17.40
 -13  -1  -2   21.40   12.30
 -13  -1  -2   52.89   19.10
  13  -1   2   21.80   10.80
  13   1   2   20.10   10.70
  13   1   2   15.40   22.50
  15  -1   2  103.89   19.90
  15  -1   2  140.79   36.10
 -15  -1  -2   63.69   21.60
 -15  -1  -2  111.29   20.60
  15   1   2  187.78   40.20
 -15   1  -2  120.49   23.30
  15   1   2   73.59   17.50
  17  -1   2   20.50   14.40
  17  -1   2   44.10   28.00
 -17  -1  -2   69.99   26.20
 -17  -1  -2   67.09   21.30
  17   1   2   75.89   19.00
 -17   1  -2  110.19   26.10
  17   1   2  114.19   38.80
 -19  -1  -2   24.00   24.60
  19  -1   2   53.29   30.90
  19   1   2   35.20   34.20
  19   1   2   37.20   16.70
 -19   1  -2   30.40   20.10
 -21  -1  -2   25.10   22.90
  21  -1   2  -23.20   24.70
  21   1   2   -5.20   28.10
 -21   1  -2   26.00   22.20
  23  -1   2  -21.60   34.80
 -23   1  -2    3.40   21.40
  23   1   2    9.10   50.19
  26  -2  -2   75.59   38.30
 -26  -2   2  169.18   36.00
  26   2  -2  120.79   61.09
  24  -2  -2   37.80   32.20
 -24  -2   2   -0.90   17.40
  24   2  -2   -7.60   33.60
 -22  -2   2  108.89   26.40
  22  -2  -2  178.28   48.50
 -22   2   2   67.69   27.70
  22   2  -2   12.20   43.30
 -20  -2   2   -5.50   13.40
  20  -2  -2   37.40   27.20
 -20  -2   2   -4.30   20.20
 -20   2   2  -11.20   17.20
  20   2  -2    6.90   14.10
  20   2  -2  -15.70   25.40
  18  -2  -2  -39.40   14.90
  18  -2  -2    8.40   13.70
 -18  -2   2   22.70   14.90
 -18   2   2    2.90   16.30
  18   2  -2   14.60   31.30
  16  -2  -2  354.76   31.90
  16  -2  -2  405.76   42.00
 -16  -2   2  400.66   32.40
 -16  -2   2  348.07   40.20
 -16   2   2  383.96   35.40
  16   2  -2  433.36   53.69
  16   2  -2  428.46   31.80
  14  -2  -2  103.79   27.70
  14  -2  -2   79.89   16.30
 -14  -2   2  190.38   36.00
 -14  -2   2  134.39   19.90
  14   2  -2  127.89   33.20
 -14   2   2  169.38   25.10
  14   2  -2  107.09   18.30
 -14   2   2   88.49   20.90
 -12  -2   2  158.38   31.00
  12  -2  -2  154.88   23.90
  12  -2  -2  142.29   18.90
 -12   2   2  155.48   23.30
  12   2  -2  184.08   18.40
  12   2  -2  185.88   34.70
 -10  -2   2 1274.67   60.29
 -10  -2   2 1249.18   72.49
  10  -2  -2 1224.28   61.49
  10  -2  -2 1286.67   66.39
  10   2  -2 1184.38   76.49
 -10   2   2 1344.37   63.59
 -10   2   2 1331.37   64.89
  10   2  -2 1312.47   60.09
  -8  -2   2  142.09   15.20
   8  -2  -2  136.09   16.20
   8  -2  -2  159.98   19.10
  -8  -2   2  182.98   25.20
   8   2  -2  182.08   28.30
  -8   2   2  120.19   16.50
  -8   2   2  170.88   18.30
   8   2  -2  162.78   14.60
   6  -2  -2 1054.79   53.39
   6  -2  -2 1175.68   51.59
  -6  -2   2 1144.89   50.09
  -6  -2   2 1047.30   60.59
   6   2  -2 1216.68   65.29
   6   2  -2 1083.39   49.50
  -6   2   2 1080.19   53.19
  -6   2   2 1160.68   52.29
   4  -2  -2   56.39    9.60
  -4  -2   2   21.50   14.80
  -4  -2   2   55.39    8.80
   4  -2  -2   53.79   11.80
   4   2  -2   48.80   18.40
   4   2  -2   48.80    8.40
  -4   2   2   56.79   13.30
  -2  -2   2  140.29   11.50
   2  -2  -2  137.99   15.90
  -2  -2   2  139.89   19.70
   2   2  -2  150.28   11.40
  -2   2   2  161.68   16.50
   2   2  -2  151.38   20.70
   0  -2  -2 1438.56   57.29
   0  -2   2 1465.85   64.79
   0  -2   2 1472.95   60.19
   0   2  -2 1455.35   65.59
   0   2  -2 1419.06   59.99
   2  -2   2 3589.64  140.19
  -2  -2  -2 3525.95  153.88
  -2  -2  -2 3533.85  137.89
   2   2   2 3611.84  137.89
   2   2   2 3582.34  154.98
  -4  -2  -2 2586.74  102.49
   4  -2   2 2584.04  103.39
  -4  -2  -2 2566.94  118.19
   4   2   2 2586.04  120.29
  -4   2  -2 2621.94  103.29
   4   2   2 2555.24  102.29
  -6  -2  -2  380.16   35.10
  -6  -2  -2  373.66   21.40
   6  -2   2  394.76   23.20
  -6   2  -2  369.26   22.00
   6   2   2  378.66   21.10
   6   2   2  411.96   39.20
   8  -2   2  270.57   22.50
   8  -2   2  269.47   22.00
  -8  -2  -2  233.68   19.10
  -8  -2  -2  250.57   31.00
   8   2   2  267.77   18.90
  -8   2  -2  280.57   20.50
   8   2   2  255.77   35.50
  10  -2   2  355.06   26.90
  10  -2   2  315.27   29.00
 -10  -2  -2  347.17   36.40
 -10  -2  -2  360.46   25.00
  10   2   2  385.16   43.60
 -10   2  -2  377.06   26.60
  10   2   2  375.46   24.70
 -12  -2  -2    5.80   14.90
  12  -2   2    9.80    9.90
  12  -2   2   47.80   17.10
 -12  -2  -2   49.40   12.70
  12   2   2   17.70   10.30
 -12   2  -2   21.20   12.80
  12   2   2   -0.60   19.30
  14  -2   2  727.03   48.20
  14  -2   2  794.52   56.89
 -14  -2  -2  787.42   60.09
 -14  -2  -2  879.41   48.50
 -14   2  -2  903.91   55.69
  14   2   2  868.71   46.90
  14   2   2  806.12   69.89
 -16  -2  -2  158.38   25.30
 -16  -2  -2  118.19   31.10
  16  -2   2  176.08   34.60
  16  -2   2  100.49   21.10
  16   2   2  218.68   48.40
  16   2   2  139.59   21.70
 -16   2  -2  136.19   26.00
  18  -2   2   45.40   27.30
 -18  -2  -2   48.60   19.10
  18   2   2   61.09   38.50
 -18   2  -2   49.00   21.20
  18   2   2   99.79   27.10
  20  -2   2   20.20   27.40
 -20  -2  -2   88.89   32.70
  20   2   2   73.79   42.00
 -20   2  -2   47.50   22.50
  20   2   2   45.70   17.00
  22  -2   2   23.00   33.70
 -22   2  -2   27.00   28.80
  24  -2   2  -19.80   33.80
  24   2   2   41.30   44.60
 -24   2  -2   -4.70   22.70
  25  -3  -2   21.30   34.70
 -25  -3   2    7.60   18.70
  25   3  -2   60.89   44.70
  23  -3  -2   48.50   30.70
 -23  -3   2  -15.40   16.10
  23   3  -2   27.80   42.30
 -23   3   2   18.30   21.50
 -21  -3   2   16.80   16.40
  21  -3  -2   10.10   24.90
 -21   3   2  -18.70   16.90
 -19  -3   2   27.40   16.10
  19  -3  -2   23.90   24.40
 -19  -3   2   -2.30   19.60
  19   3  -2   32.60   32.10
  19   3  -2   -4.60   11.60
 -19   3   2   -2.10   15.60
 -17  -3   2   78.69   19.30
 -17  -3   2  144.29   44.30
  17  -3  -2  139.89   31.10
  17  -3  -2   66.59   19.40
 -17   3   2  110.19   25.00
  17   3  -2   78.29   17.90
  17   3  -2   73.69   35.60
 -15  -3   2   21.20   19.20
 -15  -3   2   12.50   10.60
  15  -3  -2   30.20   12.80
  15  -3  -2   15.20   17.40
  15   3  -2  -13.80   20.30
 -15   3   2   19.40   13.00
  15   3  -2    1.40    9.70
 -13  -3   2   85.89   16.20
  13  -3  -2   57.09   14.90
  13  -3  -2   93.99   21.80
 -13  -3   2   81.49   24.10
 -13   3   2   87.89   19.90
  13   3  -2   96.39   30.20
  13   3  -2   41.20   12.10
 -11  -3   2 1100.59   69.29
  11  -3  -2 1073.49   59.39
  11  -3  -2 1036.10   55.49
 -11  -3   2 1094.49   53.49
  11   3  -2 1036.70   52.39
 -11   3   2 1145.49   58.09
  11   3  -2 1024.00   74.49
   9  -3  -2   80.69   16.50
  -9  -3   2   34.50   19.00
   9  -3  -2   58.99   13.10
  -9  -3   2   56.29   11.70
   9   3  -2   53.79   11.60
   9   3  -2   59.59   25.60
  -9   3   2   37.20   13.90
  -7  -3   2  630.24   32.70
   7  -3  -2  656.13   37.50
   7  -3  -2  621.74   34.50
  -7  -3   2  606.44   46.70
   7   3  -2  651.73   32.60
   7   3  -2  570.94   49.10
  -7   3   2  635.94   37.30
   5  -3  -2  432.36   26.10
   5  -3  -2  440.46   29.00
  -5  -3   2  437.96   24.10
  -5  -3   2  427.56   36.90
   5   3  -2  405.56   39.10
   5   3  -2  470.55   24.40
  -5   3   2  431.76   28.80
  -3  -3   2  196.08   14.90
   3  -3  -2  185.98   19.60
  -3  -3   2  159.88   24.60
   3   3  -2  195.08   14.40
   3   3  -2  188.88   28.20
  -1  -3   2 1312.77   67.59
  -1  -3   2 1327.07   58.09
   1   3  -2 1387.76   70.29
   1   3  -2 1394.96   58.09
  -1  -3  -2  691.53   49.80
   1  -3   2  818.42   43.30
   1  -3   2  671.03   34.10
  -1  -3  -2  723.23   30.80
   1   3   2  679.33   30.50
   3  -3   2 1475.85   63.59
  -3  -3  -2 1463.25   80.09
  -3  -3  -2 1472.15   59.79
   3   3   2 1405.26   81.39
   3   3   2 1487.95   59.69
  -5  -3  -2  162.98   12.50
  -5  -3  -2  183.18   30.40
   5  -3   2  161.48   14.90
   5   3   2  170.78   12.30
   5   3   2  187.78   34.50
  -5   3  -2  180.18   15.00
   7  -3   2  100.89   14.50
  -7  -3  -2  215.68   42.30
  -7  -3  -2  110.79   12.80
   7   3   2   58.79   24.80
   7   3   2  127.19   12.40
  -7   3  -2  103.89   13.70
   9  -3   2   -5.20    7.80
  -9  -3  -2    7.00    7.80
  -9  -3  -2   -6.80   16.10
   9  -3   2    2.10   10.10
   9   3   2  -10.80   20.10
  -9   3  -2    9.60    9.30
   9   3   2   -0.50    6.70
  11  -3   2  160.28   20.20
 -11  -3  -2  195.68   32.00
 -11  -3  -2  169.18   18.50
  11  -3   2  198.78   22.80
  11   3   2  139.99   36.10
 -11   3  -2  198.48   20.00
  11   3   2  190.58   20.50
 -13  -3  -2   55.19   23.00
  13  -3   2   37.70   18.50
 -13  -3  -2   30.60   11.80
  13  -3   2   58.69   15.50
  13   3   2   64.89   32.20
 -13   3  -2   37.40   13.10
  13   3   2   49.10   12.80
 -15  -3  -2   13.90   19.40
 -15  -3  -2    5.60   12.00
  15  -3   2    6.10   15.30
  15  -3   2  -11.10   11.60
 -15   3  -2   -1.00   12.20
  15   3   2   45.90   29.00
  15   3   2   -1.20   10.10
  17  -3   2  211.38   38.50
 -17  -3  -2  191.78   41.40
  17  -3   2  143.09   29.80
 -17  -3  -2  230.28   28.10
 -17   3  -2  239.38   30.20
  17   3   2  238.08   55.19
  17   3   2  197.38   24.80
 -19  -3  -2    6.60   20.70
  19  -3   2   38.00   26.20
 -19  -3  -2    1.70   15.50
  19   3   2  -24.90   29.00
 -19   3  -2    1.10   15.90
  19   3   2   -1.80   12.60
 -21  -3  -2   29.80   19.10
  21  -3   2   54.69   32.10
  21   3   2    9.60   47.80
 -21   3  -2   -1.50   17.00
  23  -3   2   16.60   30.40
  23   3   2   51.19   52.49
  24  -4  -2   58.19   34.30
 -24  -4   2   -2.70   17.00
  24   4  -2  -47.00   35.30
 -24   4   2   18.60   25.30
  22  -4  -2   35.10   28.40
 -22  -4   2   37.70   24.00
 -22   4   2   37.60   22.20
  22   4  -2   -1.80   32.30
  20  -4  -2   82.69   28.50
 -20  -4   2  110.49   24.50
 -20   4   2   87.89   25.80
  20   4  -2   71.69   20.70
 -18  -4   2   13.50   21.30
  18  -4  -2   60.99   24.60
 -18  -4   2   65.39   19.80
 -18   4   2   79.19   24.70
  18   4  -2   45.30   33.80
 -16  -4   2  751.72   63.29
  16  -4  -2  554.14   43.70
 -16  -4   2  696.23   44.10
  16  -4  -2  641.14   50.89
 -16   4   2  667.33   48.60
  16   4  -2  699.43   42.50
  16   4  -2  716.33   74.79
 -14  -4   2   37.20   12.80
  14  -4  -2   18.40   11.90
  14  -4  -2    0.30   17.30
 -14  -4   2    5.30   15.90
  14   4  -2   29.40   25.90
  14   4  -2    8.80    9.90
 -14   4   2    7.60   13.30
  12  -4  -2  198.18   24.80
  12  -4  -2  178.48   21.90
 -12  -4   2  234.68   34.50
 -12  -4   2  249.88   22.00
  12   4  -2  140.19   39.50
  12   4  -2  216.58   20.30
 -12   4   2  228.58   25.70
  10  -4  -2  309.97   25.30
 -10  -4   2  318.97   37.90
  10  -4  -2  273.27   26.40
 -10  -4   2  328.77   23.30
 -10   4   2  246.48   25.70
  10   4  -2  305.57   22.20
  10   4  -2  299.27   43.30
   8  -4  -2  341.57   27.40
   8  -4  -2  307.87   25.20
  -8  -4   2  349.07   38.30
  -8  -4   2  287.57   21.90
  -8   4   2  332.77   27.50
   8   4  -2  271.17   20.70
  -6  -4   2  468.05   27.70
   6  -4  -2  508.95   33.60
   6  -4  -2  510.75   30.80
  -6  -4   2  522.95   48.40
  -6   4   2  507.25   34.10
   6   4  -2  533.75   47.60
   6   4  -2  532.55   28.10
   4  -4  -2  137.19   18.60
  -4  -4   2  127.99   14.00
  -4  -4   2  172.68   29.30
   4   4  -2  199.88   35.40
   4   4  -2  158.98   13.70
  -2  -4   2   72.39   11.30
  -2  -4   2   47.40   18.80
   2   4  -2   42.30    9.70
   2   4  -2   51.89   21.60
   0  -4  -2 2893.01  136.59
   0  -4  -2 2855.61  113.89
   0  -4   2 2835.92  129.39
   0  -4   2 2773.62  116.49
   0   4  -2 2909.51  116.69
   2  -4   2   63.69   19.00
  -2  -4  -2   65.39   22.30
  -2  -4  -2   62.59    8.50
   2  -4   2   76.89   12.30
   2   4   2   68.79    8.80
   4  -4   2 1136.09   53.99
  -4  -4  -2 1167.48   49.20
   4   4   2 1094.79   74.59
   4   4   2 1136.09   48.70
  -6  -4  -2  176.58   34.60
   6  -4   2  147.79   16.90
  -6  -4  -2  163.18   13.60
   6   4   2  143.59   13.10
   6   4   2  149.79   33.60
  -8  -4  -2  255.67   35.80
  -8  -4  -2  248.68   18.20
   8  -4   2  204.28   19.50
  -8   4  -2  210.08   19.90
   8   4   2  255.17   47.30
   8   4   2  242.48   17.70
  10  -4   2  393.26   27.80
 -10  -4  -2  347.37   24.00
 -10  -4  -2  267.87   38.90
  10  -4   2  307.07   28.00
 -10   4  -2  336.87   25.30
  10   4   2  401.16   51.19
  10   4   2  356.26   23.30
  12  -4   2   -5.60   11.70
 -12  -4  -2   -7.10   14.80
  12  -4   2    7.80    9.80
 -12  -4  -2    9.20    9.20
  12   4   2  -10.60   20.80
  12   4   2    7.70    8.40
 -12   4  -2  -10.90    8.80
  14  -4   2  265.57   31.00
 -14  -4  -2  283.97   25.70
  14  -4   2  253.07   28.20
 -14  -4  -2  262.57   45.80
 -14   4  -2  301.77   28.90
  14   4   2  290.47   24.70
  14   4   2  274.77   52.29
 -16  -4  -2   -0.20   12.00
  16  -4   2  -23.80   13.20
 -16  -4  -2   46.40   28.20
  16  -4   2   17.40   19.90
  16   4   2   -4.70   29.50
 -16   4  -2   18.30   14.20
  16   4   2    8.40   12.10
  18  -4   2   96.39   30.40
 -18  -4  -2   55.09   18.50
  18   4   2   70.79   17.90
 -18   4  -2   68.09   21.90
  18   4   2   91.39   46.30
 -20  -4  -2   43.60   18.10
  20  -4   2   85.59   32.70
  20   4   2   11.10   13.60
 -20   4  -2   39.10   20.80
  20   4   2   54.49   46.30
 -22  -4  -2  -14.20   17.50
  22  -4   2    9.70   29.70
  22   4   2  -66.49   34.30
 -22   4  -2   20.70   20.30
 -23  -5   2   12.30   16.20
  23  -5  -2    4.50   24.40
 -23   5   2   12.50   21.90
  23   5  -2   -5.00   41.40
  21  -5  -2   15.60   23.90
 -21  -5   2    7.20   16.10
 -21   5   2   -3.00   18.60
  21   5  -2  -12.10   37.30
  19  -5  -2   61.19   27.60
 -19  -5   2    8.70   13.90
 -19   5   2   15.30   18.10
  19   5  -2  -12.50   29.00
  19   5  -2   10.40   13.20
 -17  -5   2  402.16   33.60
  17  -5  -2  337.47   39.70
  17   5  -2  340.27   31.60
  17   5  -2  401.06   69.19
 -17   5   2  371.96   39.40
  15  -5  -2   -2.30   11.00
 -15  -5   2   -7.20   17.50
  15  -5  -2    7.90   16.20
 -15  -5   2   -8.80   10.60
 -15   5   2  -10.60   11.20
  15   5  -2  -23.80   24.40
  15   5  -2   -3.40   10.60
  13  -5  -2   89.39   20.30
 -13  -5   2   54.69   24.50
  13  -5  -2   96.39   25.80
 -13  -5   2  120.89   18.30
 -13   5   2   80.49   19.60
  13   5  -2   68.69   14.90
  13   5  -2   75.69   34.20
 -11  -5   2  211.18   23.20
 -11  -5   2  201.58   37.90
  11  -5  -2  186.88   21.60
  11  -5  -2  136.59   23.20
  11   5  -2  162.88   17.90
  11   5  -2  153.88   40.90
 -11   5   2  151.28   22.30
  -9  -5   2  189.88   35.80
   9  -5  -2  172.68   20.60
   9  -5  -2  194.18   23.30
  -9  -5   2  171.88   18.10
   9   5  -2  199.68   41.20
   9   5  -2  166.68   17.30
   7  -5  -2   93.39   19.50
   7  -5  -2   85.19   16.50
  -7  -5   2  102.69   15.40
  -7  -5   2  118.19   29.90
   7   5  -2   88.29   13.30
   7   5  -2  115.49   32.00
   5  -5  -2  230.58   24.60
  -5  -5   2  209.28   18.30
  -5  -5   2  237.58   33.70
   5   5  -2  241.68   18.30
   5   5  -2  225.68   41.50
   3  -5  -2   20.40   14.20
  -3  -5   2   23.90   21.00
  -3  -5   2   22.30    8.50
   3   5  -2    4.50   18.60
   3   5  -2   15.90    8.30
  -1  -5   2   90.49   13.80
  -1  -5   2  101.29   25.40
   1  -5  -2   74.49   11.00
   1  -5  -2   83.39   27.80
   1   5  -2   96.29   25.90
   1   5  -2   72.09   12.00
  -1  -5  -2 1108.99   70.79
  -1  -5  -2  968.60   44.70
   1  -5   2  957.00   48.10
   1  -5   2 1011.60   62.19
  -3  -5  -2   -2.70   15.80
   3  -5   2    7.80    8.70
   3  -5   2   29.70   18.80
   3  -5   2   32.00   13.30
  -3  -5  -2    9.30    6.60
   3   5   2    4.60    5.70
  -5  -5  -2  612.04   52.89
  -5  -5  -2  577.14   29.00
   5  -5   2  553.04   34.70
   5   5   2  552.74   28.50
   5   5   2  555.04   55.99
  -7  -5  -2  176.78   15.90
  -7  -5  -2  271.97   39.00
   7  -5   2  186.78   20.50
   7   5   2  212.68   42.80
   7   5   2  193.38   15.80
  -9  -5  -2  116.29   30.30
   9  -5   2  113.59   16.80
  -9  -5  -2  108.59   14.10
   9   5   2  104.29   13.10
   9   5   2  116.79   36.60
 -11  -5  -2   25.00    9.90
  11  -5   2   19.60   13.20
  11  -5   2   14.80   11.40
 -11  -5  -2    4.10   16.40
 -11   5  -2   -4.60    9.50
  11   5   2   81.89   34.30
  11   5   2    7.20    8.50
  13  -5   2   -6.10   11.40
 -13  -5  -2    9.10   10.60
  13  -5   2  -15.60   11.20
  13   5   2    4.70   10.00
  13   5   2   17.30   30.40
 -13   5  -2    9.50   10.60
  15  -5   2   25.10   16.60
 -15  -5  -2   19.50   13.80
 -15  -5  -2   44.30   25.50
  15   5   2  -26.20   28.10
  15   5   2   14.10   10.50
 -15   5  -2   -6.80   12.50
  17  -5   2   13.80   24.80
 -17  -5  -2   -3.20   11.20
 -17   5  -2  -20.30   12.30
  17   5   2    4.80   11.20
  17   5   2  -21.70   29.40
 -19  -5  -2   25.30   16.20
  19  -5   2   17.40   22.90
  19   5   2   -8.10   37.00
 -19   5  -2   23.60   17.90
  19   5   2   12.00   15.40
  21  -5   2   26.60   28.50
 -21  -5  -2    4.80   16.00
 -21   5  -2    3.90   15.90
  21   5   2   -7.80   41.10
  23  -5   2    0.50   32.50
 -23  -5  -2    9.30   19.80
 -23   5  -2    1.20   18.80
  23   5   2   32.40   49.40
 -22  -6   2   12.20   16.10
  22  -6  -2   35.30   28.10
  22   6  -2   55.09   49.99
 -22   6   2  -15.80   20.70
  20  -6  -2    6.80   19.90
 -20  -6   2   30.50   17.80
 -20   6   2   38.00   22.10
  20   6  -2   31.40   20.40
  20   6  -2   73.29   47.30
  18  -6  -2    8.70   19.10
 -18  -6   2   16.40   15.50
 -18   6   2   31.40   19.10
  18   6  -2   13.00   37.50
  18   6  -2   23.20   15.40
 -16  -6   2  128.19   22.90
  16  -6  -2  125.19   27.80
  16   6  -2  105.69   19.50
 -16   6   2   58.19   19.80
  16   6  -2  110.19   43.50
 -14  -6   2   33.00   25.90
  14  -6  -2   55.49   19.60
  14  -6  -2   27.70   14.20
 -14  -6   2    4.90   11.30
  14   6  -2   53.89   38.10
  14   6  -2   14.00   10.60
 -14   6   2   52.39   20.60
  12  -6  -2  189.08   26.50
  12  -6  -2  186.48   23.90
 -12  -6   2  225.38   22.60
  12   6  -2  273.47   53.49
  12   6  -2  224.88   21.60
 -12   6   2  208.98   26.70
 -10  -6   2   -5.00   15.30
  10  -6  -2    4.70   10.30
 -10  -6   2   -3.10    8.60
  10   6  -2   -0.70    8.20
  10   6  -2  -15.90   24.10
   8  -6  -2  -14.20    7.60
  -8  -6   2   -9.80    7.70
   8  -6  -2   15.60   13.50
  -8  -6   2   34.70   23.10
   8   6  -2   12.60   23.80
   8   6  -2  -12.90    6.70
  -6  -6   2  670.83   56.49
   6  -6  -2  597.04   43.10
  -6  -6   2  650.83   36.20
   6   6  -2  802.22   65.99
   6   6  -2  635.64   35.20
   4  -6  -2    1.60   13.30
  -4  -6   2   -5.20   16.00
  -4  -6   2   -4.50    7.70
   4   6  -2   -2.00   19.10
  -2  -6   2    7.70   17.80
   2  -6  -2   -0.10   17.90
   2  -6  -2   11.20    8.20
  -2  -6   2   -3.20    8.10
   2   6  -2   15.40    8.20
   2   6  -2   -9.90   18.20
   0  -6   2 2197.28   94.59
   0  -6  -2 2165.88  119.69
   0  -6  -2 2153.78   91.59
   2  -6   2   28.70   20.60
  -2  -6  -2    4.60   18.20
  -2  -6  -2   44.40   10.50
  -4  -6  -2 1368.76   92.49
  -4  -6  -2 1532.95   65.99
   4  -6   2 1486.75   74.69
   4  -6   2 1592.14   71.99
   4  -6   2 1524.45   86.19
   4   6   2 1516.15   65.59
   6  -6   2   25.40   13.50
  -6  -6  -2   20.40   18.60
  -6  -6  -2   18.80    7.70
   6   6   2   33.80   24.30
   6   6   2    7.90    7.10
   8  -6   2  221.88   22.10
  -8  -6  -2  154.88   16.30
  -8  -6  -2  152.38   38.50
   8   6   2  162.78   45.40
   8   6   2  161.48   15.50
  10  -6   2  360.46   32.70
 -10  -6  -2  442.26   51.69
  10  -6   2  406.66   30.90
 -10  -6  -2  385.36   26.40
  10   6   2  405.46   58.79
  12  -6   2   93.29   21.40
 -12  -6  -2   61.59   28.70
  12  -6   2   84.29   19.40
  12   6   2   82.39   14.70
  12   6   2   77.49   37.90
 -14  -6  -2   78.69   16.90
 -14  -6  -2   56.69   31.60
  14  -6   2  146.79   26.50
 -14   6  -2  114.59   22.50
  14   6   2  152.28   49.10
  14   6   2  106.69   17.30
 -16  -6  -2   57.69   17.70
  16  -6   2   80.59   28.50
 -16   6  -2   42.60   17.50
  16   6   2   75.99   17.10
 -18  -6  -2  100.29   20.70
  18  -6   2   65.09   26.70
 -18   6  -2  126.79   25.10
  18   6   2  124.59   22.00
  18   6   2  236.68   62.99
  20  -6   2   33.50   26.00
 -20  -6  -2   28.20   17.80
  20   6   2  -34.90   37.80
  20   6   2   46.10   18.70
 -20   6  -2   38.70   19.10
  22  -6   2   38.50   33.00
 -22   6  -2   19.30   22.40
  22   6   2   26.60   48.40
  21  -7  -2  102.89   29.60
  21   7  -2   21.80   45.70
 -21   7   2   46.00   27.70
  19  -7  -2   28.00   23.10
 -19  -7   2   -1.00   12.90
  19   7  -2  -11.30   35.00
 -19   7   2   30.20   23.00
  19   7  -2   10.60   14.70
 -17  -7   2   75.79   19.50
  17  -7  -2  126.29   30.10
  17   7  -2   65.99   20.80
 -17   7   2   33.90   20.70
  17   7  -2   -3.60   36.00
  15  -7  -2   37.20   19.00
 -15  -7   2   26.70   14.20
  15   7  -2   13.80   36.50
  15   7  -2   -4.10   10.70
 -15   7   2  -16.10   14.50
 -13  -7   2  202.98   44.40
 -13  -7   2  342.37   29.20
  13  -7  -2  348.07   35.50
  13  -7  -2  340.97   32.60
  13   7  -2  316.27   27.80
  13   7  -2  313.47   63.99
 -11  -7   2   78.69   29.50
 -11  -7   2   57.79   15.20
  11  -7  -2   71.09   22.30
  11   7  -2   72.29   37.60
  11   7  -2   33.10   12.20
  -9  -7   2    1.10    9.90
   9  -7  -2  -15.50    8.90
  -9  -7   2    8.80   19.00
   9  -7  -2   35.80   16.50
   9   7  -2   -1.40    7.90
   9   7  -2  -24.20   21.20
   7  -7  -2   -0.10   13.40
  -7  -7   2   11.30   19.40
  -7  -7   2   17.60   10.80
   7   7  -2   -8.10    6.90
   7   7  -2   16.20   25.20
   5  -7  -2  221.68   28.80
  -5  -7   2  241.58   38.00
   5  -7  -2  201.28   21.20
   5   7  -2  235.38   20.30
   5   7  -2  299.27   48.20
   3  -7  -2  -12.10    6.70
  -3  -7   2  -20.00   15.30
   3  -7  -2  -10.90   10.90
   3  -7  -2  -15.10   14.00
   3   7  -2  -20.80   17.40
   3   7  -2   -0.80    7.30
   1  -7  -2   27.80   24.50
   1  -7  -2   68.89   13.60
  -1  -7   2   42.20   13.30
  -1  -7   2   57.29   24.20
   1  -7   2 1102.39   53.79
  -1  -7  -2 1000.20   49.40
  -1  -7  -2  953.20   76.69
   1  -7   2 1051.39   72.49
   3  -7   2   89.69   22.10
   3  -7   2   86.99   17.90
   3  -7   2   96.59   26.60
  -3  -7  -2   78.19   32.50
  -3  -7  -2   70.89   12.90
  -5  -7  -2   54.89   26.10
   5  -7   2   68.69   19.60
   5  -7   2   74.79   16.80
   5  -7   2   51.99   24.30
  -5  -7  -2   52.49   11.50
   5   7   2   82.29   12.00
   7  -7   2   20.70   13.60
  -7  -7  -2    2.00   19.90
   7  -7   2   14.20   12.50
  -7  -7  -2    0.70    7.70
   7   7   2    2.70   28.70
   7   7   2    5.00    7.30
   9  -7   2   42.20   15.20
  -9  -7  -2   57.99   29.90
  -9  -7  -2   28.60   11.00
   9   7   2  -10.30   28.50
   9   7   2   28.50   11.80
  11  -7   2   33.50   17.60
 -11  -7  -2   40.80   28.90
  11  -7   2   14.80   15.70
 -11  -7  -2    5.10   11.70
  11   7   2   39.50   11.50
  11   7   2   37.70   40.10
 -13  -7  -2  112.29   18.40
  13  -7   2   73.99   19.10
  13   7   2   63.19   45.10
  13   7   2   73.09   15.10
 -15  -7  -2   40.40   15.50
  15   7   2   22.20   39.80
  15   7   2   42.00   15.80
 -17  -7  -2   35.50   17.00
  17  -7   2   69.99   22.90
  17   7   2   40.40   46.60
  17   7   2   28.90   15.80
  19  -7   2   62.09   25.50
 -19  -7  -2   67.89   19.80
  19   7   2   18.20   15.90
  19   7   2   37.30   46.50
  21  -7   2   25.90   24.80
 -21  -7  -2   29.40   19.70
  21   7   2  -56.09   36.80
  20  -8  -2   45.30   25.20
 -20  -8   2    7.20   16.00
  20   8  -2   25.40   42.50
  18  -8  -2    4.20   20.00
 -18  -8   2   -5.20   12.70
  18   8  -2    2.90   13.90
  18   8  -2    7.10   39.70
  16  -8  -2   84.99   26.10
 -16  -8   2   75.09   19.30
  16   8  -2  136.69   52.39
 -14  -8   2   -5.00   12.70
  14  -8  -2   -0.80   15.10
  14   8  -2   31.60   14.30
  14   8  -2   33.60   41.60
  12  -8  -2   19.80   15.30
 -12  -8   2   63.89   15.80
  12  -8  -2   56.39   22.30
  12   8  -2    4.10   35.20
  12   8  -2   52.69   14.90
  10  -8  -2   -3.80   12.40
 -10  -8   2   14.70   11.90
  10  -8  -2   33.40   19.30
 -10  -8   2   -7.00   18.90
  10   8  -2   11.50   10.30
  10   8  -2   11.20   32.30
  -8  -8   2   51.59   14.00
  -8  -8   2   31.40   25.40
   8  -8  -2    6.10   16.30
   8   8  -2   23.30   11.10
   8   8  -2   43.80   36.90
  -6  -8   2   86.89   29.80
   6  -8  -2  106.19   25.80
  -6  -8   2  115.29   18.80
   6  -8  -2  140.19   21.00
   6   8  -2   75.69   36.50
   6   8  -2  101.99   16.40
   4  -8  -2  147.59   20.40
   4  -8  -2  101.99   32.90
  -4  -8   2  178.68   39.90
  -4  -8   2   95.89   18.00
   4  -8  -2  115.39   26.40
   4   8  -2  110.49   16.20
  -2  -8   2  121.79   18.00
  -2  -8   2   47.70   26.40
   2  -8  -2   79.69   32.20
   2  -8  -2  131.09   19.40
   0  -8  -2    8.30   22.80
   0  -8   2   -2.80    9.90
   0  -8   2    4.70   19.60
   0  -8  -2   15.00   11.00
   2  -8   2   14.30   21.10
  -2  -8  -2   18.60    9.20
  -2  -8  -2   12.00   21.20
   2  -8   2   -6.00   10.80
  -4  -8  -2  176.58   18.40
   4  -8   2  199.28   23.00
  -4  -8  -2  218.48   45.20
   4  -8   2  192.18   28.20
   4  -8   2  217.98   42.90
  -6  -8  -2  183.28   18.20
   6  -8   2  251.97   42.60
   6  -8   2  164.58   24.60
   6  -8   2  181.18   26.30
  -6  -8  -2  159.38   41.20
   6   8   2  138.69   16.50
   8  -8   2  154.08   25.50
   8  -8   2  147.19   29.80
  -8  -8  -2  133.19   41.30
   8  -8   2  157.18   38.40
  -8  -8  -2  173.68   19.00
   8   8   2  159.18   18.10
   8   8   2  142.59   49.90
  10  -8   2  205.98   36.90
  10   8   2  201.48   54.49
  10   8   2  248.38   21.60
  12  -8   2   -8.30   13.30
 -12  -8  -2   11.00   11.80
  12   8   2   54.19   61.29
  12   8   2    8.00   10.90
  14  -8   2  282.57   32.30
 -14  -8  -2  224.18   25.70
  14   8   2  238.08   24.80
  14   8   2  195.48   60.39
  16  -8   2    7.40   17.00
 -16  -8  -2    7.00   12.90
  16   8   2   34.10   43.40
  16   8   2   34.80   14.50
 -18  -8  -2   15.20   16.00
  18  -8   2   11.90   20.30
  18   8   2  -37.00   37.30
  20  -8   2   34.20   27.20
 -20  -8  -2   36.10   18.50
  20   8   2   28.50   49.30
  20   8   2   26.80   18.90
 -19  -9   2    8.30   15.80
  19  -9  -2   37.00   25.40
  19   9  -2   33.90   46.70
 -17  -9   2  153.88   25.30
  17  -9  -2  142.19   32.00
  17   9  -2  128.69   58.19
  17   9  -2  103.19   21.30
 -15  -9   2   -7.70   11.10
  15  -9  -2    0.40   15.70
  15   9  -2    1.70   12.50
  15   9  -2  -17.10   35.10
  13  -9  -2   10.70   19.30
 -13  -9   2  -13.50   11.10
  13   9  -2    2.80   41.30
  13   9  -2   -5.80   11.30
  11  -9  -2  158.68   30.60
 -11  -9   2  196.88   24.50
  11   9  -2   97.29   67.09
  11   9  -2  188.88   23.30
   9  -9  -2   30.00   17.60
  -9  -9   2   39.80   14.20
   9  -9  -2   47.80   20.80
   9  -9  -2   47.00   18.00
   9   9  -2   15.60   31.30
   9   9  -2   18.50   12.40
  -7  -9   2  195.08   22.80
   7  -9  -2  123.99   41.90
  -7  -9   2  284.27   54.09
   7  -9  -2  178.68   25.20
   7  -9  -2  188.98   35.20
   7   9  -2  163.58   53.59
   7   9  -2  152.58   21.40
   5  -9  -2  423.86   44.00
  -5  -9   2  532.35   60.49
   5  -9  -2  413.96   56.99
   5  -9  -2  500.65   35.50
  -5  -9   2  455.75   34.30
   5   9  -2  509.65   33.60
   3  -9  -2   17.60   12.30
   3  -9  -2    7.30   17.80
  -3  -9   2  -21.90    9.10
   3  -9  -2   34.40   27.70
  -3  -9   2  -36.50   19.80
   1  -9  -2  192.68   46.80
  -1  -9   2  230.78   49.10
  -1  -9   2  214.78   24.20
   1  -9  -2  251.47   24.10
   1  -9   2    5.00   12.40
  -1  -9  -2   23.40   11.10
   1  -9   2    6.70   22.90
  -3  -9  -2   56.69   31.10
   3  -9   2  -13.30   17.10
   3  -9   2   15.40   25.90
   3  -9   2   16.20   12.80
  -3  -9  -2   -2.70    9.10
  -5  -9  -2  372.56   55.49
   5  -9   2  340.37   33.10
  -5  -9  -2  397.06   31.80
   5  -9   2  337.87   38.80
   5  -9   2  333.17   49.10
   7  -9   2    4.60   12.10
  -7  -9  -2   23.50   12.00
   7  -9   2   -6.40   16.10
   7  -9   2  -23.50   22.10
   7   9   2   30.60   11.20
  -9  -9  -2   18.30   11.30
   9  -9   2   40.60   29.70
   9  -9   2   60.89   19.00
   9  -9   2   15.80   17.00
   9   9   2   13.40   10.30
 -11  -9  -2  105.39   17.60
  11  -9   2   92.29   23.50
  11  -9   2   55.99   19.90
  11  -9   2   68.69   33.80
  11   9   2   91.89   16.60
  11   9   2  111.89   55.89
 -13  -9  -2   10.70   13.40
  13  -9   2    0.50   14.80
  13   9   2    9.30   11.40
  13   9   2   69.69   49.20
  15  -9   2   54.69   21.50
 -15  -9  -2   26.80   14.90
  15   9   2   60.19   51.49
  15   9   2   13.10   14.50
 -17  -9  -2   16.90   15.20
  17  -9   2   29.10   20.40
  17   9   2    2.40   12.50
  17   9   2  -19.00   39.00
 -18 -10   2    7.90   16.10
  18 -10  -2   31.80   23.10
  18  10  -2   31.30   51.09
  16 -10  -2   -9.30   16.00
 -16 -10   2    7.90   15.30
  16  10  -2   11.50   14.50
  16  10  -2    1.60   43.80
 -14 -10   2   50.49   18.50
  14 -10  -2   36.70   22.00
  14  10  -2  -12.40   41.70
  14  10  -2   26.10   15.30
  12 -10  -2   -4.10   16.10
 -12 -10   2    8.60   12.20
  12  10  -2   43.60   19.20
  12  10  -2   10.90   38.20
  10 -10  -2   -8.40   14.00
  10 -10  -2   19.30   20.20
 -10 -10   2   14.90   12.90
  10 -10  -2  -15.80   31.60
  10  10  -2   74.09   47.90
  10  10  -2   33.20   16.20
   8 -10  -2   -0.80   13.00
   8 -10  -2   14.30   18.00
   8 -10  -2  -13.50   33.20
  -8 -10   2    3.30   12.00
   8  10  -2   20.70   13.30
   6 -10  -2  192.08   36.90
   6 -10  -2  206.48   51.09
   6 -10  -2  172.18   26.60
  -6 -10   2  173.28   23.90
   6  10  -2  171.98   23.70
  -4 -10   2   -7.50   11.10
   4 -10  -2  -12.40   10.80
  -4 -10   2   58.29   33.10
   4 -10  -2  -27.30   26.10
   4 -10  -2   -5.80   17.00
  -2 -10   2   50.89   32.20
   2 -10  -2   90.79   40.40
   2 -10  -2   98.59   19.40
   2 -10  -2   71.79   28.40
  -2 -10   2   72.39   18.20
   0 -10  -2   65.99   40.00
   0 -10   2   24.70   14.80
   0 -10  -2    2.10   10.70
   2 -10   2  117.19   38.20
   2 -10   2  145.39   23.90
   2 -10   2  120.99   33.80
  -2 -10  -2  187.18   51.09
  -2 -10  -2  159.58   20.70
   4 -10   2    8.60   26.30
   4 -10   2   -9.40   18.30
   4 -10   2   18.70   14.60
  -4 -10  -2   -2.90    9.70
   6 -10   2   30.40   19.00
   6 -10   2   10.80   14.70
  -6 -10  -2   34.20   12.00
   6 -10   2   51.29   33.60
  -8 -10  -2  106.19   17.50
   8 -10   2   86.99   37.80
   8 -10   2   84.99   23.50
   8  10   2   50.09   15.10
  10 -10   2  148.29   45.20
 -10 -10  -2  147.39   21.40
  10 -10   2  212.38   31.90
  10 -10   2  195.78   31.40
  10  10   2  176.48   22.70
 -12 -10  -2   92.09   18.70
  12 -10   2   80.89   23.60
  12 -10   2   57.69   21.20
  12 -10   2   21.80   34.60
  12  10   2   88.49   19.50
  14 -10   2   -6.00   16.10
  14 -10   2   16.40   18.30
 -14 -10  -2   23.50   15.30
  14 -10   2   40.40   37.90
  14  10   2   10.20   13.00
  16 -10   2   36.50   21.10
  16 -10   2   30.40   40.80
  16 -10   2   14.10   19.80
 -16 -10  -2    3.70   13.90
  16  10   2  -11.10   49.00
  16  10   2  -17.90   12.10
 -15 -11   2    4.40   15.50
  15 -11  -2   29.40   20.60
  15 -11  -2   22.50   20.10
  15  11  -2   -5.90   16.20
  15  11  -2  -28.30   40.70
 -13 -11   2   -7.90   12.70
  13 -11  -2    1.40   16.40
  13 -11  -2  -44.70   34.60
  13 -11  -2   10.80   21.30
  13  11  -2    1.50   15.40
  13  11  -2  -24.60   36.90
  11 -11  -2   67.59   26.30
  11 -11  -2   31.00   40.30
 -11 -11   2   54.19   17.20
  11 -11  -2   18.10   16.90
  11  11  -2   12.20   14.80
   9 -11  -2   52.09   23.00
   9 -11  -2   45.30   38.00
   9 -11  -2   40.50   18.10
  -9 -11   2   34.00   15.40
   9  11  -2   49.80   16.90
   7 -11  -2  128.39   26.20
   7 -11  -2   31.00   34.70
   7 -11  -2   87.99   29.40
  -7 -11   2   63.59   18.40
   5 -11  -2   48.40   37.70
  -5 -11   2   43.90   16.00
   5 -11  -2   45.50   24.00
   5 -11  -2   15.30   14.00
  -3 -11   2   -9.80   11.40
   3 -11  -2   47.60   27.40
   3 -11  -2    8.10   11.90
   1 -11  -2   -2.50   19.40
  -1 -11   2    3.80   27.10
  -1 -11   2    4.80   12.60
   1 -11  -2   -2.30   11.40
  -1 -11  -2   10.60   12.70
   1 -11   2    2.20   13.20
   1 -11   2   11.20   27.20
   3 -11   2   11.60   30.10
  -3 -11  -2    0.50   10.00
   3 -11   2    5.70   12.00
   3 -11   2   -1.10   19.50
   5 -11   2   23.20   32.70
   5 -11   2   36.20   24.00
  -5 -11  -2   54.79   16.50
   5 -11   2   34.90   28.60
   7 -11   2   63.99   24.20
  -7 -11  -2   65.79   16.70
   7 -11   2   26.00   18.60
   7 -11   2   36.20   41.40
   9 -11   2   98.49   25.40
  -9 -11  -2   92.09   18.20
   9 -11   2   29.20   35.50
   9 -11   2  138.39   31.80
  11 -11   2   31.10   18.40
  11 -11   2   14.60   34.50
 -11 -11  -2   18.80   14.30
  11 -11   2   31.80   20.60
  11  11   2   47.20   15.30
  13 -11   2    2.50   36.70
  13 -11   2   22.90   20.00
  13 -11   2   27.70   21.00
 -13 -11  -2   34.60   15.80
  13  11   2   22.90   13.90
  12 -12  -2  -25.20   14.10
 -12 -12   2   27.90   15.90
  10 -12  -2    4.90   17.20
 -10 -12   2   -7.70   12.50
  10  12  -2   23.30   16.80
  -8 -12   2   18.80   14.40
   8 -12  -2   40.70   19.00
   6 -12  -2  -13.50   18.50
  -6 -12   2   -6.40   12.90
   4 -12  -2   -0.80   18.30
   4 -12  -2   -4.10   12.50
  -4 -12   2   32.20   15.30
   2 -12  -2   -2.70   22.20
   2 -12  -2    7.40   12.90
  -2 -12   2    3.20   12.90
   0 -12  -2   37.00   26.60
   0 -12  -2   11.40   13.50
   0 -12   2    1.10   14.50
   2 -12   2   51.79   27.70
   2 -12   2   13.80   16.10
  -2 -12  -2   16.10   12.60
   4 -12   2   51.99   21.40
  -4 -12  -2   25.30   13.90
   4 -12   2   10.40   24.70
   6 -12   2   12.00   21.20
  -6 -12  -2   30.30   14.00
   6 -12   2   26.60   17.50
   6 -12   2   27.00   35.30
  -8 -12  -2   38.70   15.30
   8 -12   2   16.50   20.50
   8 -12   2   17.00   36.50
   8 -12   2   25.30   20.90
  10 -12   2   -7.20   16.00
  10 -12   2   24.90   37.60
 -10 -12  -2   30.50   14.70
  10 -12   2   -0.10   18.20
   9 -13  -2   15.90   18.70
   7 -13  -2   36.40   28.50
   7 -13  -2   -9.40   12.30
  -7 -13   2   25.90   19.50
   5 -13  -2   35.00   27.20
   5 -13  -2   25.60   17.00
   3 -13  -2    0.40   23.50
  -3 -13   2   22.70   16.30
   3 -13  -2   47.70   29.80
  -1 -13   2  -14.80   12.30
   1 -13  -2    3.40   28.00
   1 -13  -2   -0.30   11.90
   1 -13   2   69.69   22.10
  -1 -13  -2  107.19   21.80
  -1 -13  -2   64.59   35.40
   1 -13   2   24.80   27.40
  -3 -13  -2    0.30   11.90
   3 -13   2   -8.30   13.30
   3 -13   2   18.00   26.50
  -5 -13  -2    7.70   13.30
   5 -13   2   37.70   29.20
   5 -13   2   -3.30   13.30
   7 -13   2  -23.60   14.40
   7 -13   2   25.10   29.40
  -7 -13  -2   20.20   13.10
  26   0  -3   16.40   38.50
  24   0  -3    3.90   32.40
 -24   0   3    4.00   18.40
 -22   0   3   21.00   17.20
 -22   0   3   -2.80   20.40
  22   0  -3   35.80   32.30
 -20   0   3   17.90   19.80
  20   0  -3   23.50   29.30
 -20   0   3    5.80   14.60
 -18   0   3   14.60   18.80
 -18   0   3   -8.40   12.80
  18   0  -3   24.10   13.00
  18   0  -3    8.40   24.50
  16   0  -3   -7.70    9.30
  16   0  -3    7.10   18.40
 -16   0   3   -6.20   12.30
 -16   0   3    3.00   12.10
  14   0  -3   15.60   10.40
  14   0  -3   14.60   17.70
 -14   0   3   -6.40    8.40
 -14   0   3    2.60   13.40
 -12   0   3    3.00    9.90
  12   0  -3    3.30   15.30
  12   0  -3   15.70    9.60
 -12   0   3  -13.70   10.30
 -10   0   3    8.30   11.40
  10   0  -3   12.10   12.70
 -10   0   3   -2.40    7.80
   8   0  -3   12.60   12.10
  -8   0   3    1.90   10.20
  -8   0   3   -5.30    7.40
   8   0  -3    0.10    6.70
   6   0  -3    2.60   11.20
  -6   0   3    6.90    9.80
   6   0  -3    2.70    7.10
  -6   0   3    7.70    7.50
  -4   0   3    1.80    5.30
   4   0  -3    1.30    4.70
   4   0  -3   -8.80    6.70
  -4   0   3    1.90    7.30
  -2   0   3    2.70    3.80
   2   0  -3    6.70    5.30
  -2   0   3   -1.60    2.80
   2   0  -3   -3.60    2.20
   0   0  -3    1.70    2.40
   0   0  -3   -2.60    3.20
   0   0   3   -0.80    2.20
   2   0   3   -9.20    7.60
  -2   0  -3   -7.60    8.20
   4   0   3   31.30    8.10
  -4   0  -3    0.60   10.00
   4   0   3   18.30   12.10
  -6   0  -3  -11.80    9.50
   6   0   3   22.20   12.70
   6   0   3    6.90    6.70
   8   0   3   -1.20    6.70
  -8   0  -3    0.00   10.50
   8   0   3   -4.80   13.30
 -10   0  -3   -3.30   10.70
  10   0   3    4.20    8.90
  10   0   3   -8.80   12.80
  12   0   3   -8.90   15.20
  12   0   3   -2.90    8.50
  14   0   3   -4.20    9.30
  14   0   3  -10.00   23.20
 -14   0  -3   25.10   15.30
  16   0   3   30.80   25.30
 -16   0  -3    0.00   16.30
  16   0   3   45.50   16.10
  18   0   3  -12.80   25.00
 -18   0  -3   -9.80   16.70
  18   0   3   24.60   14.60
  20   0   3   15.10   33.50
 -20   0  -3   -3.70   19.70
  22   0   3  -18.90   30.90
 -22   0  -3   -7.00   19.40
  24   0   3  -26.30   40.10
 -25  -1   3  178.68   35.00
  25  -1  -3  278.37   61.19
  25   1  -3  117.69   46.70
 -23  -1   3  105.29   28.00
  23  -1  -3  133.59   43.60
 -21  -1   3   -2.10   18.40
  21  -1  -3    5.30   28.30
 -21  -1   3    2.10   15.10
  21   1  -3   68.19   31.90
 -21   1   3    1.90   18.90
 -21   1   3  -16.00   18.70
  19  -1  -3  198.58   27.60
 -19  -1   3  183.58   27.90
  19  -1  -3  269.97   43.40
 -19   1   3  225.78   33.70
 -19   1   3  225.38   30.10
  19   1  -3  206.98   46.20
  19   1  -3  196.08   26.50
 -17  -1   3   74.59   17.20
  17  -1  -3   23.20   15.60
 -17  -1   3   24.20   19.10
  17  -1  -3    9.20   18.90
 -17   1   3   39.90   19.00
  17   1  -3   37.40   14.10
 -17   1   3   50.89   17.70
  17   1  -3   14.40   25.20
 -15  -1   3  589.54   46.80
  15  -1  -3  605.34   38.70
  15  -1  -3  533.55   48.80
 -15  -1   3  553.54   38.10
  15   1  -3  547.25   54.79
  15   1  -3  556.34   37.00
 -15   1   3  566.04   39.60
 -15   1   3  650.93   45.40
 -13  -1   3  260.97   24.50
  13  -1  -3  289.37   24.90
  13  -1  -3  280.97   32.60
 -13  -1   3  255.87   30.60
 -13   1   3  300.17   26.10
  13   1  -3  319.97   24.50
 -13   1   3  299.97   29.50
  13   1  -3  241.28   36.20
 -11  -1   3   80.69   21.10
  11  -1  -3   31.70   11.80
 -11  -1   3   31.10   11.60
  11  -1  -3   52.39   17.60
  11   1  -3   60.99   13.00
 -11   1   3   53.49   14.90
  11   1  -3   15.30   16.80
 -11   1   3   51.09   13.90
   9  -1  -3  924.51   50.69
   9  -1  -3  835.22   43.60
  -9  -1   3  827.72   51.09
  -9  -1   3  931.21   44.10
   9   1  -3  851.31   42.90
  -9   1   3  865.41   48.10
  -9   1   3  861.41   44.30
   9   1  -3  839.82   54.69
  -7  -1   3 1518.95   78.39
   7  -1  -3 1686.33   76.79
   7  -1  -3 1688.83   71.89
  -7  -1   3 1659.73   71.19
  -7   1   3 1647.64   72.09
   7   1  -3 1682.53   71.09
  -7   1   3 1585.24   75.09
   7   1  -3 1759.02   82.49
   5  -1  -3  265.17   17.60
  -5  -1   3  274.77   17.60
   5  -1  -3  306.47   22.30
  -5  -1   3  256.47   24.00
  -5   1   3  252.97   21.10
  -5   1   3  227.38   17.40
   5   1  -3  273.67   17.30
   5   1  -3  275.07   25.80
   3  -1  -3 7271.27  280.47
  -3  -1   3 7328.77  285.57
   3   1  -3 7186.08  286.27
  -3   1   3 7298.97  280.47
  -1  -1   3   84.89    7.50
   1  -1  -3   75.39    5.30
   1  -1  -3   78.89   10.30
  -1  -1   3   80.09    9.30
   1   1  -3   90.29    7.50
  -1   1   3   85.19    5.60
   1   1  -3   95.69   10.10
  -1   1   3  103.29   11.00
   1  -1   3 5869.71  227.38
   3  -1   3   61.59    8.70
  -3  -1  -3   56.19   17.10
   3   1   3   60.09    8.20
  -3   1  -3   54.19    7.40
   3   1   3   80.39   19.00
  -5  -1  -3  100.89   11.40
   5  -1   3   94.29   14.10
  -5  -1  -3   77.59   18.50
  -5   1  -3   80.49   11.50
   5   1   3   68.39   10.10
   5   1   3   74.59   20.20
   7  -1   3  100.09   14.60
  -7  -1  -3  131.89   13.90
  -7  -1  -3  110.89   21.80
   7  -1   3  131.09   19.40
  -7   1  -3  110.59   14.80
   7   1   3  123.19   24.50
   7   1   3  115.29   13.00
  -9  -1  -3   -1.30   13.60
   9  -1   3  -10.70   10.70
   9  -1   3   12.70    9.00
  -9  -1  -3   10.40    9.10
   9   1   3   30.00   20.10
   9   1   3   -6.30    7.10
  -9   1  -3    0.60    9.20
  11  -1   3   28.10   11.50
 -11  -1  -3   26.20   11.50
  11  -1   3   14.10   14.20
 -11  -1  -3   31.80   16.30
  11   1   3   22.80    9.90
  11   1   3   -8.20   15.80
 -11   1  -3   19.70   12.10
  13  -1   3  819.52   57.39
 -13  -1  -3  807.22   56.09
 -13  -1  -3  832.12   48.00
  13  -1   3  824.62   47.80
  13   1   3  796.62   45.60
  13   1   3  968.80   68.19
 -13   1  -3  811.32   56.09
  15  -1   3   93.29   19.00
 -15  -1  -3  216.78   31.00
  15   1   3  162.48   38.70
  15   1   3   81.89   17.80
 -15   1  -3  113.09   23.30
 -17  -1  -3  443.86   45.90
  17  -1   3  514.55   54.49
  17  -1   3  365.26   35.70
 -17   1  -3  438.06   40.60
  17   1   3  497.05   38.10
  17   1   3  466.45   58.29
 -19  -1  -3   24.10   24.90
  19  -1   3   55.69   31.90
  19   1   3  -19.60   27.00
 -19   1  -3   31.70   20.30
  19   1   3   35.40   17.60
  21  -1   3  127.99   46.20
 -21  -1  -3   94.99   33.70
  21   1   3  131.89   48.20
 -21   1  -3  113.09   32.10
  23  -1   3   47.30   38.70
  23   1   3    5.10   55.99
 -23   1  -3   58.79   28.60
 -26  -2   3   -4.70   18.70
  26  -2  -3  -12.80   32.70
  26   2  -3   18.60   41.30
  24  -2  -3   34.50   34.20
 -24  -2   3   18.50   21.30
  24   2  -3   11.80   33.00
 -22  -2   3   92.89   26.80
  22  -2  -3   45.10   31.80
  22   2  -3   90.09   67.89
 -22   2   3  120.39   32.20
 -20  -2   3   -2.40   20.30
 -20  -2   3    8.40   14.70
  20  -2  -3    0.00   22.30
 -20   2   3   63.09   23.30
  20   2  -3   34.50   35.70
  20   2  -3   19.00   15.40
  18  -2  -3  164.18   36.20
  18  -2  -3  184.78   25.60
 -18  -2   3  205.58   26.10
 -18   2   3  188.38   31.10
  18   2  -3  134.19   44.20
 -18   2   3  192.48   31.00
 -16  -2   3  214.78   25.60
  16  -2  -3  246.18   34.60
  16  -2  -3  179.38   24.00
 -16  -2   3  223.08   33.70
  16   2  -3  277.27   25.60
 -16   2   3  236.68   27.90
 -16   2   3  208.38   28.20
  16   2  -3  218.88   47.00
  14  -2  -3   -2.80    8.80
  14  -2  -3   -7.70   14.90
 -14  -2   3  -13.10    8.00
 -14  -2   3    6.10   13.60
 -14   2   3    5.80   10.90
 -14   2   3   -0.90   11.10
  14   2  -3   -1.10    8.60
  14   2  -3   23.70   21.30
  12  -2  -3  327.47   32.10
  12  -2  -3  323.17   26.30
 -12  -2   3  369.46   36.30
  12   2  -3  332.97   25.10
 -12   2   3  312.47   29.10
 -12   2   3  349.96   28.30
  12   2  -3  301.57   40.70
  10  -2  -3 1509.55   70.39
 -10  -2   3 1452.15   80.79
  10  -2  -3 1485.25   75.19
 -10  -2   3 1554.34   69.19
  10   2  -3 1437.46   85.69
 -10   2   3 1551.94   71.49
 -10   2   3 1454.75   73.49
  10   2  -3 1575.04   73.29
   8  -2  -3   -4.60    6.90
   8  -2  -3    8.20   10.80
  -8  -2   3    7.00   13.40
  -8  -2   3    9.80    8.00
  -8   2   3    9.20   10.30
   8   2  -3    7.70    7.40
   8   2  -3  -22.00   13.60
  -8   2   3   -2.40    7.60
   6  -2  -3  222.28   17.20
   6  -2  -3  231.08   20.90
  -6  -2   3  199.48   24.80
  -6  -2   3  194.08   16.10
  -6   2   3  194.08   20.00
   6   2  -3  194.58   27.90
  -6   2   3  203.18   17.40
   6   2  -3  216.88   16.00
   4  -2  -3   17.10   10.60
  -4  -2   3   35.20    8.60
  -4  -2   3   13.20   13.00
   4  -2  -3   37.10    8.60
   4   2  -3   51.69   17.40
  -4   2   3   38.40   11.90
   4   2  -3   37.00    8.40
  -4   2   3   29.00    8.20
   2  -2  -3    1.30    4.80
   2  -2  -3   -0.20    9.00
  -2  -2   3    0.70   11.20
  -2  -2   3    2.30    6.10
   2   2  -3    4.50   11.40
   2   2  -3   -1.30    6.10
  -2   2   3    5.50    9.30
   0  -2   3 3481.05  137.79
   0  -2  -3 3545.25  133.79
   0  -2   3 3452.45  140.19
   0   2  -3 3463.55  137.89
   0   2  -3 3443.26  141.29
  -2  -2  -3   77.59    6.40
   2  -2   3   83.09   12.70
  -2  -2  -3   89.39   22.30
   2  -2   3   84.89    8.90
   2   2   3   83.79    6.10
  -4  -2  -3  180.58   11.70
   4  -2   3  150.78   11.70
  -4  -2  -3  198.18   27.70
   4   2   3  171.88   11.60
   4   2   3  183.48   30.10
  -4   2  -3  179.88   11.60
  -6  -2  -3    5.30   14.60
   6  -2   3   16.50    7.70
  -6  -2  -3    3.80    6.00
   6   2   3   19.00   16.50
   6   2   3   29.90    7.30
  -6   2  -3   19.70    7.30
   8  -2   3   19.20   10.80
   8  -2   3   38.90   12.10
  -8  -2  -3   23.80    8.80
  -8  -2  -3   37.30   18.30
   8   2   3   36.50   21.30
  -8   2  -3   26.40    9.30
   8   2   3   38.60    9.50
  10  -2   3  126.19   21.00
  10  -2   3  125.09   18.70
 -10  -2  -3   98.39   16.10
 -10  -2  -3  107.69   25.80
  10   2   3  124.29   15.00
  10   2   3  112.69   29.50
 -10   2  -3  119.79   16.30
 -12  -2  -3  186.48   30.60
  12  -2   3  222.28   23.40
 -12  -2  -3  237.28   26.10
  12  -2   3  243.98   29.40
  12   2   3  262.47   40.10
 -12   2  -3  210.68   22.10
  12   2   3  218.58   21.10
 -14  -2  -3  109.89   19.90
  14  -2   3  141.79   27.20
  14  -2   3  109.09   20.00
 -14  -2  -3   81.89   27.10
  14   2   3  107.79   18.00
  14   2   3   74.39   30.90
  16  -2   3   16.80   14.70
 -16  -2  -3   35.20   22.20
 -16  -2  -3    5.90   13.30
  16   2   3   -3.00   26.20
  16   2   3   30.70   14.90
 -16   2  -3    5.40   15.50
  18  -2   3   38.40   26.70
 -18  -2  -3   89.89   44.70
 -18   2  -3   26.70   16.80
  18   2   3  166.68   46.80
  18   2   3   40.70   19.40
  20  -2   3   -9.50   24.10
 -20  -2  -3   25.30   22.90
  20   2   3   30.20   19.00
  20   2   3    4.10   32.30
 -20   2  -3   14.70   20.20
  22  -2   3   15.30   37.10
 -22   2  -3   36.00   23.80
  24  -2   3   22.70   40.80
  24   2   3   20.40   46.20
 -24   2  -3   41.50   24.50
 -25  -3   3   39.00   22.30
  25   3  -3   12.50   42.90
 -23  -3   3  150.98   29.70
  23  -3  -3  113.89   40.70
 -23   3   3  104.09   32.20
  23   3  -3  234.08   64.49
  21  -3  -3   24.20   22.40
 -21  -3   3   -4.20   13.60
  21   3  -3   25.10   45.50
 -19  -3   3  177.48   26.60
 -19  -3   3  156.08   37.80
  19  -3  -3  205.68   39.20
 -19   3   3  174.58   32.80
  19   3  -3  111.09   43.50
  19   3  -3  151.08   25.60
  17  -3  -3   36.20   15.60
  17  -3  -3   75.79   24.10
 -17  -3   3   30.60   34.80
 -17  -3   3   23.50   14.50
 -17   3   3   33.20   19.00
  17   3  -3   41.70   15.40
  17   3  -3   37.10   30.70
  15  -3  -3   47.50   18.90
 -15  -3   3   47.60   14.10
  15  -3  -3   34.50   14.00
 -15  -3   3  101.29   27.90
 -15   3   3   38.60   16.80
  15   3  -3   64.29   14.60
  15   3  -3   11.30   25.60
  13  -3  -3 1075.69   62.79
 -13  -3   3 1158.68   72.39
 -13  -3   3 1108.69   55.89
  13  -3  -3 1144.59   58.39
  13   3  -3  945.51   53.49
 -13   3   3 1037.40   59.99
  13   3  -3 1066.89   78.89
 -11  -3   3   59.99   13.10
  11  -3  -3   58.29   13.30
 -11  -3   3   38.70   18.60
  11  -3  -3   67.49   17.70
 -11   3   3   68.99   19.40
  11   3  -3   54.49   24.80
  11   3  -3   77.09   14.30
   9  -3  -3  441.36   31.80
  -9  -3   3  368.66   37.30
  -9  -3   3  431.06   26.70
   9  -3  -3  410.46   28.00
   9   3  -3  369.56   42.30
   9   3  -3  389.76   25.60
  -9   3   3  408.26   31.10
   7  -3  -3  578.74   32.10
  -7  -3   3  538.15   42.70
   7  -3  -3  593.64   35.90
  -7  -3   3  588.54   30.70
   7   3  -3  510.95   45.70
   7   3  -3  577.94   30.60
  -7   3   3  527.35   34.60
  -5  -3   3  592.24   30.20
   5  -3  -3  586.54   30.90
  -5  -3   3  575.24   41.90
   5  -3  -3  561.94   34.90
   5   3  -3  594.04   30.00
   5   3  -3  574.54   44.80
  -5   3   3  556.74   35.00
  -3  -3   3  164.58   14.30
  -3  -3   3  186.38   25.00
   3  -3  -3  151.48   19.10
   3   3  -3  147.49   13.40
   3   3  -3  187.88   28.00
  -1  -3   3  630.94   40.70
  -1  -3   3  706.13   33.80
   1   3  -3  707.83   43.80
   1   3  -3  683.93   33.20
  -1  -3  -3 1010.00   63.69
   1  -3   3 1068.79   53.29
   1  -3   3 1082.39   48.20
  -1  -3  -3 1044.30   42.90
  -3  -3  -3 3583.44  163.78
   3  -3   3 3582.54  143.59
  -3  -3  -3 3678.33  140.59
   3   3   3 3714.63  166.28
   3   3   3 3539.45  140.39
  -5  -3  -3 1016.60   43.00
   5  -3   3  991.60   44.10
  -5  -3  -3  869.21   60.59
   5   3   3 1008.60   66.59
   5   3   3  998.80   42.50
  -7  -3  -3  666.63   53.09
   7  -3   3  732.03   37.10
  -7  -3  -3  755.02   36.00
   7   3   3  724.53   35.10
  -7   3  -3  760.02   36.60
   7   3   3  817.02   61.29
  -9  -3  -3   81.99   24.10
   9  -3   3   67.69   13.60
  -9  -3  -3   89.19   13.20
   9  -3   3   51.19   13.00
  -9   3  -3   68.39   12.60
   9   3   3   73.29   12.10
  11  -3   3  199.18   22.40
 -11  -3  -3  207.28   38.00
  11  -3   3  192.08   23.60
 -11  -3  -3  162.58   17.80
 -11   3  -3  190.28   19.70
  11   3   3  151.48   38.30
 -13  -3  -3   48.10   22.50
 -13  -3  -3   26.60   12.90
  13  -3   3   37.50   14.80
  13  -3   3    6.90   12.60
  13   3   3   30.90   10.30
 -13   3  -3   13.60   12.70
  13   3   3   37.60   27.70
 -15  -3  -3  134.59   22.80
 -15  -3  -3  116.39   33.40
  15  -3   3  134.89   30.20
  15  -3   3  181.48   25.10
  15   3   3  223.88   50.49
  15   3   3   98.39   18.80
 -17  -3  -3  291.97   30.80
 -17  -3  -3  272.27   48.40
  17  -3   3  267.37   53.79
  17   3   3  228.08   26.80
  17   3   3  255.47   58.19
 -17   3  -3  247.08   30.20
 -19  -3  -3  -14.20   13.90
  19  -3   3    2.50   23.90
 -19  -3  -3    1.00   21.60
  19   3   3   -5.50   12.40
  19   3   3   14.60   34.60
 -19   3  -3   20.20   17.30
  21  -3   3    7.10   27.90
  21   3   3   33.60   43.00
 -21   3  -3   18.20   18.40
  23  -3   3   95.79   42.20
 -23   3  -3   73.79   27.60
  23   3   3    5.90   43.40
  24  -4  -3  -15.10   25.40
 -24  -4   3   13.10   19.40
  24   4  -3  -29.70   33.20
  22  -4  -3   -0.70   22.70
 -22  -4   3    5.70   15.50
 -22   4   3   23.60   22.80
  22   4  -3   30.50   38.10
 -20  -4   3    1.80   15.90
  20  -4  -3    3.60   21.30
  20   4  -3   -5.90   12.90
 -20   4   3   -9.90   16.90
  18  -4  -3   20.60   20.00
 -18  -4   3    7.10   14.60
 -18  -4   3    2.80   22.40
 -18   4   3   38.30   23.20
  18   4  -3  -20.50   29.10
  16  -4  -3   26.70   18.50
  16  -4  -3    7.10   11.60
 -16  -4   3   26.10   13.90
 -16  -4   3    7.50   21.00
  16   4  -3    7.80   27.10
  16   4  -3   25.40   12.60
 -16   4   3    5.20   15.00
 -14  -4   3  175.18   21.70
  14  -4  -3  193.68   23.40
  14  -4  -3  186.18   27.40
 -14  -4   3  169.08   37.10
  14   4  -3  198.28   45.90
  14   4  -3  191.28   21.00
 -14   4   3  156.78   24.10
  12  -4  -3   41.40   13.50
 -12  -4   3   89.19   26.00
 -12  -4   3   51.69   13.80
  12  -4  -3   52.99   18.10
  12   4  -3   69.39   29.60
 -12   4   3   95.69   21.70
  12   4  -3   55.59   12.70
 -10  -4   3   40.40   21.50
  10  -4  -3   39.30   14.90
 -10  -4   3   17.90   10.50
  10  -4  -3   21.30   12.30
  10   4  -3   37.90   26.30
  10   4  -3   20.50    9.60
   8  -4  -3  134.09   17.00
   8  -4  -3  111.29   20.00
  -8  -4   3  108.99   15.40
  -8  -4   3  127.89   28.70
  -8   4   3  118.19   19.30
   8   4  -3  132.89   15.00
   8   4  -3   78.39   29.80
   6  -4  -3   26.60    9.70
   6  -4  -3   51.79   15.00
  -6  -4   3   39.80   10.40
  -6   4   3   53.39   14.40
   6   4  -3   32.60   19.90
   6   4  -3   29.60    9.30
  -4  -4   3  844.62   55.39
   4  -4  -3  838.72   48.50
  -4  -4   3  884.21   42.20
   4   4  -3  891.91   42.00
   4   4  -3  954.50   60.79
  -2  -4   3  301.87   30.20
   2  -4  -3  301.17   26.70
  -2  -4   3  256.57   18.90
   2   4  -3  233.88   31.30
   2   4  -3  257.57   18.30
   0  -4   3   85.69   12.50
   0  -4  -3  122.19   27.00
   0  -4   3   72.09   18.70
   0  -4  -3   82.79    9.70
   0   4  -3   87.59   22.50
   0   4  -3   92.59   13.30
  -2  -4  -3  -11.60   14.90
  -2  -4  -3    5.00    4.70
   2  -4   3   -7.30   11.80
   2  -4   3    3.10    6.90
   2   4   3    5.60    4.20
   4  -4   3  659.03   33.20
  -4  -4  -3  612.04   28.50
  -4  -4  -3  648.84   52.59
   4   4   3  587.64   53.49
   4   4   3  597.04   28.30
   6  -4   3  293.47   21.70
  -6  -4  -3  353.46   19.80
  -6  -4  -3  344.07   39.70
   6   4   3  338.47   19.20
   6   4   3  362.06   46.00
   8  -4   3   53.59   12.00
  -8  -4  -3   97.79   31.20
  -8  -4  -3   39.70    9.30
  -8   4  -3   53.79   11.80
   8   4   3   39.20   29.00
   8   4   3   73.99   10.70
  10  -4   3   34.90   13.50
 -10  -4  -3   47.80   11.00
 -10  -4  -3   94.09   29.70
  10  -4   3   34.60   12.40
  10   4   3   42.40    9.90
 -10   4  -3   32.30   10.80
  10   4   3   69.39   31.00
 -12  -4  -3  192.78   39.10
  12  -4   3  169.48   22.80
  12  -4   3  180.98   23.50
 -12  -4  -3  214.48   20.60
 -12   4  -3  192.88   20.10
  12   4   3  201.78   49.10
  12   4   3  183.48   18.70
  14  -4   3   25.80   17.20
 -14  -4  -3   -2.80   19.60
  14  -4   3   -4.30   10.00
 -14  -4  -3   18.20   10.90
 -14   4  -3   16.00   13.80
  14   4   3   -2.70    9.70
  14   4   3   11.50   32.60
 -16  -4  -3   52.29   16.10
 -16  -4  -3   39.50   27.60
  16  -4   3   73.99   23.90
  16   4   3   22.30   13.40
  16   4   3   95.69   43.60
 -16   4  -3   36.40   15.70
  18  -4   3   54.49   24.80
 -18  -4  -3   27.70   16.40
 -18   4  -3   45.90   18.60
  18   4   3    5.40   13.00
  18   4   3   18.00   37.30
 -20  -4  -3   40.40   19.40
  20  -4   3  119.09   35.20
 -20   4  -3   78.89   24.10
  20   4   3   57.29   19.20
  20   4   3   50.99   47.70
  22  -4   3  -24.80   27.10
 -22   4  -3  -14.50   17.90
  22   4   3   25.20   45.00
  23  -5  -3  109.09   35.40
 -23  -5   3   67.89   22.30
 -23   5   3   73.49   29.70
  23   5  -3   22.90   44.20
  21  -5  -3   18.80   23.70
 -21  -5   3   15.60   16.00
  21   5  -3   64.79   41.30
 -19  -5   3  106.09   24.00
  19  -5  -3   75.39   26.30
 -19   5   3  111.69   28.80
  19   5  -3   75.79   20.10
  19   5  -3  135.69   50.39
  17  -5  -3  243.68   35.30
 -17  -5   3  166.08   49.30
 -17  -5   3  198.98   26.30
 -17   5   3  226.48   33.60
  17   5  -3  272.47   27.20
  17   5  -3  203.18   53.49
 -15  -5   3  421.06   33.30
  15  -5  -3  412.46   39.00
  15  -5  -3  446.26   36.50
 -15  -5   3  410.96   49.50
  15   5  -3  361.66   30.50
  15   5  -3  396.06   60.39
 -15   5   3  417.46   37.10
 -13  -5   3  309.07   26.20
  13  -5  -3  307.47   29.00
  13  -5  -3  307.57   32.00
 -13  -5   3  244.68   39.20
  13   5  -3  295.87   49.00
 -13   5   3  342.97   31.50
  13   5  -3  328.17   25.60
  11  -5  -3  118.59   18.80
  11  -5  -3   96.79   21.10
 -11  -5   3   87.09   15.80
 -11  -5   3   92.79   28.40
  11   5  -3  118.39   16.00
  11   5  -3   71.49   27.90
 -11   5   3  128.89   24.10
   9  -5  -3  673.13   45.60
   9  -5  -3  654.53   41.20
  -9  -5   3  712.03   58.29
  -9  -5   3  691.93   39.20
   9   5  -3  776.22   39.80
  -9   5   3  779.32   47.50
   9   5  -3  889.01   68.69
  -7  -5   3   34.60   19.70
   7  -5  -3   64.69   17.80
  -7  -5   3   41.80   11.30
   7  -5  -3   22.60    9.80
   7   5  -3   19.50   22.10
   5  -5  -3   39.20   14.60
  -5  -5   3   28.60   20.00
  -5  -5   3   87.69   13.60
   5   5  -3   28.10    9.30
   5   5  -3   -3.70   20.80
  -3  -5   3  376.26   24.50
  -3  -5   3  358.66   37.80
   3  -5  -3  386.56   32.00
   3   5  -3  303.87   40.30
   3   5  -3  394.46   24.10
   1  -5  -3  187.08   42.60
  -1  -5   3  179.78   29.00
  -1  -5   3  118.89   16.30
   1  -5  -3  136.19   12.60
   1   5  -3  211.38   36.40
   1   5  -3  120.09   14.50
   1  -5   3 1543.15   81.69
  -1  -5  -3 1557.64   64.49
  -1  -5  -3 1493.45   91.19
   1  -5   3 1492.95   69.19
   3  -5   3 1583.84   82.69
   3  -5   3 1588.44   74.39
  -3  -5  -3 1592.44   66.79
  -3  -5  -3 1514.55   94.89
   3  -5   3 1661.23   73.59
   3   5   3 1614.14   66.59
  -5  -5  -3   53.09    8.50
  -5  -5  -3   19.60   19.60
   5  -5   3   58.79   13.80
   5   5   3   42.90    8.60
   5   5   3   48.20   31.90
   7  -5   3 2441.26  101.59
  -7  -5  -3 2355.76   96.89
  -7  -5  -3 2138.49  125.79
   7   5   3 2293.37  133.49
   7   5   3 2362.76   96.39
  -9  -5  -3    3.20    7.80
   9  -5   3  -11.40    7.90
  -9  -5  -3   -2.50   17.50
   9   5   3   -3.80    5.90
   9   5   3   11.50   24.80
  11  -5   3  387.56   29.60
  11  -5   3  424.26   34.40
 -11  -5  -3  278.27   44.70
 -11  -5  -3  400.06   27.20
 -11   5  -3  390.76   28.50
  11   5   3  624.14   65.79
  13  -5   3   19.50   13.00
 -13  -5  -3   13.40   22.60
  13  -5   3   12.30   14.40
 -13  -5  -3    1.90   10.90
 -13   5  -3    2.90   11.80
  13   5   3   19.50   11.10
  13   5   3  -17.50   28.30
 -15  -5  -3   67.89   16.50
 -15  -5  -3   53.59   29.60
  15  -5   3   79.69   21.60
  15   5   3   77.39   16.40
 -15   5  -3   40.00   15.40
  15   5   3   91.69   42.80
 -17  -5  -3   14.30   14.10
  17  -5   3   32.60   19.40
  17   5   3    1.80   12.90
  17   5   3   20.10   37.40
 -17   5  -3   22.80   15.00
 -19  -5  -3   -5.80   13.50
  19  -5   3   30.90   23.80
 -19   5  -3   30.80   17.80
  19   5   3   19.50   42.70
  19   5   3   11.70   12.60
 -21  -5  -3   -1.80   16.90
  21  -5   3  -21.80   26.10
  21   5   3   60.79   53.79
 -21   5  -3   28.40   17.50
 -24  -6   3    5.40   16.00
  24  -6  -3    6.40   25.40
  24   6  -3   88.19   61.89
  22  -6  -3   -6.40   24.40
 -22  -6   3   23.20   17.10
  22   6  -3   30.70   48.60
 -22   6   3   23.80   24.00
 -20  -6   3    5.50   14.60
  20  -6  -3   19.90   22.30
  20   6  -3   26.40   38.10
 -20   6   3   -1.40   21.50
 -18  -6   3   51.89   18.70
  18  -6  -3   82.79   26.60
  18   6  -3   50.59   16.00
  18   6  -3   65.59   44.10
 -18   6   3   36.80   22.40
  16  -6  -3    0.90   15.90
 -16  -6   3    4.60   12.50
  16   6  -3  -41.20   25.60
 -16   6   3    2.00   18.30
  16   6  -3    0.30   11.10
 -14  -6   3  202.98   23.40
  14  -6  -3  205.88   29.10
 -14  -6   3  185.38   44.90
  14  -6  -3  148.09   24.90
 -14   6   3  157.18   28.10
  14   6  -3  278.77   63.29
  14   6  -3  176.98   22.00
 -12  -6   3   46.00   14.00
  12  -6  -3   31.70   13.40
  12  -6  -3   42.50   17.30
 -12  -6   3  -17.90   17.90
 -12   6   3    7.70   13.90
  12   6  -3  -11.50   23.90
  12   6  -3    5.50    9.30
  10  -6  -3    7.20   13.00
  10  -6  -3   22.20   13.00
 -10  -6   3   38.30   23.30
 -10  -6   3   16.50   10.50
  10   6  -3   15.50    9.60
 -10   6   3   15.20   12.50
  10   6  -3   44.20   28.40
   8  -6  -3  671.53   40.70
  -8  -6   3  653.83   56.79
   8   6  -3  664.73   65.59
   8   6  -3  662.63   36.90
   6  -6  -3   76.89   21.80
  -6  -6   3   59.69   12.80
  -6  -6   3   50.99   22.30
   6   6  -3   77.19   14.10
   6   6  -3   87.89   29.70
  -4  -6   3  233.48   39.60
  -4  -6   3  214.18   19.60
   4  -6  -3  206.38   30.20
   4   6  -3  186.18   17.90
   4   6  -3  252.97   51.59
   2  -6  -3   16.70   19.70
  -2  -6   3    4.50    8.90
   2  -6  -3   11.10    7.30
  -2  -6   3  -11.20   13.80
   2   6  -3   14.40    8.50
   2   6  -3   -9.00   17.70
   0  -6   3  111.89   17.10
   0  -6  -3   39.00   24.80
   0  -6  -3   90.49   12.70
   0  -6   3   88.29   25.20
  -2  -6  -3  154.18   35.30
  -2  -6  -3  148.49   13.80
   2  -6   3  200.08   32.30
   2  -6   3  123.69   18.00
  -4  -6  -3  260.37   48.00
   4  -6   3  318.77   27.40
   4  -6   3  303.27   25.20
   4  -6   3  356.16   36.50
  -4  -6  -3  282.57   18.70
   4   6   3  280.37   18.20
   6  -6   3   13.60   11.60
   6  -6   3   -3.90   16.30
  -6  -6  -3   29.10    8.40
  -6  -6  -3   23.20   21.20
   6   6   3   -3.20   25.40
   6   6   3   16.90    7.00
  -8  -6  -3  203.58   16.80
   8  -6   3  200.98   21.60
  -8  -6  -3  142.29   38.80
   8   6   3  212.38   47.80
   8   6   3  171.28   16.00
  10  -6   3   59.49   15.40
 -10  -6  -3   52.89   11.60
 -10  -6  -3   99.99   33.40
  10   6   3   50.69   12.10
  10   6   3   10.00   28.20
  12  -6   3  368.26   35.00
 -12  -6  -3  395.96   53.29
 -12  -6  -3  371.96   28.00
  12  -6   3  394.06   31.90
  12   6   3  389.66   27.30
  12   6   3  381.36   70.49
 -14  -6  -3   60.69   15.40
  14  -6   3   35.40   16.90
 -14  -6  -3   16.50   33.00
  14   6   3   13.00   36.50
  14   6   3   66.59   14.80
 -16  -6  -3   39.10   15.20
  16  -6   3   17.00   17.70
  16   6   3   28.80   14.50
 -16   6  -3    3.20   13.00
  16   6   3   -5.90   61.79
 -18  -6  -3   31.90   16.20
  18   6   3   28.90   17.20
  18   6   3    4.80   39.40
 -18   6  -3   11.40   16.00
  20  -6   3  -11.40   21.40
 -20  -6  -3   -2.00   14.30
 -20   6  -3   22.10   17.80
  20   6   3  -23.00   37.20
  20   6   3    5.30   14.10
 -23  -7   3    5.90   18.20
  23  -7  -3    6.00   25.50
 -23   7   3   84.39   40.40
  23   7  -3   33.80   49.30
  21  -7  -3    5.20   20.50
 -21  -7   3   -2.50   17.70
  21   7  -3  110.49   53.99
 -21   7   3   -1.10   23.40
  19  -7  -3  253.07   38.60
 -19  -7   3  244.88   30.30
  19   7  -3  144.69   55.39
 -19   7   3  133.09   36.40
  19   7  -3  205.98   29.50
  17  -7  -3   31.70   18.90
 -17  -7   3   39.10   18.10
 -17   7   3   27.40   19.60
  17   7  -3   55.89   17.70
  17   7  -3   26.70   31.90
  15  -7  -3  112.59   26.60
 -15  -7   3  117.79   20.60
  15   7  -3   90.49   19.50
  15   7  -3   47.60   39.00
 -15   7   3  169.38   33.20
  13  -7  -3   31.80   15.80
 -13  -7   3   65.49   17.00
 -13  -7   3   33.80   26.20
  13  -7  -3   19.50   16.00
  13   7  -3   47.60   15.00
  13   7  -3   57.59   34.30
 -11  -7   3   43.90   27.90
  11  -7  -3   21.20   13.00
 -11  -7   3   55.39   14.60
  11  -7  -3   78.59   24.20
  11   7  -3   71.79   15.80
  11   7  -3   40.40   33.40
   9  -7  -3  542.15   38.00
   9  -7  -3  553.44   43.50
  -9  -7   3  539.25   34.70
  -9  -7   3  578.64   56.79
   9   7  -3  593.54   65.99
   9   7  -3  509.05   33.20
   7  -7  -3  169.98   26.60
  -7  -7   3  198.48   20.30
  -7  -7   3  215.88   40.10
   7   7  -3  171.38   18.60
   7   7  -3  165.88   41.90
  -5  -7   3    5.80   18.10
  -5  -7   3   -6.10    8.90
   5  -7  -3   16.60   14.90
   5   7  -3    1.50    8.20
   5   7  -3    3.60   24.00
   3  -7  -3  318.57   34.40
   3  -7  -3  364.66   25.00
  -3  -7   3  308.87   25.40
  -3  -7   3  305.47   41.60
   3  -7  -3  321.37   45.00
   3   7  -3  339.87   25.20
   3   7  -3  340.17   48.80
  -1  -7   3  -14.20   13.70
   1  -7  -3   -6.00    7.50
  -1  -7   3    8.10    9.50
   1  -7  -3    6.60   22.20
   1  -7   3   83.89   16.60
   1  -7   3   51.09   23.50
  -1  -7  -3  110.99   37.70
  -1  -7  -3  112.79   14.70
   3  -7   3   70.29   19.30
   3  -7   3   65.69   25.00
  -3  -7  -3  114.89   38.30
   3  -7   3  106.89   18.10
  -3  -7  -3   88.99   12.50
  -5  -7  -3   94.09   32.00
   5  -7   3   75.79   15.80
   5  -7   3  100.69   31.20
  -5  -7  -3   98.89   12.60
   5  -7   3   90.79   20.10
   5   7   3   82.49   11.80
   7  -7   3  296.87   39.10
  -7  -7  -3  250.07   48.90
   7  -7   3  326.57   29.80
  -7  -7  -3  319.27   21.80
   7  -7   3  328.87   29.10
   7   7   3  316.27   58.79
   7   7   3  304.87   20.90
  -9  -7  -3   15.10    9.20
  -9  -7  -3   22.70   24.60
   9  -7   3   -2.70   11.90
   9   7   3   -5.80   29.90
   9   7   3   19.20    9.00
  11  -7   3   49.00   15.80
 -11  -7  -3   39.10   12.20
  11  -7   3   14.40   15.10
 -11  -7  -3    5.40   24.80
  11   7   3   64.69   42.10
  11   7   3   45.00   12.10
  13  -7   3   36.00   16.40
 -13  -7  -3   53.79   15.20
  13   7   3   50.49   13.70
  13   7   3   64.09   47.40
 -15  -7  -3   43.20   16.50
  15  -7   3   53.59   19.50
  15   7   3   56.59   40.50
  15   7   3    9.50   12.30
 -17  -7  -3   53.29   17.00
  17  -7   3   63.19   28.30
  17   7   3   89.49   48.00
  17   7   3   37.00   15.70
  19  -7   3   38.40   24.00
 -19  -7  -3   -1.40   15.30
  19   7   3   28.30   16.00
  19   7   3   75.49   55.49
  20  -8  -3   60.19   26.70
  20   8  -3   -3.30   40.60
  18  -8  -3   26.90   20.40
 -18  -8   3   47.40   18.30
  18   8  -3   28.70   16.60
  18   8  -3   21.20   44.90
 -16  -8   3   -2.90   12.60
  16  -8  -3   17.90   19.90
  16   8  -3    8.90   12.80
  16   8  -3   64.49   42.30
  14  -8  -3   57.39   23.00
 -14  -8   3   57.39   17.80
  14   8  -3   62.79   17.70
  14   8  -3  117.89   47.90
 -12  -8   3  -11.70   10.40
  12  -8  -3    4.90   12.40
  12  -8  -3   12.50   17.70
  12   8  -3  -19.70   29.60
  12   8  -3   25.00   13.20
 -10  -8   3  -15.80   19.90
  10  -8  -3  -18.20   13.50
 -10  -8   3    2.20   11.60
  10   8  -3   -0.50   10.80
  10   8  -3   20.80   34.50
  -8  -8   3   39.90   26.40
   8  -8  -3   81.89   18.60
   8  -8  -3   54.49   20.60
  -8  -8   3   65.79   16.20
   8   8  -3   44.10   34.10
   8   8  -3   31.00   11.90
  -6  -8   3   15.90   22.10
   6  -8  -3   -6.90    9.40
  -6  -8   3  -16.70    7.80
   6  -8  -3    1.80   14.40
   6   8  -3  -22.90   23.40
   6   8  -3   -3.90    8.40
   4  -8  -3   65.19   23.60
  -4  -8   3  101.39   17.40
   4  -8  -3   64.99   15.50
   4  -8  -3   27.30   23.70
  -4  -8   3   81.69   30.70
   4   8  -3  102.69   35.70
   4   8  -3   61.49   13.70
  -2  -8   3   37.00   12.90
   2  -8  -3   17.20   17.30
   2  -8  -3   23.00   25.50
   2  -8  -3   11.00   12.60
  -2  -8   3   34.50   22.70
   0  -8  -3   91.49   32.60
   0  -8   3  163.18   35.60
   0  -8  -3  113.79   16.50
   0  -8   3  130.29   20.40
  -2  -8  -3   51.99   12.80
   2  -8   3   52.89   27.00
  -2  -8  -3   60.99   27.20
   2  -8   3   67.39   16.30
   4  -8   3  131.19   33.30
   4  -8   3  142.09   22.20
  -4  -8  -3   96.69   14.60
  -4  -8  -3  138.79   48.20
   4  -8   3   86.79   22.20
   6  -8   3   34.70   25.10
  -6  -8  -3   57.19   28.90
   6  -8   3   37.30   16.40
  -6  -8  -3   63.39   12.80
   6  -8   3   92.89   25.60
   6   8   3   45.40   10.50
  -8  -8  -3   69.79   34.20
   8  -8   3  131.89   23.30
   8  -8   3   78.29   29.60
   8  -8   3   78.99   20.40
  -8  -8  -3  116.79   16.30
  10  -8   3   19.60   15.00
  10  -8   3   49.20   29.20
  10  -8   3    9.00   16.30
 -10  -8  -3   20.50   10.70
  10   8   3    6.10   37.00
  10   8   3   -0.90    8.00
  12  -8   3  114.99   22.40
 -12  -8  -3  162.18   20.70
  12   8   3  125.79   18.90
  12   8   3  114.59   45.90
  14  -8   3   13.70   18.70
 -14  -8  -3   -3.10   11.60
  14   8   3  110.79   55.79
  14   8   3   17.50   12.40
 -16  -8  -3  108.09   21.60
  16   8   3   85.29   52.09
  16   8   3   40.90   15.90
  18  -8   3   -5.30   20.40
 -18  -8  -3   34.30   15.50
  18   8   3   -3.60   14.10
  18   8   3  -38.00   36.70
  19  -9  -3    9.40   19.50
 -19  -9   3    7.40   19.30
  19   9  -3   24.60   46.60
  17  -9  -3   23.10   22.30
 -17  -9   3    4.90   14.10
  17   9  -3    9.50   14.90
  17   9  -3   19.30   40.00
 -15  -9   3   -8.80   12.20
  15  -9  -3    6.50   15.00
  15   9  -3    9.90   39.40
  15   9  -3   -3.00   13.20
  13  -9  -3  100.09   26.40
 -13  -9   3  112.09   21.50
  13   9  -3   70.29   18.60
  13   9  -3   93.99   50.59
  11  -9  -3   13.00   15.30
  11  -9  -3    0.20   16.90
 -11  -9   3   42.60   14.90
  11   9  -3   24.10   13.70
  -9  -9   3   90.69   18.40
   9  -9  -3   78.29   20.30
   9  -9  -3   68.79   24.60
   9   9  -3  110.49   44.40
   9   9  -3   78.09   17.00
  -7  -9   3  168.38   23.90
   7  -9  -3  216.78   37.50
  -7  -9   3  224.28   47.40
   7  -9  -3  140.49   22.90
   7   9  -3  201.18   53.89
   7   9  -3  150.98   22.10
  -5  -9   3   91.79   39.30
   5  -9  -3   -2.50   25.20
   5  -9  -3   68.09   23.70
  -5  -9   3   15.40   12.80
   5  -9  -3   68.39   17.30
   5   9  -3   51.49   15.00
   3  -9  -3  304.37   53.89
   3  -9  -3  246.08   36.80
   3  -9  -3  243.68   24.80
  -3  -9   3  194.08   44.50
  -3  -9   3  261.07   26.40
   1  -9  -3   77.29   15.40
  -1  -9   3   33.90   16.10
   1  -9  -3   70.39   35.10
  -1  -9   3   37.00   26.90
  -1  -9  -3   26.80   12.00
   1  -9   3   56.99   27.60
  -1  -9  -3   58.59   34.20
   1  -9   3   16.60   13.80
   3  -9   3   73.39   18.50
   3  -9   3   69.59   24.40
   3  -9   3   37.50   26.00
  -3  -9  -3   37.80   29.20
  -3  -9  -3   61.59   13.90
   5  -9   3  117.19   26.60
  -5  -9  -3   46.40   31.40
  -5  -9  -3  124.49   17.00
   5  -9   3  103.09   21.80
   5  -9   3  131.89   37.00
   7  -9   3   29.60   14.90
  -7  -9  -3   10.40   10.10
   7  -9   3   43.10   20.60
   7  -9   3   -2.20   24.20
   7   9   3    6.50    8.40
   9  -9   3    4.10   26.00
   9  -9   3   37.10   16.90
   9  -9   3   30.80   16.50
   9   9   3   -4.80    9.10
 -11  -9  -3   21.90   11.70
  11  -9   3    1.40   13.00
  11  -9   3    7.30   27.50
  11  -9   3   -5.30   15.30
  11   9   3   -0.30    9.20
 -13  -9  -3    5.40   12.50
  13  -9   3  -14.10   27.70
  13  -9   3    1.70   16.50
  13  -9   3   -0.90   14.40
  13   9   3  -12.60    9.40
  13   9   3  -47.90   33.30
 -15  -9  -3   46.20   15.40
  15  -9   3   87.09   24.30
  15   9   3   52.59   48.30
  15   9   3   35.50   14.50
 -17  -9  -3   47.60   17.50
  17  -9   3   24.70   20.50
  17   9   3   29.20   15.20
  17   9   3   39.30   54.89
  18 -10  -3  -23.60   16.60
  18  10  -3    8.70   50.49
 -16 -10   3  -11.70   12.70
  16 -10  -3    6.40   19.10
  16  10  -3   58.29   48.70
  16  10  -3   -6.80   15.90
  14 -10  -3   80.79   27.00
 -14 -10   3   82.69   20.50
  14  10  -3  100.39   54.19
  14  10  -3  102.39   22.20
 -12 -10   3  -20.10   11.90
  12 -10  -3   15.70   18.60
  12  10  -3   17.70   39.20
  12  10  -3    3.70   12.10
  10 -10  -3   64.59   19.10
 -10 -10   3   10.50   12.50
  10 -10  -3    2.20   18.60
  10  10  -3   28.10   18.70
  10  10  -3   -5.70   36.40
   8 -10  -3   10.00   13.80
   8 -10  -3   11.20   32.20
  -8 -10   3   23.70   13.80
   8 -10  -3    1.80   14.10
   8 -10  -3    6.00   20.70
   8  10  -3  -50.79   30.50
   8  10  -3    2.20   11.90
  -6 -10   3   -1.40   11.50
   6 -10  -3    4.30   12.60
   6 -10  -3  -19.10   23.30
   6 -10  -3  -13.20   15.40
   6  10  -3   18.90   13.10
   4 -10  -3  398.96   61.09
   4 -10  -3  357.36   44.30
  -4 -10   3  337.17   54.29
  -4 -10   3  435.96   34.60
   4 -10  -3  390.76   32.30
  -2 -10   3   -1.10   12.90
   2 -10  -3   -8.70    9.20
  -2 -10   3  -13.80   22.50
   2 -10  -3  -11.40   18.70
   2 -10  -3   10.20   28.10
   0 -10  -3  -20.50   25.50
   0 -10  -3   16.60   10.90
   0 -10   3    3.50   14.00
   0 -10   3   10.00   23.30
   2 -10   3  130.19   22.80
   2 -10   3   67.19   31.80
  -2 -10  -3  129.49   19.50
   4 -10   3  -17.50   12.90
   4 -10   3   15.40   18.90
  -4 -10  -3   17.20   11.20
   4 -10   3   38.30   30.20
  -6 -10  -3  133.69   18.40
   6 -10   3   74.49   33.40
   6 -10   3  128.59   29.90
   6 -10   3  123.09   26.70
   8 -10   3   37.70   19.20
   8 -10   3   75.29   22.30
   8 -10   3   98.99   39.20
  -8 -10  -3   71.59   15.10
  10 -10   3   -5.40   28.70
  10 -10   3   13.90   18.50
  10 -10   3   -6.60   14.60
 -10 -10  -3    4.30   11.40
  10  10   3    0.70   11.00
  12 -10   3   47.00   20.80
 -12 -10  -3   39.30   15.10
  12 -10   3   72.79   37.70
  12 -10   3   27.90   18.60
  12  10   3   39.90   13.40
  14 -10   3  -21.50   15.30
  14 -10   3   -1.90   16.10
 -14 -10  -3    6.30   13.00
  14 -10   3  -42.10   26.80
  14  10   3    2.80   10.80
  16 -10   3   20.60   23.00
  16 -10   3   45.60   22.40
 -16 -10  -3   38.50   16.70
  16 -10   3   33.80   36.90
  16  10   3   22.80   14.80
  15 -11  -3  -11.00   16.80
 -15 -11   3   16.10   15.30
  15  11  -3  -14.80   46.40
 -13 -11   3  -11.90   13.20
  13 -11  -3   14.60   17.00
  13 -11  -3   14.20   21.20
  13  11  -3    3.00   15.00
  13  11  -3   -7.80   36.60
  11 -11  -3   41.50   20.20
  11 -11  -3   -2.90   18.90
 -11 -11   3   19.00   14.10
  11  11  -3    0.00   44.80
  11  11  -3    5.20   14.20
  -9 -11   3   96.79   20.60
   9 -11  -3   91.89   68.79
   9 -11  -3   84.59   28.70
   9  11  -3  107.79   23.00
   7 -11  -3   20.80   21.40
  -7 -11   3   47.70   17.40
   7 -11  -3   47.50   17.80
   7  11  -3    2.10   13.40
   5 -11  -3   20.90   14.90
   5 -11  -3   31.40   22.90
  -5 -11   3   -6.70   11.90
  -3 -11   3   23.40   15.00
   3 -11  -3   63.39   26.50
   3 -11  -3   10.20   11.30
  -1 -11   3    5.80   29.70
   1 -11  -3   15.80   12.10
   1 -11  -3    2.70   25.40
  -1 -11   3   10.70   13.90
  -1 -11  -3   91.39   17.10
   1 -11   3   36.20   31.20
   1 -11   3   84.09   21.00
   3 -11   3  -22.90   10.10
   3 -11   3   -5.70   26.60
  -3 -11  -3    4.30   11.00
   3 -11   3   -0.10   20.40
   5 -11   3  -11.70   15.70
  -5 -11  -3    5.70   10.90
   5 -11   3   -7.10   13.00
   5 -11   3  -14.30   29.20
   7 -11   3   86.79   24.70
   7 -11   3   70.49   27.20
  -7 -11  -3  107.89   18.20
   7 -11   3   58.59   38.40
  -9 -11  -3   18.80   12.70
   9 -11   3   -2.10   15.20
   9 -11   3   28.60   29.90
   9 -11   3   10.60   18.30
 -11 -11  -3    9.70   12.40
  11 -11   3   18.90   20.20
  11 -11   3    8.40   35.60
  11 -11   3   13.80   17.60
  11  11   3   19.40   13.20
  13 -11   3   -1.40   33.90
  13 -11   3   -1.30   19.10
  13 -11   3   33.40   20.60
 -13 -11  -3    1.20   13.20
  13  11   3    9.30   12.70
 -12 -12   3   29.30   16.20
  12 -12  -3  -27.80   17.00
  12 -12  -3   -3.40   17.00
  10 -12  -3   13.80   17.00
 -10 -12   3   26.20   16.00
  10 -12  -3   22.30   24.20
   8 -12  -3   59.29   28.60
   8 -12  -3   29.90   17.80
  -8 -12   3   33.50   16.70
  -6 -12   3   -3.30   13.50
   6 -12  -3    8.50   14.00
   6 -12  -3   -5.30   22.70
   4 -12  -3   -8.70   11.30
   4 -12  -3   20.20   26.70
  -4 -12   3   16.30   14.40
  -2 -12   3   73.39   21.10
   2 -12  -3   33.40   15.80
   2 -12  -3   23.70   24.40
   0 -12  -3   -2.90   11.90
   0 -12  -3   13.80   28.40
   2 -12   3   12.00   16.80
  -2 -12  -3    4.30   11.90
   2 -12   3   33.70   23.70
  -4 -12  -3   14.80   12.30
   4 -12   3   23.70   34.70
   4 -12   3   -1.70   14.00
   4 -12   3  -11.70   20.90
   6 -12   3   70.39   21.20
  -6 -12  -3   69.69   17.00
   6 -12   3   56.09   27.60
   6 -12   3   86.99   40.00
   8 -12   3    4.20   20.30
  -8 -12  -3   31.20   14.40
   8 -12   3  -15.80   16.70
   8 -12   3   11.50   32.70
  10 -12   3    8.00   20.80
 -10 -12  -3    9.30   13.20
  10 -12   3   17.30   19.40
  10 -12   3   10.40   39.20
   9 -13  -3    8.30   17.10
  -9 -13   3   10.90   15.70
   9 -13  -3    0.60   20.90
  -7 -13   3   21.60   17.60
   7 -13  -3  -10.50   12.50
   7 -13  -3   11.50   23.00
  -5 -13   3   21.20   15.70
   5 -13  -3   23.50   25.40
   5 -13  -3  -14.10   11.70
   3 -13  -3   -2.30   11.70
   3 -13  -3  -17.30   22.40
  -3 -13   3  -12.60   14.00
   1 -13  -3    8.90   12.70
   1 -13  -3  -12.40   23.60
  -1 -13   3  -16.00   13.00
   1 -13   3   -6.60   20.10
  -1 -13  -3   18.20   31.40
  -1 -13  -3   19.40   13.70
   1 -13   3   16.10   15.30
  -3 -13  -3   11.40   12.90
   3 -13   3    4.10   22.50
   3 -13   3   11.10   16.50
   5 -13   3  -20.20   13.30
   5 -13   3   -4.30   38.40
  -5 -13  -3    4.20   12.40
  26   0  -4   53.69   43.20
  24   0  -4   75.19   40.50
 -24   0   4  118.29   28.30
  22   0  -4  449.95   61.79
 -22   0   4  387.56   48.90
 -22   0   4  424.96   41.10
  20   0  -4  464.15   57.89
  20   0  -4  444.96   42.00
 -20   0   4  478.55   40.90
 -20   0   4  433.56   46.40
 -18   0   4  597.84   43.30
 -18   0   4  534.65   48.30
  18   0  -4  549.74   40.60
  18   0  -4  614.64   58.79
  16   0  -4   86.29   28.20
 -16   0   4  135.69   26.90
  16   0  -4  172.38   21.50
 -16   0   4  166.78   22.30
  14   0  -4   33.60   18.20
 -14   0   4   25.30   11.50
  14   0  -4   22.30   10.70
 -14   0   4    2.10   12.10
  12   0  -4 1492.85   85.49
  12   0  -4 1603.14   73.89
 -12   0   4 1560.14   81.49
 -12   0   4 1640.24   75.49
 -10   0   4  446.76   28.50
  10   0  -4  465.15   37.00
 -10   0   4  414.96   33.30
  -8   0   4  739.23   43.00
   8   0  -4  643.24   36.20
   8   0  -4  737.53   44.60
  -8   0   4  799.82   38.10
   6   0  -4  409.66   24.60
   6   0  -4  467.75   31.30
  -6   0   4  508.35   26.00
  -6   0   4  440.16   30.20
   4   0  -4   18.70    9.60
  -4   0   4   18.00    6.40
   4   0  -4   18.50    6.20
  -4   0   4    8.00    8.30
  -2   0   4 1927.41   80.69
   2   0  -4 1990.50   77.79
  -2   0   4 1909.51   77.69
   2   0  -4 2001.60   80.89
   0   0  -4  602.44   25.70
   0   0   4  599.84   25.70
   0   0   4  618.74   28.00
   0   0  -4  558.84   27.40
  -2   0  -4 1142.89   52.99
   4   0   4 9508.35  372.86
  -4   0  -4 9454.05  371.16
   6   0   4  100.99   19.50
   6   0   4  134.19   13.60
  -6   0  -4  127.79   18.20
  -8   0  -4  327.47   27.00
   8   0   4  251.57   30.80
   8   0   4  301.47   21.80
  10   0   4   14.10    9.20
 -10   0  -4   19.50   13.40
  10   0   4   32.70   18.00
  12   0   4  233.88   22.00
  12   0   4  171.28   32.70
  14   0   4  174.68   22.00
 -14   0  -4  185.98   27.20
  16   0   4  114.99   22.00
  16   0   4  226.38   45.00
 -16   0  -4  185.28   31.70
  18   0   4  113.89   23.60
 -18   0  -4   93.49   26.30
  18   0   4   81.39   34.70
  20   0   4   92.39   39.40
 -20   0  -4   99.99   28.00
 -22   0  -4   54.39   27.10
  22   0   4   61.49   42.40
  24   0   4  -17.90   40.50
 -25  -1   4   37.40   20.90
  25  -1  -4   26.50   32.00
  25   1  -4  -15.60   34.80
 -23  -1   4   39.00   21.60
  23  -1  -4   29.70   30.30
 -23   1   4   25.30   17.70
 -21  -1   4  -21.70   12.80
 -21  -1   4   -0.10   17.90
  21  -1  -4    9.70   24.10
  21   1  -4  -11.50   26.80
 -21   1   4    9.90   18.50
 -19  -1   4  -38.90    9.70
  19  -1  -4    2.10   12.30
 -19  -1   4    7.40   19.10
  19  -1  -4    3.00   20.30
 -19   1   4   -8.80   15.30
  19   1  -4    6.70   13.50
  19   1  -4  -13.80   21.80
 -19   1   4    9.40   14.40
 -17  -1   4  116.89   29.80
  17  -1  -4   42.00   22.10
  17  -1  -4   42.30   16.30
 -17  -1   4   78.09   18.80
 -17   1   4   22.60   15.70
  17   1  -4   79.59   33.80
  17   1  -4   65.99   17.30
 -17   1   4   57.49   20.10
 -15  -1   4   94.19   18.40
  15  -1  -4   93.59   17.90
 -15  -1   4   99.69   26.40
  15  -1  -4   96.49   27.50
 -15   1   4   75.29   20.80
  15   1  -4   72.39   26.30
  15   1  -4   83.09   16.80
 -15   1   4   63.39   17.60
 -13  -1   4   -7.10    8.60
 -13  -1   4    3.70   12.90
  13  -1  -4   11.10   10.30
  13  -1  -4   -4.20   16.50
 -13   1   4   17.00   12.50
  13   1  -4   32.00   20.10
 -13   1   4    4.60   10.20
  13   1  -4   -4.00    8.30
 -11  -1   4  182.88   26.30
  11  -1  -4  198.78   19.70
 -11  -1   4  204.28   20.80
  11  -1  -4  232.88   27.60
  11   1  -4  226.38   31.60
 -11   1   4  251.37   21.90
  11   1  -4  183.38   19.20
   9  -1  -4   -7.20   10.50
   9  -1  -4    5.20    7.70
  -9  -1   4   16.30   12.90
  -9  -1   4    0.00    7.00
  -9   1   4   -7.90    9.90
   9   1  -4   -0.10   12.50
   9   1  -4    2.60    7.00
  -9   1   4   -0.70    8.00
  -7  -1   4 2499.35  112.09
   7  -1  -4 2479.65  109.79
  -7  -1   4 2465.95  103.99
   7  -1  -4 2551.74  104.49
  -7   1   4 2596.94  109.39
   7   1  -4 2448.06  114.29
  -7   1   4 2570.04  104.89
   7   1  -4 2509.25  103.89
  -5  -1   4 1261.87   62.59
   5  -1  -4 1301.67   56.29
   5  -1  -4 1298.97   61.09
  -5  -1   4 1299.67   56.39
   5   1  -4 1333.27   56.39
   5   1  -4 1413.46   65.29
  -5   1   4 1247.58   60.49
  -5   1   4 1310.37   56.49
  -3  -1   4 1052.09   48.80
   3  -1  -4  989.10   48.10
   3  -1  -4 1032.40   43.30
  -3  -1   4 1028.00   44.40
  -3   1   4 1051.59   43.50
  -3   1   4 1039.40   48.40
   3   1  -4 1032.90   49.30
   3   1  -4 1016.80   44.20
  -1  -1   4  202.08   13.20
  -1  -1   4  208.98   14.20
   1  -1  -4  222.48   10.50
   1  -1  -4  211.68   16.80
   1   1  -4  224.38   13.40
  -1   1   4  207.08   10.60
   1   1  -4  224.58   14.90
  -1   1   4  207.18   17.10
   1  -1   4  218.58   10.60
   1  -1   4  221.98   14.10
  -1   1  -4  191.18   10.60
   1   1   4  220.08   10.20
   3  -1   4 2487.65   97.39
  -3  -1  -4 2392.86  108.89
   3   1   4 2497.95   96.39
  -3   1  -4 2351.56   95.69
   3   1   4 2436.06  110.09
  -5  -1  -4   22.10   13.00
   5  -1   4    3.00    8.60
   5   1   4   -3.90    5.40
  -5   1  -4    4.50    6.60
   5   1   4   20.90   15.50
   7  -1   4   20.10    8.70
   7  -1   4    4.20   10.10
  -7  -1  -4    7.30   12.30
  -7   1  -4    1.10    7.60
   7   1   4   -3.80   16.20
   7   1   4    4.10    6.70
  -9  -1  -4   98.89   21.60
   9  -1   4   60.49   13.40
   9  -1   4   51.39   17.20
   9   1   4   89.19   25.10
  -9   1  -4   66.79   14.20
   9   1   4   94.39   13.80
  11  -1   4   -2.80   14.20
 -11  -1  -4    6.00   13.70
  11  -1   4    4.70    8.80
 -11   1  -4    4.90    9.50
  11   1   4    0.20    8.40
  11   1   4  -24.10   14.60
  13  -1   4   44.20   21.60
  13  -1   4   53.19   15.00
 -13  -1  -4   38.20   19.30
  13   1   4   46.80   25.50
 -13   1  -4   48.20   15.60
  13   1   4   57.29   14.20
  15  -1   4    7.90   23.10
 -15  -1  -4   -1.70   16.60
  15  -1   4   23.20   13.90
  15   1   4   60.39   29.40
 -15   1  -4   13.40   14.10
  15   1   4   -2.20   12.20
  17  -1   4   31.90   16.50
  17  -1   4   42.80   30.30
 -17  -1  -4   53.69   24.30
  17   1   4   -4.70   30.20
 -17   1  -4   73.49   22.20
  19  -1   4   44.70   30.70
 -19  -1  -4   21.40   26.50
 -19   1  -4   14.20   19.10
  19   1   4   26.80   16.60
  19   1   4   -4.00   31.60
  21  -1   4   10.50   33.30
 -21  -1  -4   61.69   26.90
 -21   1  -4   20.90   20.80
  21   1   4   -5.20   37.20
  23  -1   4  -34.80   35.90
 -23   1  -4   56.29   29.80
  23   1   4   22.20   58.89
  26  -2  -4  112.09   46.00
 -26  -2   4   64.49   23.40
  26   2  -4  132.09   55.39
  24  -2  -4   -9.90   25.70
 -24  -2   4  -10.00   15.30
  24   2  -4  -33.10   29.20
  22  -2  -4  350.96   52.99
 -22  -2   4  258.47   36.70
 -22   2   4  270.27   40.80
 -20  -2   4   -7.10   18.20
 -20  -2   4   -3.30   12.40
  20  -2  -4    0.50   21.70
 -20   2   4   16.60   19.30
  20   2  -4    0.50   12.20
 -20   2   4  -23.40   11.80
  20   2  -4   16.60   31.60
  18  -2  -4   38.50   16.50
 -18  -2   4   41.50   16.90
  18  -2  -4   14.10   21.20
 -18   2   4   55.99   20.90
 -18   2   4   25.80   16.00
  18   2  -4   -6.60   26.70
 -16  -2   4 1321.97   82.89
  16  -2  -4 1329.37   70.89
 -16  -2   4 1346.87   70.49
  16  -2  -4 1513.25   84.19
  16   2  -4 1344.97   69.09
 -16   2   4 1334.27   73.09
 -16   2   4 1371.26   76.69
  16   2  -4 1458.75   95.49
 -14  -2   4   11.10   10.80
 -14  -2   4    5.60   12.90
  14  -2  -4  -12.20   12.30
  14  -2  -4   -4.80    7.50
 -14   2   4    0.40   10.20
 -14   2   4   18.70   13.80
  14   2  -4    4.00    8.30
  14   2  -4   20.50   20.50
 -12  -2   4 1069.69   67.99
 -12  -2   4 1163.98   61.59
  12  -2  -4 1060.59   56.99
  12  -2  -4 1192.08   65.39
  12   2  -4 1163.18   56.29
  12   2  -4 1187.98   76.29
 -12   2   4 1035.70   57.89
 -12   2   4 1167.78   62.49
 -10  -2   4    0.60    8.20
 -10  -2   4   23.50   15.10
  10  -2  -4   11.40    8.80
  10  -2  -4   12.40   12.80
 -10   2   4   11.10   11.90
  10   2  -4   18.80   18.90
 -10   2   4   25.10   10.00
  10   2  -4   -0.20   13.90
   8  -2  -4    5.10    7.30
  -8  -2   4   37.50   10.10
  -8  -2   4   25.00   15.70
   8  -2  -4   16.90   11.50
  -8   2   4   25.50   11.40
   8   2  -4    4.90   16.70
  -8   2   4   17.80    9.30
   8   2  -4   15.90    8.00
   6  -2  -4   44.40    9.90
   6  -2  -4   49.20   13.50
  -6  -2   4   68.29   18.00
  -6  -2   4   31.80    8.70
  -6   2   4   38.50    9.40
   6   2  -4   32.20    8.90
   6   2  -4   50.79   20.70
  -6   2   4   38.30   12.70
  -4  -2   4  149.69   20.60
  -4  -2   4  146.99   14.10
   4  -2  -4  140.19   12.90
   4  -2  -4  151.58   18.70
   4   2  -4  177.68   24.70
  -4   2   4  177.98   19.20
  -4   2   4  171.18   13.70
   4   2  -4  178.98   14.30
   2  -2  -4   19.40   11.70
   2  -2  -4   15.50    5.10
  -2  -2   4   19.80    7.60
  -2  -2   4   16.50   11.00
  -2   2   4   10.60    5.40
   2   2  -4   26.30   12.90
  -2   2   4    9.70   10.40
   2   2  -4   17.40    7.00
   0  -2   4 1896.61   76.19
   0  -2   4 1801.02   76.49
   0   2  -4 1824.22   77.89
   0   2  -4 1811.62   75.99
   2  -2   4  146.59    9.00
  -2  -2  -4  135.99   25.70
   2  -2   4  154.98   10.70
   2  -2   4  151.08   14.00
   2   2   4  156.38    7.80
  -4  -2  -4  758.82   32.30
   4  -2   4  704.23   31.20
  -4  -2  -4  701.03   49.20
  -4   2  -4  737.23   30.30
   4   2   4  748.53   51.99
   4   2   4  733.03   31.90
  -6  -2  -4  -11.90   12.90
  -6  -2  -4   15.70    7.20
   6  -2   4    2.00    7.30
  -6   2  -4    0.60    5.30
   6   2   4   -3.90    5.50
   6   2   4   39.00   19.50
  -8  -2  -4 1290.57   56.89
  -8  -2  -4 1234.38   72.69
   8  -2   4 1210.48   60.19
   8  -2   4 1130.99   59.29
   8   2   4 1281.37   78.29
  -8   2  -4 1212.88   55.59
   8   2   4 1291.37   55.89
 -10  -2  -4  321.97   23.50
  10  -2   4  302.77   25.20
 -10  -2  -4  257.97   33.80
  10  -2   4  276.97   27.70
  10   2   4  283.67   40.90
 -10   2  -4  286.57   22.60
  10   2   4  280.47   21.90
  12  -2   4  132.59   25.40
 -12  -2  -4  104.39   26.70
  12  -2   4  132.79   19.60
  12   2   4  110.59   16.30
  12   2   4   82.39   29.30
 -12   2  -4  128.29   17.90
  14  -2   4  570.34   41.20
  14  -2   4  576.04   48.40
 -14  -2  -4  646.74   53.79
 -14  -2  -4  662.03   41.10
 -14   2  -4  639.54   40.80
  14   2   4  488.45   59.99
  14   2   4  571.54   37.50
  16  -2   4   48.90   17.80
 -16  -2  -4   75.99   24.60
  16  -2   4   95.79   29.80
  16   2   4   60.99   17.40
 -16   2  -4   76.29   20.30
  16   2   4  166.38   43.10
  18  -2   4  579.44   57.79
 -18  -2  -4  407.56   54.79
  18   2   4  580.24   70.99
 -18   2  -4  454.55   41.60
  18   2   4  460.45   38.60
 -20  -2  -4   -5.40   20.20
  20  -2   4   32.70   34.00
 -20   2  -4   35.80   20.50
  20   2   4   30.20   43.90
  22  -2   4   64.89   36.50
 -22   2  -4   62.29   25.40
 -25  -3   4    7.80   17.40
  25  -3  -4   62.09   42.60
  25   3  -4   55.99   49.00
 -23  -3   4   31.20   17.50
  23  -3  -4   47.80   30.60
 -23   3   4   11.80   19.70
  23   3  -4  -10.80   28.50
 -21  -3   4   23.70   15.70
  21  -3  -4   29.50   27.30
 -21   3   4   15.60   19.30
  21   3  -4    2.30   42.40
 -19  -3   4    7.00   13.70
  19  -3  -4   66.49   26.80
 -19  -3   4   12.80   19.50
  19   3  -4    6.90   29.70
  19   3  -4   28.60   14.80
 -19   3   4  -12.90   13.10
 -17  -3   4  116.49   20.90
  17  -3  -4   78.59   25.00
  17  -3  -4   65.09   17.60
 -17  -3   4   90.49   31.10
 -17   3   4   95.19   24.00
  17   3  -4  102.09   37.50
  17   3  -4   95.39   18.30
 -15  -3   4   14.00   12.20
  15  -3  -4    8.00   11.00
  15  -3  -4   -1.60   12.70
 -15  -3   4    2.20   15.10
  15   3  -4    4.80   22.20
 -15   3   4   37.00   16.60
  15   3  -4    3.90   10.70
  13  -3  -4  965.80   54.59
 -13  -3   4  953.60   66.89
 -13  -3   4 1052.89   53.99
 -13   3   4 1054.39   57.29
  13   3  -4  980.90   52.39
  13   3  -4 1070.69   76.59
 -13   3   4 1068.99   59.69
  11  -3  -4  180.48   24.10
 -11  -3   4  220.68   20.40
  11  -3  -4  185.68   19.90
 -11  -3   4  163.98   30.90
 -11   3   4  156.08   20.90
  11   3  -4  233.08   40.60
  11   3  -4  170.58   18.30
 -11   3   4  185.38   23.10
   9  -3  -4   63.39   15.80
  -9  -3   4   52.29   12.70
   9  -3  -4   66.99   13.80
  -9  -3   4   53.89   19.90
   9   3  -4   21.50   21.10
  -9   3   4   42.10   13.00
  -9   3   4   33.00   14.40
   9   3  -4   34.50   11.20
   7  -3  -4  428.26   30.80
  -7  -3   4  434.86   25.80
  -7  -3   4  404.06   36.20
   7  -3  -4  373.66   25.70
  -7   3   4  415.76   30.30
   7   3  -4  445.86   40.80
   7   3  -4  447.56   25.70
   5  -3  -4   26.70   11.40
   5  -3  -4   13.50    7.40
  -5  -3   4   15.60   15.00
  -5  -3   4   19.80    7.80
  -5   3   4   45.90   15.80
   5   3  -4    6.70   16.90
   5   3  -4   22.20    8.10
   3  -3  -4  260.97   16.10
  -3  -3   4  234.98   17.50
   3  -3  -4  257.37   23.70
  -3  -3   4  212.88   25.90
   3   3  -4  239.18   17.20
   3   3  -4  264.87   29.10
  -1  -3   4  710.23   40.90
  -1  -3   4  771.62   36.10
   1   3  -4  696.33   35.00
   1   3  -4  698.13   43.40
  -1  -3  -4  243.88   32.80
   1  -3   4  221.48   20.40
   1  -3   4  222.98   17.20
  -1  -3  -4  207.28   10.60
   3  -3   4  495.05   24.70
   3  -3   4  537.05   29.30
  -3  -3  -4  516.25   22.50
   3  -3   4  482.55   28.70
  -3  -3  -4  483.25   43.80
   3   3   4  517.65   22.20
   5  -3   4  201.78   14.20
  -5  -3  -4  227.88   14.20
  -5  -3  -4  210.18   31.70
   5   3   4  252.17   36.40
   5   3   4  226.18   13.50
  -7  -3  -4   17.40    7.20
   7  -3   4   23.00    8.30
  -7  -3  -4    7.70   16.90
   7   3   4   15.70    7.40
   7   3   4   -4.30   19.00
  -7   3  -4   18.80    7.20
  -9  -3  -4   40.70   21.00
   9  -3   4   11.50    9.00
  -9  -3  -4    3.50    6.90
   9  -3   4    9.90   10.00
  -9   3  -4   -0.70    7.10
   9   3   4    3.20    7.10
   9   3   4    6.10   20.00
 -11  -3  -4  475.45   47.20
 -11  -3  -4  499.85   30.80
  11  -3   4  422.06   33.50
  11  -3   4  485.15   34.70
 -11   3  -4  500.55   30.30
  11   3   4  418.06   53.19
  13  -3   4   37.70   14.60
 -13  -3  -4  125.69   19.30
  13  -3   4   98.79   22.70
 -13  -3  -4   63.29   26.50
  13   3   4   45.90   13.20
 -13   3  -4   81.79   16.10
  13   3   4   20.60   26.00
 -15  -3  -4   23.90   21.10
  15  -3   4   22.50   15.50
  15  -3   4    2.20   17.80
 -15  -3  -4   21.60   14.50
  15   3   4   -2.50   12.00
 -15   3  -4    3.40   12.80
  15   3   4   -0.80   31.10
  17  -3   4  108.09   32.50
 -17  -3  -4   66.69   18.50
 -17  -3  -4   40.50   26.60
 -17   3  -4   37.50   16.80
  17   3   4   27.30   14.70
  17   3   4   70.59   41.30
  19  -3   4    9.30   24.70
 -19  -3  -4   48.60   34.00
 -19   3  -4   -0.40   16.30
  19   3   4  -12.10   33.50
  19   3   4   31.20   16.90
  21  -3   4   63.09   35.10
  21   3   4   66.89   49.40
 -21   3  -4   35.90   21.30
  23  -3   4   50.09   38.80
 -23   3  -4   -6.60   20.50
  23   3   4   21.00   49.50
 -24  -4   4   12.60   18.40
  24  -4  -4   21.90   28.00
  24   4  -4  -54.79   31.80
 -22  -4   4  162.08   30.50
  22  -4  -4  171.98   41.30
 -22   4   4  206.08   37.60
  22   4  -4  243.38   59.99
 -20  -4   4   48.10   18.80
  20  -4  -4   -7.30   18.20
  20   4  -4   29.20   15.90
 -20   4   4   -5.90   17.50
 -18  -4   4   72.49   28.50
  18  -4  -4   41.80   23.50
 -18  -4   4   75.79   19.40
  18   4  -4  122.99   44.00
 -18   4   4   84.79   23.90
  18   4  -4   90.59   21.80
 -16  -4   4  348.97   30.90
  16  -4  -4  334.87   31.60
  16  -4  -4  353.56   38.60
 -16  -4   4  267.77   40.30
 -16   4   4  350.56   36.60
  16   4  -4  338.07   54.29
  16   4  -4  329.87   28.70
  14  -4  -4   43.00   15.30
  14  -4  -4   52.69   19.20
 -14  -4   4   64.89   25.60
 -14  -4   4   86.19   16.90
 -14   4   4   67.19   18.90
  14   4  -4   80.19   16.70
  14   4  -4  108.79   37.60
 -12  -4   4  454.55   31.20
 -12  -4   4  479.15   45.60
  12  -4  -4  494.35   34.20
  12   4  -4  435.66   30.30
  12   4  -4  545.75   56.09
 -12   4   4  441.76   36.40
  10  -4  -4  411.16   32.90
 -10  -4   4  369.06   39.40
  10  -4  -4  414.36   29.30
 -10  -4   4  367.86   27.00
  10   4  -4  396.96   26.50
  10   4  -4  404.66   47.30
 -10   4   4  402.26   32.50
  -8  -4   4  234.48   31.50
   8  -4  -4  208.08   24.40
  -8  -4   4  212.88   19.60
   8  -4  -4  226.58   20.30
   8   4  -4  254.27   37.60
  -8   4   4  220.98   24.90
   6  -4  -4  586.54   38.60
  -6  -4   4  562.14   32.00
   6  -4  -4  621.94   33.00
   6   4  -4  575.34   31.90
  -6   4   4  601.54   39.00
   6   4  -4  593.54   49.99
   4  -4  -4  249.97   24.60
  -4  -4   4  192.78   27.30
   4  -4  -4  239.58   17.60
  -4  -4   4  259.07   19.00
   4   4  -4  230.68   17.80
   4   4  -4  261.67   32.70
  -2  -4   4  728.43   36.80
  -2  -4   4  745.13   46.60
   2  -4  -4  738.33   44.40
   2   4  -4  715.33   36.30
   2   4  -4  667.13   48.70
   0  -4   4   -2.90    7.00
   0  -4  -4   -0.10   17.90
   0  -4  -4    3.50    4.40
   0  -4   4    7.00   11.60
   0   4  -4    7.30    6.50
   0   4  -4   -7.30   14.10
   2  -4   4  295.67   21.00
   2  -4   4  267.77   26.00
  -2  -4  -4  260.07   14.10
  -2  -4  -4  257.37   35.60
   2   4   4  267.57   13.80
   4  -4   4  122.99   20.10
  -4  -4  -4  162.08   33.40
  -4  -4  -4  145.69   10.70
   4  -4   4  142.49   14.30
   4   4   4  123.89   33.80
   4   4   4  129.89    9.90
  -6  -4  -4  173.78   13.90
  -6  -4  -4  185.18   35.10
   6  -4   4  189.68   16.00
   6   4   4  193.48   13.80
  -8  -4  -4  143.49   14.70
   8  -4   4  146.49   15.70
  -8  -4  -4  221.58   41.00
   8   4   4  184.18   42.10
   8   4   4  158.48   14.00
  10  -4   4  213.38   23.50
 -10  -4  -4  161.28   36.40
 -10  -4  -4  187.08   17.70
  10  -4   4  193.38   20.10
 -10   4  -4  198.88   18.00
  10   4   4  185.48   16.90
  10   4   4  277.57   45.20
  12  -4   4   17.80   11.60
 -12  -4  -4   35.30   24.90
 -12  -4  -4   58.29   12.80
  12  -4   4   41.10   15.10
 -12   4  -4   57.79   12.80
  12   4   4   32.20   10.70
  12   4   4   50.89   31.20
  14  -4   4  294.47   33.50
 -14  -4  -4  369.36   49.00
 -14  -4  -4  400.36   30.40
  14  -4   4  337.17   32.80
 -14   4  -4  345.77   29.10
  14   4   4  309.87   58.99
  14   4   4  379.46   27.90
  16  -4   4    9.70   19.30
 -16  -4  -4   14.90   24.40
 -16  -4  -4   20.90   14.40
  16   4   4    3.40   31.20
 -16   4  -4   27.00   19.10
  16   4   4   -1.50   11.60
 -18  -4  -4  185.48   27.40
  18  -4   4  206.48   55.39
 -18   4  -4  210.78   30.60
  18   4   4  114.19   50.69
  18   4   4  166.38   24.60
  20  -4   4   27.20   27.20
  20   4   4    1.60   36.00
  20   4   4   -8.20   13.70
 -20   4  -4    7.00   17.80
  22  -4   4   55.49   36.70
 -22   4  -4   70.69   25.40
  22   4   4   -9.20   45.00
 -25  -5   4   -7.80   15.10
  25  -5  -4   33.20   35.00
  25   5  -4    0.80   47.30
  23  -5  -4   75.79   35.50
 -23  -5   4   49.10   20.60
 -23   5   4   23.60   25.90
  23   5  -4  -14.40   35.00
 -21  -5   4    8.00   14.60
  21  -5  -4  -16.50   18.40
  21   5  -4   -3.80   32.40
 -21   5   4    8.70   19.50
 -19  -5   4   37.80   17.20
  19  -5  -4   47.60   23.20
 -19   5   4   61.29   23.40
  19   5  -4   49.50   17.60
  19   5  -4   47.70   41.20
  17  -5  -4  122.79   29.30
 -17  -5   4  133.69   22.60
 -17  -5   4    4.60   21.10
 -17   5   4   92.69   25.20
  17   5  -4   42.10   38.00
  17   5  -4   94.39   19.10
 -15  -5   4   11.40   21.40
  15  -5  -4    9.10   15.40
 -15  -5   4   32.30   14.00
  15  -5  -4   21.30   13.00
 -15   5   4   27.50   18.50
  15   5  -4   25.40   12.90
  15   5  -4   -8.60   22.50
 -13  -5   4  113.99   19.50
 -13  -5   4   93.19   28.00
  13  -5  -4  120.19   25.10
  13  -5  -4  133.99   21.00
  13   5  -4   86.19   16.90
 -13   5   4  113.39   23.00
  13   5  -4   59.29   33.40
  11  -5  -4  267.27   28.70
 -11  -5   4  275.27   23.30
  11  -5  -4  270.17   25.10
 -11  -5   4  228.28   35.80
  11   5  -4  233.68   21.70
  11   5  -4  315.57   46.60
 -11   5   4  240.68   27.40
   9  -5  -4   51.09   17.20
   9  -5  -4   24.90   10.80
  -9  -5   4   55.39   12.90
  -9  -5   4   65.89   23.40
   9   5  -4   54.29   12.70
   9   5  -4   30.00   23.70
  -9   5   4   71.19   19.70
  -7  -5   4   73.99   13.90
  -7  -5   4  109.19   29.10
   7  -5  -4  116.39   21.70
   7  -5  -4   59.09   13.60
   7   5  -4   73.79   27.50
   7   5  -4   58.79   12.30
  -7   5   4   46.50   16.80
  -5  -5   4  134.19   16.50
   5  -5  -4  140.09   23.60
  -5  -5   4  164.28   30.90
   5  -5  -4  101.09   14.60
   5   5  -4  113.29   33.90
  -3  -5   4  280.37   22.20
  -3  -5   4  285.47   33.30
   3  -5  -4  381.46   31.50
   3   5  -4  342.07   38.70
   3   5  -4  311.87   24.70
  -1  -5   4  195.08   26.60
   1  -5  -4  139.69   13.10
  -1  -5   4  154.98   17.60
   1   5  -4  184.48   32.50
   1   5  -4  178.68   20.60
   1  -5   4    8.40   12.00
   1  -5   4    0.30    8.10
  -1  -5  -4    4.20    5.70
  -1  -5  -4   -3.10   17.40
  -3  -5  -4   24.10   21.30
  -3  -5  -4    2.30    5.50
   3  -5   4   11.10   15.50
   3   5   4    7.40    5.30
   5  -5   4  220.18   26.90
   5  -5   4  217.68   19.00
  -5  -5  -4  185.08   13.70
   5  -5   4  191.58   21.20
  -5  -5  -4  214.38   41.60
   5   5   4  245.38   48.60
   5   5   4  199.88   13.70
   7  -5   4   74.09   13.90
  -7  -5  -4  108.89   12.10
  -7  -5  -4  167.68   39.10
   7   5   4   97.99   34.40
   7   5   4  124.99   12.10
  -9  -5  -4  153.18   15.10
  -9  -5  -4   75.69   28.50
   9  -5   4  127.39   16.20
   9   5   4   49.10   29.20
   9   5   4  114.39   13.40
  11  -5   4   14.50   11.30
 -11  -5  -4   15.20   21.80
 -11  -5  -4   33.70   11.00
  11  -5   4   -2.00   13.90
  11   5   4  -22.00   21.70
  11   5   4   -1.80    8.10
 -13  -5  -4  -35.80   16.30
  13  -5   4   18.70   15.50
  13  -5   4   -2.80   13.40
  13   5   4   24.60   33.90
  13   5   4    0.20    9.20
 -13   5  -4   19.50   11.40
 -15  -5  -4   59.29   16.30
 -15  -5  -4   40.90   27.30
  15  -5   4   96.09   23.20
 -15   5  -4   43.80   14.80
  15   5   4   58.59   15.60
  15   5   4   36.40   35.90
  17  -5   4   33.80   20.90
 -17  -5  -4   11.00   13.90
  17   5   4    8.20   11.80
  17   5   4  -15.60   34.70
 -19  -5  -4   32.50   17.20
  19   5   4   20.00   15.80
 -19   5  -4   11.50   15.00
  19   5   4    6.60   39.40
  21  -5   4   15.30   29.90
 -21   5  -4    2.50   16.70
  21   5   4   47.20   51.59
 -24  -6   4   17.40   19.20
  24  -6  -4  -10.30   26.10
  24   6  -4   11.70   46.60
 -22  -6   4   77.69   23.40
  22  -6  -4   70.09   30.50
 -22   6   4   24.10   26.50
  22   6  -4   57.29   48.50
 -20  -6   4  187.58   29.30
  20  -6  -4  114.69   31.30
 -20   6   4  176.68   36.70
  20   6  -4  103.09   47.10
  18  -6  -4  210.68   37.50
 -18  -6   4  210.68   27.80
  18   6  -4  161.78   53.09
  18   6  -4  156.38   25.40
 -18   6   4  175.98   33.10
 -16  -6   4  162.68   22.80
  16  -6  -4  187.38   32.20
  16   6  -4   85.29   19.10
 -16   6   4   82.89   24.80
  16   6  -4  142.89   50.09
 -14  -6   4   11.40   22.30
  14  -6  -4   19.60   13.80
  14  -6  -4    6.00   16.50
 -14  -6   4   19.00   13.40
  14   6  -4   23.30   28.50
 -14   6   4    8.40   16.10
  14   6  -4   15.00   12.30
 -12  -6   4  307.07   42.40
  12  -6  -4  259.67   26.70
 -12  -6   4  256.17   25.00
  12  -6  -4  250.57   30.90
 -12   6   4  242.48   30.40
  12   6  -4  392.16   65.19
  12   6  -4  276.47   24.60
  10  -6  -4   57.99   18.10
 -10  -6   4   50.39   13.10
 -10  -6   4   57.89   23.50
  10  -6  -4   63.09   16.00
 -10   6   4   75.99   21.10
  10   6  -4   59.59   33.80
  10   6  -4   78.29   14.50
  -8  -6   4  113.29   31.50
  -8  -6   4   76.69   14.90
   8  -6  -4  127.79   25.00
   8  -6  -4   70.29   16.20
   8   6  -4   80.59   14.20
   8   6  -4   31.20   25.00
  -6  -6   4  582.64   38.40
   6  -6  -4  603.54   43.30
   6  -6  -4  560.04   34.40
  -6  -6   4  592.84   50.89
   6   6  -4  542.45   55.89
   6   6  -4  551.04   33.10
   4  -6  -4   45.40   17.70
  -4  -6   4   56.79   22.10
  -4  -6   4   41.80   12.10
   4   6  -4   15.90    9.30
   2  -6  -4   84.89   21.90
   2  -6  -4   90.19   12.10
  -2  -6   4   76.29   23.50
  -2  -6   4   96.89   18.80
   2   6  -4   60.59   12.70
   2   6  -4   75.79   26.70
   0  -6   4   46.20   13.80
   0  -6   4   37.20   18.30
   0  -6  -4    4.10   20.40
   0  -6  -4   44.90    9.70
  -2  -6  -4  319.47   45.50
   2  -6   4  393.06   28.00
   2  -6   4  354.36   36.30
  -2  -6  -4  350.66   20.70
   4  -6   4  498.35   32.80
   4  -6   4  506.65   33.10
   4  -6   4  460.85   40.20
  -4  -6  -4  475.55   24.70
  -4  -6  -4  428.96   50.69
   4   6   4  451.65   24.20
  -6  -6  -4   19.50    7.20
   6  -6   4   27.70   14.20
   6  -6   4   22.20   17.90
   6  -6   4   17.90   11.30
  -6  -6  -4   14.80   21.10
   6   6   4   36.70    7.90
   8  -6   4  220.28   21.40
  -8  -6  -4  221.98   45.60
  -8  -6  -4  222.28   17.70
   8   6   4  235.68   17.00
   8   6   4  205.68   47.40
 -10  -6  -4  417.66   26.10
  10  -6   4  377.86   28.50
  10   6   4  262.57   58.89
  10   6   4  385.36   25.10
 -12  -6  -4   85.99   31.70
  12  -6   4  120.39   20.20
  12  -6   4  135.99   26.60
 -12  -6  -4  138.59   18.30
  12   6   4  111.59   16.70
  12   6   4  190.48   51.79
 -14  -6  -4  196.68   22.70
  14  -6   4  193.38   25.10
  14   6   4  287.47   67.09
  14   6   4  139.09   20.10
  16  -6   4   28.60   19.30
 -16  -6  -4   15.60   13.30
  16   6   4   -7.80   37.00
  16   6   4   -1.10   12.80
  18  -6   4   92.69   27.60
 -18  -6  -4   97.29   21.00
  18   6   4   52.69   17.00
  18   6   4  159.08   62.19
 -20  -6  -4   -7.90   14.40
 -20   6  -4   -7.40   15.20
  20   6   4  -43.60   36.40
  20   6   4   11.30   15.50
 -23  -7   4   28.80   19.60
  23  -7  -4   53.69   31.20
  23   7  -4    0.50   49.50
 -21  -7   4   21.60   16.80
  21  -7  -4   53.59   27.20
 -21   7   4   42.50   29.20
  21   7  -4  -12.10   42.50
 -19  -7   4   50.49   19.00
  19  -7  -4   71.89   25.40
  19   7  -4   32.40   42.80
 -19   7   4   59.79   27.90
 -17  -7   4   43.50   17.80
  17  -7  -4   49.20   23.40
  17   7  -4   17.10   15.40
  17   7  -4   32.20   35.80
 -17   7   4   24.90   20.10
  15  -7  -4   26.30   19.50
 -15  -7   4   25.70   14.20
  15   7  -4    6.50   12.90
 -15   7   4   -6.80   14.90
  15   7  -4   -3.80   36.30
  13  -7  -4   32.00   18.10
 -13  -7   4   10.90   19.90
  13  -7  -4    0.40   11.90
 -13  -7   4    8.50   13.70
 -13   7   4   47.80   18.70
  13   7  -4   11.60   34.80
  13   7  -4   26.10   12.10
 -11  -7   4  595.64   60.39
 -11  -7   4  626.24   40.20
  11  -7  -4  708.23   50.39
  11  -7  -4  610.84   42.20
  11   7  -4  704.43   74.59
  11   7  -4  647.64   39.70
  -9  -7   4   58.69   14.90
   9  -7  -4  130.99   26.20
   9  -7  -4   97.69   18.70
  -9  -7   4  134.89   36.60
   9   7  -4  120.79   16.60
   9   7  -4  119.29   39.90
  -7  -7   4   37.90   23.20
   7  -7  -4   47.40   18.90
   7  -7  -4   50.49   14.20
  -7  -7   4   47.90   13.80
   7   7  -4   30.40   11.00
   7   7  -4   51.59   30.70
  -5  -7   4 1002.30   52.39
   5  -7  -4 1072.39   63.99
  -5  -7   4  974.50   71.59
   5   7  -4 1035.50   80.49
   5   7  -4  926.61   50.19
   3  -7  -4  266.47   21.20
   3  -7  -4  296.07   45.00
  -3  -7   4  296.27   24.00
  -3  -7   4  253.87   36.90
   3  -7  -4  234.18   31.70
   3   7  -4  244.18   22.30
   3   7  -4  266.07   42.40
   1  -7  -4   -3.50    6.00
  -1  -7   4  -15.90    8.50
  -1  -7   4   -8.20   15.00
   1  -7  -4    8.90   22.70
   1  -7   4   -1.20   14.80
  -1  -7  -4   15.90   21.50
   1  -7   4   13.90   10.70
  -1  -7  -4    3.30    7.40
   3  -7   4  245.98   23.60
   3  -7   4  195.68   38.80
  -3  -7  -4  163.58   15.00
  -3  -7  -4  156.48   40.00
   5  -7   4   18.20   12.90
   5  -7   4   10.20   12.90
  -5  -7  -4   75.89   31.30
   5  -7   4   36.50   20.80
  -5  -7  -4   35.50    8.60
   5   7   4   17.80    7.10
   7  -7   4   32.80   20.90
   7  -7   4   23.60   14.20
  -7  -7  -4   11.60   30.20
  -7  -7  -4    2.50    7.20
   7  -7   4   -1.00   11.50
   7   7   4   16.80    7.50
  -9  -7  -4   60.29   32.50
   9  -7   4   37.00   14.50
  -9  -7  -4   49.20   11.20
   9  -7   4   21.60   21.00
   9   7   4   83.49   39.30
   9   7   4   64.69   12.20
  11  -7   4    0.80   12.40
 -11  -7  -4   18.50   10.50
 -11  -7  -4   10.50   24.30
  11   7   4    2.70   11.30
  11   7   4   -7.10   31.90
  13  -7   4   29.10   15.30
 -13  -7  -4   39.60   14.70
  13   7   4    6.70   41.20
  13   7   4   27.00   11.80
  15  -7   4  101.29   22.10
 -15  -7  -4   80.29   17.60
  15   7   4    7.40   40.40
  15   7   4   78.49   16.80
  17  -7   4    8.50   18.90
 -17  -7  -4   -1.30   12.60
  17   7   4   -4.50   41.30
  17   7   4   -0.10   12.80
  19  -7   4  111.69   29.40
 -19  -7  -4   86.59   20.90
  19   7   4  -20.60   45.00
 -22  -8   4    4.30   16.00
  22  -8  -4   12.90   24.10
  22   8  -4   -0.80   49.99
 -20  -8   4   51.89   22.20
  20  -8  -4   92.99   29.10
 -20   8   4   77.19   33.60
  20   8  -4   88.49   57.39
 -18  -8   4   32.20   16.10
  18  -8  -4   25.70   21.90
  18   8  -4  -12.30   15.20
  18   8  -4   52.19   51.79
 -16  -8   4  410.96   35.20
  16  -8  -4  418.96   43.50
  16   8  -4  416.86   35.40
  16   8  -4  296.97   67.29
 -14  -8   4   18.30   14.10
  14  -8  -4   11.10   16.70
  14   8  -4   -5.40   11.60
  14   8  -4   21.90   41.50
  12  -8  -4   25.00   14.30
  12  -8  -4   76.19   24.30
 -12  -8   4   33.60   15.10
  12   8  -4   28.70   13.70
  12   8  -4   19.50   32.70
  10  -8  -4  173.58   30.60
 -10  -8   4  100.89   19.20
  10  -8  -4  162.08   24.60
 -10  -8   4  121.59   36.50
  10   8  -4  140.69   20.90
  10   8  -4  113.79   46.00
  -8  -8   4   16.10   11.40
   8  -8  -4   -0.20   11.90
   8  -8  -4    4.10   14.20
   8   8  -4   13.10   11.10
   8   8  -4   15.80   31.70
  -6  -8   4   59.99   15.90
   6  -8  -4   41.00   18.60
  -6  -8   4   62.69   27.50
   6  -8  -4   50.99   15.10
   6   8  -4   68.39   32.70
   6   8  -4   67.19   14.30
   4  -8  -4   -6.70    8.10
  -4  -8   4    0.10    9.60
  -4  -8   4    3.90   19.30
   4  -8  -4   -8.10   20.50
   4  -8  -4   32.00   19.10
   4   8  -4    4.80    9.40
   4   8  -4   -0.70   24.00
   2  -8  -4   30.30   10.30
   2  -8  -4   17.30   26.60
   2  -8  -4   48.70   23.00
  -2  -8   4   69.19   16.50
  -2  -8   4   40.40   24.60
   0  -8   4  243.08   37.50
   0  -8  -4  190.78   44.50
   0  -8  -4  270.77   21.30
   0  -8   4  281.77   26.50
  -2  -8  -4  140.89   15.70
  -2  -8  -4  141.79   42.10
   2  -8   4  123.19   21.10
   2  -8   4  188.48   37.50
   4  -8   4  193.18   33.50
  -4  -8  -4  155.98   48.30
  -4  -8  -4  122.29   14.70
   4  -8   4  183.38   24.20
   4  -8   4  121.49   30.00
  -6  -8  -4   41.10    9.90
   6  -8   4   23.20   15.00
   6  -8   4   25.70   15.00
   6  -8   4    3.50   21.50
  -6  -8  -4   -5.80   20.10
   6   8   4   20.20    8.50
   8  -8   4  520.65   39.90
  -8  -8  -4  497.85   30.00
   8  -8   4  378.86   51.89
   8  -8   4  536.15   38.00
  -8  -8  -4  448.86   61.89
   8   8   4  476.85   29.70
  10  -8   4  179.18   24.20
  10  -8   4  220.58   30.20
 -10  -8  -4  214.28   20.10
  12  -8   4  119.99   50.09
  12  -8   4  143.09   23.60
  12   8   4  171.38   59.79
  12   8   4  121.19   17.70
  14  -8   4   45.90   16.90
 -14  -8  -4   67.99   16.70
  14   8   4   39.70   13.10
  14   8   4  137.39   57.99
  16  -8   4   13.00   17.00
 -16  -8  -4   12.90   12.90
  16   8   4   33.40   43.80
  16   8   4   -0.90   12.80
 -18  -8  -4   51.39   18.60
  18  -8   4   41.90   23.30
  18   8   4   21.40   16.90
  18   8   4   60.09   54.39
  19  -9  -4    5.00   23.30
 -19  -9   4   -7.60   14.90
  19   9  -4  -25.90   39.60
  17  -9  -4   51.49   25.50
 -17  -9   4   98.59   22.10
  17   9  -4   59.59   46.70
  15  -9  -4   13.70   17.30
 -15  -9   4   11.40   14.90
  15   9  -4   14.80   13.80
  15   9  -4   24.20   45.80
 -13  -9   4   89.39   20.50
  13  -9  -4  166.28   33.80
  13   9  -4  181.48   59.69
  13   9  -4   75.79   22.00
 -11  -9   4   70.59   18.20
  11  -9  -4   57.69   18.00
  11  -9  -4   57.99   23.20
  11   9  -4   26.20   41.40
  11   9  -4   77.69   17.80
   9  -9  -4   19.90   15.40
   9  -9  -4   39.20   21.60
  -9  -9   4  -15.30   19.90
  -9  -9   4   50.49   16.70
   9   9  -4    6.70   34.40
   9   9  -4   47.70   14.90
   7  -9  -4  849.61   53.09
   7  -9  -4  978.30   53.59
  -7  -9   4  900.91   52.79
  -7  -9   4  963.20   79.59
   7  -9  -4  868.91   64.29
   7   9  -4 1127.99   96.59
   7   9  -4  865.81   51.39
  -5  -9   4   -2.60   36.90
   5  -9  -4   13.90   19.30
  -5  -9   4   38.30   15.00
   5  -9  -4   12.40   12.40
   5  -9  -4   44.70   29.80
   5   9  -4   10.40   12.50
   5   9  -4   36.40   34.50
  -3  -9   4  105.09   34.00
  -3  -9   4  111.99   20.80
   3  -9  -4   64.09   15.70
   3  -9  -4  118.99   29.00
   3  -9  -4   96.19   41.70
  -1  -9   4  147.89   39.60
   1  -9  -4  150.28   18.80
  -1  -9   4  167.68   24.00
   1  -9  -4  190.08   50.89
  -1  -9  -4  -12.00   23.20
  -1  -9  -4   26.50   11.10
   1  -9   4    6.20   22.30
   1  -9   4   18.90   13.80
  -3  -9  -4   38.70   11.10
   3  -9   4   32.40   21.00
   3  -9   4   19.50   23.20
  -3  -9  -4   23.80   27.90
   3  -9   4   15.60   14.40
  -5  -9  -4   73.69   13.20
   5  -9   4  106.39   22.80
   5  -9   4  120.09   26.40
   5  -9   4   92.39   33.50
  -5  -9  -4   44.40   37.20
   7  -9   4   31.30   16.40
   7  -9   4   29.70   26.20
   7  -9   4   15.00   18.50
  -7  -9  -4   42.80   12.20
  -9  -9  -4   49.50   13.00
   9  -9   4   80.29   25.40
   9  -9   4   45.60   27.70
   9  -9   4   59.69   33.80
   9   9   4   68.89   14.10
  11  -9   4   11.60   18.00
  11  -9   4   -2.00   26.60
  11   9   4    4.40    9.90
 -13  -9  -4   11.80   11.70
  13  -9   4   -6.70   26.90
  13  -9   4    2.20   17.90
  13  -9   4  -11.30   18.70
  13   9   4   -0.20   10.40
  15  -9   4   83.59   26.10
  15  -9   4   58.69   33.60
 -15  -9  -4   30.80   15.10
  15  -9   4   60.89   23.10
  15   9   4   66.69   15.50
  15   9   4  -16.60   40.00
  17  -9   4   28.30   40.90
 -17  -9  -4   37.30   17.40
  17  -9   4   33.70   22.50
  17   9   4   19.90   14.00
  17   9   4  -27.70   45.80
  18 -10  -4   43.70   23.50
 -18 -10   4   21.90   17.30
  18  10  -4  -10.10   41.70
 -16 -10   4   60.29   20.00
  16 -10  -4   38.00   23.60
  16  10  -4    9.90   40.50
 -14 -10   4   23.90   16.10
  14 -10  -4   33.90   23.00
  14  10  -4   36.10   44.90
  14  10  -4   34.50   16.70
 -12 -10   4   -5.40   12.80
  12 -10  -4   37.90   21.30
  12  10  -4    3.00   12.70
  12  10  -4  -19.80   29.90
  10 -10  -4   25.80   17.10
 -10 -10   4    4.90   13.50
  10 -10  -4   -1.50   18.00
  10  10  -4   23.90   13.70
  10  10  -4   78.39   45.60
   8 -10  -4   48.00   34.90
  -8 -10   4   52.49   16.40
   8 -10  -4   57.69   17.70
   8 -10  -4   42.00   17.30
   8 -10  -4   35.50   21.50
   8  10  -4    4.80   36.20
   6 -10  -4   -3.10   11.70
  -6 -10   4   31.40   15.90
   6 -10  -4   -1.70   27.00
  -6 -10   4  -18.00   22.70
   6 -10  -4   -5.90   15.60
   4 -10  -4    6.10   20.00
  -4 -10   4   51.49   27.70
  -4 -10   4    9.70   14.20
   4 -10  -4    7.70   11.70
   4 -10  -4   -2.50   26.30
   2 -10  -4   41.80   33.60
   2 -10  -4   57.59   25.80
  -2 -10   4   45.00   16.50
   2 -10  -4   77.09   16.40
  -2 -10   4   14.20   30.70
   0 -10   4  -20.30   22.60
   0 -10  -4   -5.30   27.60
   0 -10  -4   11.60   10.50
   0 -10   4   -3.80   12.00
  -2 -10  -4  -12.10    9.00
   2 -10   4  -14.50   12.60
   2 -10   4   12.40   24.50
   4 -10   4  213.28   44.70
   4 -10   4  203.88   28.50
  -4 -10  -4  220.88   32.20
   4 -10   4  224.18   34.00
   6 -10   4   29.10   21.00
   6 -10   4  -46.90   15.70
  -6 -10  -4  -36.80   13.80
   6 -10   4  -29.60   22.70
   8 -10   4   49.90   20.10
  -8 -10  -4  103.39   25.10
   8 -10   4   41.00   20.40
   8 -10   4   49.80   32.00
  10 -10   4   17.10   16.40
 -10 -10  -4   10.20   13.60
  10 -10   4   32.90   31.40
  10 -10   4   34.70   20.90
  10  10   4   13.60   10.20
  12 -10   4   11.20   17.80
  12 -10   4   -4.10   29.40
 -12 -10  -4    8.50   11.60
  12 -10   4    2.60   15.40
  12  10   4   12.50   11.00
  14 -10   4   39.80   24.50
  14 -10   4   10.40   35.40
  14 -10   4    6.80   19.10
 -14 -10  -4   37.50   16.10
  14  10   4   17.50   12.60
  15  11  -4   85.09   58.19
  13 -11  -4   37.40   20.20
  13 -11  -4   15.70   20.80
 -13 -11   4   50.59   18.10
  13  11  -4   70.59   49.40
 -11 -11   4   82.79   20.00
  11 -11  -4   99.89   23.90
  11 -11  -4   46.40   25.70
  11  11  -4   91.59   21.40
  11  11  -4   96.19   55.59
  -9 -11   4   12.00   14.80
   9 -11  -4    8.00   20.70
   9 -11  -4   -0.60   13.90
   9  11  -4   42.80   16.90
  -7 -11   4    9.50   13.60
   7 -11  -4   11.30   14.50
   7 -11  -4   28.40   15.70
   7 -11  -4   39.10   25.00
   7  11  -4   21.10   17.00
   5 -11  -4   49.70   16.10
   5 -11  -4  171.68   36.90
  -5 -11   4   79.49   19.20
  -3 -11   4    1.90   13.60
   3 -11  -4  -18.40   16.40
   3 -11  -4   -1.90   11.80
  -1 -11   4  173.58   43.90
   1 -11  -4  132.69   20.20
  -1 -11   4  175.38   26.00
   1 -11  -4  120.09   46.70
  -1 -11  -4    0.40   10.90
   1 -11   4   34.40   32.50
   1 -11   4   13.80   14.60
  -3 -11  -4   13.50   11.80
   3 -11   4    9.60   21.90
   5 -11   4   72.19   20.90
   5 -11   4  118.19   29.70
  -5 -11  -4  118.29   17.90
   5 -11   4   92.99   37.00
   7 -11   4   57.19   35.90
   7 -11   4   -2.50   15.50
   7 -11   4    8.80   19.70
  -7 -11  -4    1.70   11.00
   9 -11   4   35.50   21.40
   9 -11   4   28.60   20.70
  -9 -11  -4   56.59   14.80
   9 -11   4   19.30   31.70
  11 -11   4   -0.60   17.60
 -11 -11  -4    2.30   12.20
  11 -11   4  -38.20   28.80
  11 -11   4   39.30   20.80
  13 -11   4   20.20   17.70
 -13 -11  -4   26.80   14.10
  13 -11   4   64.39   38.60
  13 -11   4   41.00   23.00
  13  11   4    8.30   13.00
  12 -12  -4    0.10   15.20
 -12 -12   4  -15.90   16.40
  12 -12  -4   16.90   20.80
 -10 -12   4   10.30   14.00
  10 -12  -4   -3.90   14.00
  10 -12  -4   -5.40   20.00
   8 -12  -4   -6.00   19.90
  -8 -12   4  -14.90   10.20
   8 -12  -4   36.70   17.20
  -6 -12   4   54.19   19.20
   6 -12  -4   92.09   22.50
   6 -12  -4   17.50   24.80
  -4 -12   4    5.60   14.40
   4 -12  -4  -35.90   16.10
   4 -12  -4   11.70   11.20
   2 -12  -4   35.20   14.00
   2 -12  -4   11.60   23.70
   0 -12   4  -15.40   13.20
   0 -12  -4    8.10   11.00
   0 -12  -4   12.30   24.20
   2 -12   4   -3.60   14.00
  -2 -12  -4   -4.20   10.80
   2 -12   4   13.50   23.50
   2 -12   4    2.60   32.90
   4 -12   4    9.40   31.20
   4 -12   4  -15.80   14.10
   4 -12   4   -1.30   22.70
  -4 -12  -4   -2.70   11.10
  -6 -12  -4   -4.00   11.30
   6 -12   4    7.20   31.00
   6 -12   4  -24.30   16.00
   6 -12   4  -15.80   13.50
  -8 -12  -4    2.00   12.40
   8 -12   4   16.10   19.70
   8 -12   4   -4.20   16.20
   8 -12   4  -11.70   38.80
 -10 -12  -4   21.00   13.30
  10 -12   4   35.90   22.10
  10 -12   4    9.30   37.80
  10 -12   4   -7.30   16.70
   9 -13  -4   -8.70   14.10
  -9 -13   4   11.60   16.40
   9 -13  -4   29.20   27.10
   7 -13  -4  -11.70   20.10
   7 -13  -4   -5.70   12.50
  -7 -13   4   29.50   19.00
   5 -13  -4   26.20   25.70
  -5 -13   4   48.50   19.40
   3 -13  -4   -2.80   12.20
  -3 -13   4   31.40   16.40
   3 -13  -4   24.70   25.40
   1 -13  -4    7.50   12.90
   1 -13  -4   35.50   28.30
  -1 -13   4   -7.20   14.30
   1 -13   4  -12.10   14.20
  -1 -13  -4    7.60   12.30
  -1 -13  -4   48.40   33.60
   1 -13   4  -21.80   21.20
   3 -13   4   21.80   18.10
  -3 -13  -4   -4.80   11.60
   3 -13   4   -3.90   24.80
   5 -13   4  -16.60   21.10
   5 -13   4   35.60   20.00
  -5 -13  -4   56.79   17.00
  26   0  -5   44.10   37.90
 -26   0   5   -8.40   19.00
  24   0  -5    4.90   30.10
 -24   0   5   17.00   18.30
 -22   0   5   12.60   17.90
  22   0  -5   45.30   32.50
 -22   0   5   35.90   27.30
 -20   0   5   36.60   21.80
 -20   0   5   -2.40   14.00
  20   0  -5    5.80   14.40
  20   0  -5  -23.30   19.70
  18   0  -5   40.60   26.60
 -18   0   5   16.90   18.10
 -18   0   5    6.80   12.80
  18   0  -5   17.60   12.90
 -16   0   5   25.10   16.00
  16   0  -5   -6.20    8.80
  16   0  -5    2.50   17.60
 -16   0   5   14.50   12.00
  14   0  -5   -2.10    9.40
 -14   0   5   -2.20   11.50
 -14   0   5   -3.10    8.50
  14   0  -5   -3.60   15.50
  12   0  -5   11.00    9.50
 -12   0   5    0.90    9.90
  12   0  -5    4.90   13.50
 -12   0   5   -2.90   10.30
 -10   0   5   17.50   13.30
  10   0  -5    3.60   12.50
 -10   0   5   -2.40    8.10
   8   0  -5   11.40    7.50
   8   0  -5   -2.20   11.40
  -8   0   5    8.10   11.50
  -8   0   5    9.30    7.40
  -6   0   5    6.30   10.20
   6   0  -5   -2.50   10.00
   6   0  -5  -11.30    6.10
  -6   0   5   -0.20    6.70
  -4   0   5    2.90    8.00
   4   0  -5   -2.90    5.40
   4   0  -5   -0.60   10.00
  -4   0   5   -1.50    5.50
  -2   0   5   -1.00    4.70
   2   0  -5    1.00    4.60
  -2   0   5   -8.30    6.70
   2   0  -5   -3.00    6.90
   0   0   5    2.40    7.00
   0   0  -5   10.80    7.00
   0   0  -5    5.90    4.80
   0   0   5    7.80    4.90
  -2   0  -5   31.20   13.40
   4   0   5  -11.60   11.20
  -4   0  -5    3.30   10.40
   6   0   5   -9.80    5.60
   6   0   5  -24.30   11.20
  -6   0  -5   -7.20    9.70
  -8   0  -5  -11.40    9.90
   8   0   5   37.30   16.40
   8   0   5   -4.70    7.00
 -10   0  -5   17.00   12.30
  10   0   5   -0.60    7.80
  10   0   5    0.90   14.80
  12   0   5    7.70   10.10
  12   0   5    9.70   17.90
 -14   0  -5   22.00   15.10
  14   0   5   -1.90   10.10
  16   0   5   25.10   29.70
 -16   0  -5   -5.00   16.20
  16   0   5    1.10   13.50
 -18   0  -5   -1.60   17.90
  18   0   5    1.50   27.50
  18   0   5   14.80   16.70
  20   0   5   -0.20   32.60
 -20   0  -5   10.20   19.40
  22   0   5   11.90   40.80
 -22   0  -5   -0.30   23.60
 -27  -1   5    5.70   19.10
  27  -1  -5   30.10   39.30
  27   1  -5   -6.00   38.40
 -25  -1   5  106.19   29.30
  25  -1  -5   19.90   35.50
 -25   1   5   71.79   23.80
  25   1  -5  100.89   45.80
 -23  -1   5   -6.00   14.10
  23  -1  -5   32.20   30.90
  23   1  -5  -26.20   32.10
 -23   1   5   -4.30   14.50
 -21  -1   5   16.50   16.50
 -21  -1   5   26.80   22.80
  21  -1  -5   -8.90   23.30
  21   1  -5   25.90   29.00
 -21   1   5   52.19   31.40
 -21   1   5   20.70   20.70
 -19  -1   5   -5.00   12.20
 -19  -1   5   -5.20   16.30
  19  -1  -5   -9.60    9.80
  19  -1  -5    7.60   21.90
  19   1  -5   29.30   29.60
  19   1  -5   -7.50   11.20
 -19   1   5   16.10   15.70
 -19   1   5    5.80   15.60
  17  -1  -5  101.19   20.20
  17  -1  -5  101.29   29.50
 -17  -1   5  110.99   20.80
 -17  -1   5  118.39   31.40
  17   1  -5   69.49   29.10
 -17   1   5  138.99   30.10
  17   1  -5   87.29   17.90
 -17   1   5  119.59   23.00
 -15  -1   5  392.86   38.80
  15  -1  -5  461.95   42.70
  15  -1  -5  337.37   29.30
 -15  -1   5  354.86   30.10
  15   1  -5  361.96   43.10
 -15   1   5  389.26   31.20
  15   1  -5  406.16   29.80
 -15   1   5  336.47   34.30
 -13  -1   5 1009.80   54.69
  13  -1  -5 1124.59   73.69
  13  -1  -5 1013.30   54.69
 -13  -1   5 1073.49   64.79
 -13   1   5 1096.59   56.49
  13   1  -5 1056.79   54.29
 -13   1   5 1050.09   61.29
  13   1  -5 1042.30   69.19
  11  -1  -5  862.21   54.19
  11  -1  -5  859.41   45.80
 -11  -1   5  872.11   46.10
 -11  -1   5  940.71   55.39
  11   1  -5  858.71   58.19
 -11   1   5  773.52   45.70
  11   1  -5  941.21   46.20
 -11   1   5  848.82   51.59
   9  -1  -5 2685.73  115.49
  -9  -1   5 2697.83  124.49
   9  -1  -5 2809.52  123.49
  -9  -1   5 2714.33  115.49
   9   1  -5 2836.82  115.59
  -9   1   5 2726.33  116.09
   9   1  -5 2859.31  128.99
  -9   1   5 2766.92  121.89
  -7  -1   5   23.00   12.40
  -7  -1   5   19.70    8.30
   7  -1  -5   37.00   14.90
   7  -1  -5   23.20    8.30
   7   1  -5    4.70   12.70
   7   1  -5   25.40    9.20
  -7   1   5   42.00   10.10
  -7   1   5   29.40   11.90
   5  -1  -5 6028.10  239.38
   5  -1  -5 5925.51  233.38
  -5  -1   5 5862.21  234.08
  -5  -1   5 6072.59  240.48
  -5   1   5 6039.70  233.88
   5   1  -5 6066.09  241.78
   5   1  -5 5947.90  233.98
  -5   1   5 5883.51  238.98
  -3  -1   5   63.89    9.30
   3  -1  -5   77.29   14.80
   3  -1  -5   60.09    8.40
  -3  -1   5   65.89   12.60
  -3   1   5   71.59   14.70
   3   1  -5   66.99    9.70
   3   1  -5   76.99   14.50
  -3   1   5   50.29    7.90
   1  -1  -5 2607.24  106.59
   1  -1  -5 2541.25   99.59
  -1  -1   5 2570.14  102.49
  -1  -1   5 2510.45  102.79
   1   1  -5 2576.74  102.39
   1   1  -5 2520.25  103.29
  -1   1   5 2549.65   99.69
  -1   1   5 2620.64  106.89
   1  -1   5 5494.65  212.08
   1  -1   5 5361.16  209.18
  -1   1  -5 5306.77  208.98
   1   1   5 5559.54  208.58
  -3  -1  -5  721.83   44.90
   3   1   5  718.43   31.60
  -3   1  -5  681.53   31.40
   5  -1   5   66.09   13.40
  -5  -1  -5   90.89   20.10
   5   1   5   65.59    9.90
  -5   1  -5   69.79   10.40
   5   1   5   81.39   21.20
  -7  -1  -5  910.31   55.89
   7  -1   5  943.11   48.00
   7  -1   5 1008.40   51.59
   7   1   5  955.00   60.89
   7   1   5  983.70   45.70
  -7   1  -5  961.50   46.70
   9  -1   5   67.39   18.50
   9  -1   5   38.00   11.60
  -9  -1  -5   41.70   17.50
  -9   1  -5   42.50   12.60
   9   1   5   34.90   19.20
   9   1   5   50.99   10.90
 -11  -1  -5  387.16   36.10
  11  -1   5  404.86   29.10
  11  -1   5  401.16   37.40
  11   1   5  350.36   26.70
 -11   1  -5  397.06   29.80
  11   1   5  336.67   42.10
 -13  -1  -5   71.79   22.20
  13  -1   5   96.59   24.90
  13  -1   5   47.10   15.20
  13   1   5   72.29   29.70
  13   1   5   85.19   16.20
 -13   1  -5   52.39   16.50
  15  -1   5   82.99   18.50
  15  -1   5   55.89   27.30
 -15  -1  -5   71.89   23.00
  15   1   5   80.59   17.30
 -15   1  -5   28.00   16.00
  15   1   5   55.59   31.90
  17  -1   5  127.49   24.50
  17  -1   5  204.98   43.30
 -17  -1  -5  201.58   36.30
 -17   1  -5  203.58   30.00
  17   1   5  166.48   46.40
  19  -1   5  -26.90   27.70
 -19  -1  -5   -7.10   22.60
  19   1   5    5.30   14.70
  19   1   5  -12.70   35.00
 -19   1  -5   16.20   18.90
  21  -1   5   38.10   38.80
 -21  -1  -5   39.50   27.70
  21   1   5   22.80   39.80
 -21   1  -5   46.50   25.90
  23  -1   5  -15.40   41.20
 -23   1  -5   30.00   24.60
  26  -2  -5   12.10   33.20
 -26  -2   5   40.90   23.50
  26   2  -5   61.39   47.80
  24  -2  -5    0.00   26.70
 -24  -2   5  -12.90   15.00
  24   2  -5   -5.70   32.40
 -22  -2   5   19.40   15.20
  22  -2  -5   -4.40   23.10
 -22   2   5    9.40   15.70
 -22   2   5    6.00   18.00
  20  -2  -5   61.89   30.50
 -20  -2   5   81.49   31.10
 -20  -2   5   83.29   21.50
  20   2  -5  141.59   44.60
  20   2  -5  103.29   22.30
 -20   2   5   97.89   24.20
 -18  -2   5   10.20   11.70
  18  -2  -5    1.40   18.00
 -18  -2   5    4.00   16.60
  18  -2  -5  -14.40   10.60
 -18   2   5   26.10   17.90
  18   2  -5  -18.90   20.20
 -18   2   5    7.60   13.90
 -16  -2   5  120.49   20.20
 -16  -2   5   95.69   25.90
  16  -2  -5   81.49   18.20
  16  -2  -5   80.39   25.20
 -16   2   5   84.29   22.40
  16   2  -5   72.59   16.60
 -16   2   5  182.18   24.90
  16   2  -5  110.49   36.50
  14  -2  -5  202.48   29.30
  14  -2  -5  295.07   25.40
 -14  -2   5  200.88   22.80
 -14  -2   5  205.88   30.40
 -14   2   5  198.68   23.70
  14   2  -5  173.28   20.50
  14   2  -5  279.67   41.40
 -14   2   5  227.58   27.30
 -12  -2   5  218.98   29.40
 -12  -2   5  270.07   23.00
  12  -2  -5  306.47   30.70
  12  -2  -5  227.78   22.50
  12   2  -5  225.88   35.90
 -12   2   5  229.38   26.90
 -12   2   5  218.58   23.20
  12   2  -5  249.88   21.90
 -10  -2   5   13.90   15.20
 -10  -2   5   16.00    9.70
  10  -2  -5   25.30    9.90
  10  -2  -5   17.40   14.10
  10   2  -5   31.10   19.70
 -10   2   5   17.30   12.00
  10   2  -5   15.70    9.70
 -10   2   5    7.20    9.20
   8  -2  -5   19.50    9.10
  -8  -2   5    6.10   11.50
  -8  -2   5    9.00    7.70
   8  -2  -5    7.00   10.70
  -8   2   5   23.00   12.60
  -8   2   5   11.80    7.90
   8   2  -5   30.80   17.70
   8   2  -5   20.00    8.80
  -6  -2   5   75.39   11.80
  -6  -2   5   55.89   16.00
   6  -2  -5   44.70    9.50
   6  -2  -5   46.00   13.40
  -6   2   5   72.59   15.10
   6   2  -5   80.79   19.50
  -6   2   5   56.09   11.30
   6   2  -5   48.30    9.50
   4  -2  -5 2035.90   80.99
   4  -2  -5 1970.10   87.99
  -4  -2   5 1954.30   89.19
  -4  -2   5 1965.10   82.49
  -4   2   5 1961.80   80.89
  -4   2   5 1958.20   87.69
   4   2  -5 2022.80   91.49
   4   2  -5 1914.41   82.09
  -2  -2   5  289.57   22.50
  -2  -2   5  338.37   20.00
   2  -2  -5  316.27   15.60
   2  -2  -5  310.67   24.80
   2   2  -5  307.27   19.10
  -2   2   5  317.27   25.00
   2   2  -5  324.97   25.30
  -2   2   5  287.17   15.80
   0  -2   5   17.40    7.80
   0  -2   5   39.10    8.70
   0   2  -5   25.00    9.80
   0   2  -5   53.29   10.00
   2  -2   5 1533.65   66.39
  -2  -2  -5 1530.85   81.69
   2   2   5 1549.14   60.09
  -4  -2  -5    8.20   15.20
   4   2   5   -0.50    4.30
   4   2   5   40.10   19.80
   6  -2   5   85.69   12.80
  -6  -2  -5  121.19   24.70
   6   2   5   97.69   26.20
   6   2   5   90.39   11.40
  -6   2  -5  124.79   10.20
   8  -2   5  143.49   18.20
   8  -2   5  105.39   16.80
   8   2   5   83.09   27.50
  -8   2  -5  115.79   12.90
   8   2   5   89.89   12.90
  10  -2   5  272.87   27.40
 -10  -2  -5  289.87   34.70
  10  -2   5  252.37   24.30
  10   2   5  270.97   21.10
 -10   2  -5  219.48   20.20
  10   2   5  253.27   39.70
 -12  -2  -5  139.29   30.40
  12  -2   5  119.09   23.40
  12  -2   5  175.98   21.80
 -12   2  -5  116.29   18.30
  12   2   5  169.88   18.90
  12   2   5  100.19   33.00
 -14  -2  -5   23.20   20.20
  14  -2   5   29.70   20.90
  14  -2   5   53.49   16.20
  14   2   5   66.99   33.20
 -14   2  -5   61.39   17.00
  14   2   5   61.69   15.50
 -16  -2  -5   27.50   22.10
  16  -2   5   28.50   16.80
  16  -2   5  -20.30   22.20
 -16   2  -5    0.10   14.80
  16   2   5   16.20   33.50
  16   2   5  -16.50   11.20
  18  -2   5   73.89   32.30
 -18  -2  -5   45.90   25.40
  18   2   5   28.40   16.90
  18   2   5   -1.90   32.00
 -18   2  -5    7.20   16.50
 -20  -2  -5   -4.90   22.80
  20  -2   5   25.90   30.00
 -20   2  -5   27.60   19.70
  20   2   5  -76.39   31.20
  22  -2   5  -18.70   33.90
 -22   2  -5    6.70   21.40
  22   2   5    7.80   49.00
  25  -3  -5  244.38   54.29
 -25  -3   5  180.08   33.50
  25   3  -5  143.59   58.89
  23  -3  -5  -13.50   22.80
 -23  -3   5   19.40   17.20
 -23   3   5   24.50   27.10
  23   3  -5  -41.80   29.10
  21  -3  -5   14.30   24.70
 -21  -3   5   22.30   16.60
  21   3  -5  -48.90   44.80
 -21   3   5   12.80   17.70
 -19  -3   5  250.47   31.20
 -19  -3   5  340.17   45.90
  19  -3  -5  322.47   42.80
  19   3  -5  390.26   58.29
  19   3  -5  329.57   31.30
 -19   3   5  317.47   38.10
 -17  -3   5   37.10   23.90
  17  -3  -5  134.09   30.70
  17  -3  -5   50.79   16.40
 -17  -3   5   45.60   16.20
 -17   3   5   62.29   21.60
  17   3  -5   38.20   14.60
 -17   3   5   67.59   19.00
  17   3  -5   59.39   31.20
 -15  -3   5  257.67   36.40
  15  -3  -5  348.27   36.20
  15  -3  -5  261.37   26.70
 -15  -3   5  296.97   27.70
  15   3  -5  316.67   46.90
  15   3  -5  302.57   26.20
 -15   3   5  346.47   33.40
 -15   3   5  243.98   28.20
  13  -3  -5 1193.08   61.79
  13  -3  -5 1258.97   69.79
 -13  -3   5 1144.79   59.69
 -13  -3   5 1229.38   75.09
  13   3  -5 1138.39   59.09
 -13   3   5 1125.09   65.69
 -13   3   5 1221.78   63.59
  13   3  -5 1303.37   84.69
  11  -3  -5   76.89   15.30
  11  -3  -5   97.19   21.30
 -11  -3   5  100.59   24.40
 -11   3   5  153.08   24.00
 -11   3   5  102.69   19.90
  11   3  -5  115.89   29.00
  11   3  -5   88.09   14.80
   9  -3  -5 2026.40   91.99
   9  -3  -5 1816.82   84.29
  -9  -3   5 1886.11   83.89
  -9  -3   5 1965.50   98.69
   9   3  -5 1846.02  102.49
   9   3  -5 2017.70   87.99
  -9   3   5 1913.21   85.59
  -9   3   5 1765.62   89.19
  -7  -3   5    3.50   11.80
   7  -3  -5    5.10    7.10
   7  -3  -5   -6.10    9.80
  -7  -3   5   -5.10    7.00
   7   3  -5   21.10   16.20
  -7   3   5    9.80   10.60
  -7   3   5    2.00    7.00
   7   3  -5   13.10    7.50
   5  -3  -5   30.50   13.00
   5  -3  -5   37.50    8.70
  -5  -3   5   35.50    9.20
  -5  -3   5   25.80   15.10
   5   3  -5   12.90   15.60
  -5   3   5   13.80   11.50
   5   3  -5   17.10    7.60
   3  -3  -5  989.30   54.09
   3  -3  -5 1020.10   45.20
  -3  -3   5 1105.79   55.99
  -3  -3   5 1112.39   48.70
  -3   3   5 1007.20   54.59
   3   3  -5 1019.20   47.70
   3   3  -5 1050.79   58.19
  -1  -3   5  216.68   21.80
   1  -3  -5  217.48   23.50
  -1  -3   5  234.48   18.10
   1  -3  -5  236.58   12.50
   1   3  -5  234.18   17.00
   1   3  -5  174.08   22.10
   1  -3   5  459.15   27.10
  -1  -3  -5  516.15   44.90
   1  -3   5  476.95   27.30
  -1   3  -5  472.35   30.00
   3  -3   5  363.26   18.10
  -3  -3  -5  350.06   38.40
   3  -3   5  337.87   20.50
  -3  -3  -5  395.16   16.90
   3  -3   5  392.16   24.30
   3   3   5  366.66   16.40
  -5  -3  -5 1244.08   75.99
  -5  -3  -5 1178.18   48.40
   5  -3   5 1109.49   47.20
   5   3   5 1143.79   47.80
   5   3   5 1067.69   73.59
  -7  -3  -5  293.97   37.70
   7  -3   5  309.17   19.50
  -7  -3  -5  286.17   19.10
   7   3   5  270.87   18.20
   7   3   5  307.57   43.80
  -7   3  -5  306.47   17.30
   9  -3   5  212.28   20.70
  -9  -3  -5  205.08   18.40
   9  -3   5  218.28   23.50
  -9  -3  -5  225.98   34.80
  -9   3  -5  239.58   16.80
   9   3   5  198.88   38.20
   9   3   5  208.28   17.30
 -11  -3  -5   55.09   13.00
  11  -3   5   23.00   13.90
 -11  -3  -5   24.90   19.80
  11  -3   5   27.40   14.70
 -11   3  -5   51.59   11.20
  11   3   5   77.49   29.90
 -13  -3  -5  279.67   25.80
  13  -3   5  291.67   28.90
  13  -3   5  268.77   30.80
 -13  -3  -5  284.27   40.90
 -13   3  -5  288.97   25.00
  13   3   5  274.77   23.80
  13   3   5  294.47   54.59
  15  -3   5   66.79   21.50
  15  -3   5  116.29   27.60
 -15  -3  -5   67.29   28.50
  15   3   5  141.69   44.90
 -15   3  -5   93.19   19.40
  15   3   5  122.39   19.70
 -17  -3  -5  356.16   49.60
  17  -3   5  448.06   47.60
 -17   3  -5  395.76   35.80
  17   3   5  540.55   71.49
  17   3   5  435.66   35.30
  19  -3   5  -21.50   24.40
  19   3   5   25.80   17.20
  19   3   5   11.20   40.50
 -19   3  -5   59.19   20.70
  21  -3   5  114.59   40.30
  21   3   5   72.19   47.60
 -21   3  -5   96.19   26.60
 -26  -4   5    0.60   18.20
  26  -4  -5   28.90   31.10
  26   4  -5   32.90   44.80
 -24  -4   5   18.40   17.70
  24  -4  -5  -11.30   23.70
  24   4  -5   14.20   42.80
 -22  -4   5    4.80   15.70
  22  -4  -5   69.99   31.60
 -22   4   5   24.70   20.50
  22   4  -5  -14.10   31.60
 -20  -4   5    0.30   15.30
  20  -4  -5    4.00   22.30
  20   4  -5    2.10   12.70
  18  -4  -5   83.79   27.20
 -18  -4   5   78.79   29.20
 -18  -4   5   94.99   21.20
  18  -4  -5   83.59   27.20
 -18   4   5   66.89   23.30
  18   4  -5  103.19   20.90
  18   4  -5  102.89   42.70
 -16  -4   5  235.68   44.30
 -16  -4   5  290.67   28.30
  16  -4  -5  224.08   37.30
  16  -4  -5  171.48   24.60
  16   4  -5  176.38   47.60
  16   4  -5  196.48   23.40
 -16   4   5  190.98   31.00
 -14  -4   5   16.90   21.10
  14  -4  -5   64.39   21.50
  14  -4  -5   28.20   12.30
 -14  -4   5   55.49   15.40
 -14   4   5   69.09   22.30
  14   4  -5   66.39   15.70
  14   4  -5  102.49   33.30
  12  -4  -5   40.70   17.40
 -12  -4   5   32.90   13.00
  12  -4  -5   51.09   14.00
 -12  -4   5   10.00   16.70
  12   4  -5   62.89   28.10
  12   4  -5   52.99   13.60
 -12   4   5   53.79   17.30
  10  -4  -5  698.63   44.80
 -10  -4   5  634.84   50.49
 -10  -4   5  649.34   50.99
  10  -4  -5  660.43   38.60
  10   4  -5  626.74   57.19
 -10   4   5  629.04   43.00
  10   4  -5  605.54   36.10
   8  -4  -5  381.26   32.50
   8  -4  -5  412.66   27.80
  -8  -4   5  418.96   27.00
  -8  -4   5  379.76   38.70
   8   4  -5  396.66   26.30
  -8   4   5  386.06   36.40
   8   4  -5  438.26   45.80
  -6  -4   5  109.79   14.70
  -6  -4   5  120.79   27.80
   6  -4  -5  101.69   13.80
   6  -4  -5  124.49   20.00
  -6   4   5   99.39   19.50
   6   4  -5  107.09   14.10
   6   4  -5  117.19   29.30
   4  -4  -5 1079.79   59.49
  -4  -4   5 1091.39   52.39
   4  -4  -5 1135.19   50.29
  -4  -4   5 1185.18   64.29
   4   4  -5 1121.59   67.09
   4   4  -5 1080.99   51.69
  -2  -4   5  417.06   26.00
   2  -4  -5  478.95   34.10
  -2  -4   5  387.06   32.80
   2  -4  -5  419.66   22.30
   2   4  -5  435.56   25.50
   2   4  -5  401.56   36.60
   0  -4   5  670.03   39.10
   0  -4   5  614.84   33.40
   0  -4  -5  608.34   26.40
   0   4  -5  514.95   40.20
   0   4  -5  581.94   32.50
   2  -4   5   10.10    8.70
  -2  -4  -5    9.50   20.90
   2  -4   5   13.20   11.40
  -2  -4  -5    2.70    3.30
   4  -4   5  247.08   21.50
  -4  -4  -5  263.07   14.00
   4  -4   5  237.98   17.00
   4  -4   5  280.57   23.10
  -4  -4  -5  280.37   38.40
   4   4   5  248.98   13.50
  -6  -4  -5  798.22   62.39
   6  -4   5  827.72   37.30
  -6  -4  -5  789.62   36.60
   6   4   5  833.72   67.99
   6   4   5  806.22   36.10
  -8  -4  -5   11.60    6.90
   8  -4   5    8.90    7.60
  -8  -4  -5   -7.90   15.40
   8   4   5   14.00    6.40
   8   4   5   -5.20   22.70
 -10  -4  -5   -1.50    7.60
  10  -4   5   17.80   11.00
  10  -4   5   19.40   12.70
 -10  -4  -5  -20.10   16.50
  10   4   5   13.50   23.80
  10   4   5    9.60    7.50
 -10   4  -5   -6.70    7.30
  12  -4   5   76.19   27.30
  12  -4   5   70.49   16.90
 -12  -4  -5   86.49   16.20
 -12  -4  -5   57.29   27.50
 -12   4  -5   73.09   14.00
  12   4   5  134.49   39.10
  12   4   5   77.69   14.10
  14  -4   5   18.10   18.20
  14  -4   5   55.19   18.50
 -14  -4  -5   73.79   17.10
  14   4   5   82.69   37.60
  14   4   5   36.20   13.50
 -14   4  -5   50.09   15.00
  16  -4   5  -14.40   19.10
 -16  -4  -5   -2.90   13.30
 -16  -4  -5   17.20   22.70
  16   4   5   -8.00   11.70
 -16   4  -5    5.50   14.60
  16   4   5  -52.39   24.40
  18  -4   5   28.80   23.70
  18   4   5   22.00   46.60
  18   4   5    3.80   13.70
 -18   4  -5   57.69   18.90
  20  -4   5   14.50   28.70
 -20   4  -5   32.80   19.60
  20   4   5    4.50   15.40
  20   4   5   49.20   46.40
  22  -4   5   19.30   32.00
 -22   4  -5   22.80   21.40
  22   4   5   18.20   49.80
 -25  -5   5  -11.90   16.60
  25  -5  -5   55.39   37.40
  25   5  -5  -20.40   37.80
  23  -5  -5  157.28   37.50
 -23  -5   5  179.08   32.10
  23   5  -5  117.59   50.39
 -21  -5   5   78.69   21.80
  21  -5  -5  112.29   33.50
 -21   5   5   76.49   29.90
  21   5  -5   24.00   36.60
  19  -5  -5   76.09   28.40
 -19  -5   5  102.69   22.40
 -19   5   5   85.99   28.40
  19   5  -5   56.49   44.60
  19   5  -5   74.39   18.80
  17  -5  -5  177.08   34.60
  17  -5  -5   70.59   20.00
 -17  -5   5   27.90   24.10
 -17  -5   5  128.99   23.40
 -17   5   5   63.79   24.80
  17   5  -5   93.29   40.10
  15  -5  -5  363.96   38.00
  15  -5  -5  249.38   28.90
 -15  -5   5  306.17   28.40
 -15  -5   5  383.16   46.60
  15   5  -5  410.86   58.69
 -15   5   5  292.47   35.50
  15   5  -5  303.77   27.70
 -13  -5   5    3.20   15.10
  13  -5  -5   76.29   18.20
 -13  -5   5   80.99   17.00
  13  -5  -5   95.59   22.90
 -13   5   5   66.29   19.60
  13   5  -5   79.09   31.30
  13   5  -5   77.59   15.70
  11  -5  -5  207.58   26.00
 -11  -5   5  160.38   34.20
  11  -5  -5  152.58   20.70
 -11  -5   5  167.08   19.90
  11   5  -5  291.17   54.89
  11   5  -5  197.58   19.80
 -11   5   5  174.68   25.40
  -9  -5   5  113.29   17.90
  -9  -5   5   62.79   23.00
   9  -5  -5   77.89   14.80
   9   5  -5   83.99   14.80
  -9   5   5  116.39   23.50
   9   5  -5   82.79   31.00
  -7  -5   5   -5.40   16.20
   7  -5  -5   -0.70   11.70
  -7  -5   5   25.70   11.00
   7  -5  -5    8.90    8.20
   7   5  -5   15.30    8.90
   7   5  -5   35.30   23.70
  -7   5   5   51.89   18.20
   5  -5  -5  614.44   33.00
  -5  -5   5  579.44   34.00
   5  -5  -5  608.54   41.60
  -5  -5   5  577.34   47.10
   5   5  -5  623.24   52.79
   5   5  -5  560.74   33.30
  -3  -5   5  332.67   34.20
   3  -5  -5  318.37   31.50
  -3  -5   5  331.07   24.00
   3   5  -5  310.07   22.90
   3   5  -5  367.16   40.30
   1  -5  -5  146.79   12.10
  -1  -5   5  159.58   26.50
  -1  -5   5  133.99   17.60
   1   5  -5  120.09   15.50
   1   5  -5  203.78   33.60
   1  -5   5 3860.11  164.98
  -1  -5  -5 3970.10  149.39
   1  -5   5 3813.32  157.38
  -1  -5  -5 3422.26  181.08
  -3  -5  -5  648.84   29.30
  -3  -5  -5  612.64   57.39
   3  -5   5  638.74   42.30
   3  -5   5  694.03   38.70
   5  -5   5  135.59   21.40
  -5  -5  -5  124.29   10.60
   5  -5   5  124.89   18.40
  -5  -5  -5  127.19   31.70
   5  -5   5   96.99   14.30
   5   5   5  124.09   10.20
  -7  -5  -5  154.58   13.60
   7  -5   5  166.18   15.50
  -7  -5  -5  138.99   32.60
   7   5   5  211.68   49.10
   7   5   5  164.28   13.30
   9  -5   5   15.10    9.00
  -9  -5  -5   33.70   10.20
  -9  -5  -5   44.20   26.60
   9   5   5   28.10   30.50
   9   5   5   27.40    8.30
 -11  -5  -5  109.49   16.30
 -11  -5  -5   81.69   29.30
  11  -5   5  136.09   18.20
  11  -5   5  118.19   23.10
  11   5   5  127.59   44.60
  11   5   5  122.79   16.20
 -13  -5  -5    9.80   12.60
  13  -5   5   18.80   15.60
 -13  -5  -5   16.00   25.80
  13  -5   5    4.40   11.90
  13   5   5   11.00    9.80
  13   5   5    9.80   34.00
 -15  -5  -5  -35.70   20.30
 -15  -5  -5    3.10   11.50
  15  -5   5    3.00   15.30
  15   5   5   56.59   47.20
 -15   5  -5    2.70   11.00
  15   5   5    3.00   10.50
 -17  -5  -5  263.87   28.40
  17  -5   5  171.28   31.10
  17   5   5  188.08   24.20
 -17   5  -5  171.98   23.40
  19  -5   5   73.89   28.70
  19   5   5   13.10   14.40
  19   5   5  155.48   60.89
 -21   5  -5   38.00   18.90
  21   5   5  120.79   60.99
 -24  -6   5   44.80   20.10
  24   6  -5   37.50   47.30
  22  -6  -5   27.10   22.10
 -22  -6   5    5.70   15.90
  22   6  -5   -3.90   40.20
 -22   6   5   11.00   26.70
 -20  -6   5  178.08   29.10
  20  -6  -5  151.88   34.20
  20   6  -5  155.08   54.69
 -20   6   5  100.19   31.50
 -18  -6   5    7.70   14.30
  18  -6  -5   -8.10   16.90
  18   6  -5   70.89   38.40
  18   6  -5   -4.60   10.90
 -18   6   5    7.00   18.20
 -16  -6   5  119.99   21.90
  16  -6  -5  137.79   29.10
  16  -6  -5  128.79   26.90
  16   6  -5  120.59   21.40
 -16   6   5  100.99   26.50
  16   6  -5  156.48   49.00
  14  -6  -5  143.09   24.60
 -14  -6   5   92.29   32.30
  14  -6  -5   85.19   25.40
 -14  -6   5  137.49   21.90
 -14   6   5  137.69   27.60
  14   6  -5  123.89   20.80
  14   6  -5   21.20   31.20
  12  -6  -5  147.19   27.30
 -12  -6   5  133.69   19.70
  12  -6  -5  116.99   20.30
 -12  -6   5  139.69   33.60
 -12   6   5  104.39   25.20
  12   6  -5   82.49   33.30
  12   6  -5  130.69   19.00
 -10  -6   5   -4.20    8.30
 -10  -6   5  -22.60   11.20
  10  -6  -5    9.10   12.50
  10  -6  -5   -6.90    7.30
 -10   6   5   -3.10   12.40
  10   6  -5   -8.70    8.00
  10   6  -5    3.30   22.80
   8  -6  -5  207.88   20.70
  -8  -6   5  211.48   21.00
   8  -6  -5  170.48   26.30
  -8  -6   5  215.88   37.90
   8   6  -5  262.67   42.90
   8   6  -5  189.88   19.60
   6  -6  -5   26.40   10.10
  -6  -6   5   14.00    9.80
  -6  -6   5    2.10   14.20
   6  -6  -5   32.10   15.40
   6   6  -5   -2.00   19.10
   6   6  -5    5.50    8.70
   4  -6  -5   16.80   14.00
  -4  -6   5    8.00    9.30
  -4  -6   5    0.50   15.00
   4   6  -5    8.30    7.80
   4   6  -5   -8.40   15.70
   2  -6  -5   49.99   20.80
  -2  -6   5   56.89   25.60
  -2  -6   5   51.99   13.30
   2  -6  -5   53.19   10.80
   2   6  -5   68.39   25.70
   2   6  -5   50.49   11.90
   0  -6   5  515.65   33.00
   0  -6  -5  554.14   55.69
   0  -6   5  454.35   40.70
   0  -6  -5  501.95   26.40
   2  -6   5    9.50   13.30
  -2  -6  -5    4.80    5.30
   2  -6   5   15.50   10.70
  -2  -6  -5   -8.00   19.20
   4  -6   5    2.90   14.50
   4  -6   5   40.50   13.60
  -4  -6  -5   33.00    6.70
  -4  -6  -5   -0.60   18.20
   4  -6   5   16.70    9.70
   4   6   5    2.30    4.80
  -6  -6  -5   52.89    8.90
  -6  -6  -5   56.79   26.10
   6  -6   5   65.29   16.60
   6  -6   5   46.20   12.50
   6  -6   5   57.19   19.20
   6   6   5   61.99    9.30
   8  -6   5   41.50   18.50
   8  -6   5   36.70   11.70
  -8  -6  -5   74.19   30.00
  -8  -6  -5   15.90    7.80
   8   6   5   29.80    8.10
   8   6   5   42.80   32.90
 -10  -6  -5  138.89   15.70
  10  -6   5  105.59   17.00
 -10  -6  -5   70.39   33.30
  10   6   5  131.49   46.10
  10   6   5  105.59   14.70
  12  -6   5   19.00   18.90
 -12  -6  -5   45.10   32.70
  12  -6   5   -2.90   11.50
 -12  -6  -5   20.20   11.40
  12   6   5   22.50   11.70
  12   6   5    9.20   33.90
  14  -6   5  125.39   21.70
 -14  -6  -5   98.89   18.10
  14   6   5   57.19   43.90
  14   6   5  124.89   18.50
  16  -6   5   18.30   18.80
 -16  -6  -5   54.49   16.20
  16   6   5    1.50   13.20
  16   6   5   88.99   50.79
 -18  -6  -5  102.19   22.10
  18  -6   5  101.19   27.20
  18   6   5   31.80   16.40
  18   6   5  100.89   52.99
  20  -6   5  -13.40   24.30
  20   6   5    4.00   14.70
  20   6   5  -45.90   46.00
  23  -7  -5   51.89   34.20
 -23  -7   5    1.80   16.00
  23   7  -5   -2.50   39.70
 -21  -7   5  -13.50   13.70
  21  -7  -5   26.50   24.90
 -21   7   5   -3.20   23.90
  21   7  -5   39.90   42.50
  19  -7  -5   34.10   23.40
 -19  -7   5   42.70   18.10
 -19   7   5   94.49   31.50
  19   7  -5    3.60   30.50
 -17  -7   5   48.40   17.60
  17  -7  -5   65.39   25.70
  17   7  -5   26.90   38.10
 -17   7   5   45.40   28.50
  17   7  -5   67.89   17.90
  15  -7  -5  122.09   36.50
  15  -7  -5  202.38   32.20
 -15  -7   5  157.68   25.00
  15   7  -5  194.18   52.59
  15   7  -5  154.28   25.30
 -15   7   5  132.79   29.30
 -13  -7   5   96.19   31.80
  13  -7  -5  139.39   28.80
 -13  -7   5   98.69   19.00
  13  -7  -5  159.68   25.00
 -13   7   5  116.99   29.10
  13   7  -5  125.29   20.40
  13   7  -5   35.40   34.40
 -11  -7   5   -1.00   20.10
 -11  -7   5   14.20   12.00
  11  -7  -5   -0.30   11.40
  11  -7  -5  -26.60   13.60
  11   7  -5  -44.90   18.90
  11   7  -5   49.60   13.90
   9  -7  -5  560.64   36.70
  -9  -7   5  559.74   55.39
  -9  -7   5  520.85   35.10
   9  -7  -5  514.55   44.10
   9   7  -5  608.54   66.19
   9   7  -5  498.65   34.10
  -7  -7   5   96.89   29.00
   7  -7  -5   42.30   13.00
  -7  -7   5   59.79   14.80
   7  -7  -5   34.40   17.50
   7   7  -5   47.20   12.60
   7   7  -5   41.20   28.40
   5  -7  -5  182.68   31.90
  -5  -7   5  274.97   36.70
  -5  -7   5  142.19   19.80
   5  -7  -5  205.18   19.90
   5   7  -5  210.38   44.00
   5   7  -5  166.18   19.20
  -3  -7   5  224.28   22.80
  -3  -7   5  204.58   37.90
   3  -7  -5  225.68   19.40
   3  -7  -5  186.98   29.10
   3   7  -5  263.97   22.40
   3   7  -5  344.47   53.99
   1  -7  -5  338.47   48.50
  -1  -7   5  263.37   24.40
  -1  -7   5  305.27   37.20
   1  -7  -5  240.08   18.70
   1  -7   5   32.40   22.30
  -1  -7  -5   28.80   26.60
   1  -7   5   33.10   12.40
  -1  -7  -5   21.90    8.10
   3  -7   5  141.99   29.10
   3  -7   5   54.69   14.80
  -3  -7  -5   68.49   30.70
  -3  -7  -5   82.79   11.30
  -5  -7  -5  129.19   37.50
   5  -7   5  156.98   21.80
   5  -7   5  158.48   21.90
  -5  -7  -5  178.38   14.10
   5  -7   5  167.48   31.20
   5   7   5  145.89   12.70
  -7  -7  -5   12.30   25.10
   7  -7   5   51.49   21.00
  -7  -7  -5   19.30    8.10
   7  -7   5   18.20   12.70
   7  -7   5   19.70   12.30
   7   7   5   28.20    7.90
   9  -7   5   11.00   18.90
   9  -7   5   -1.00   14.20
  -9  -7  -5   23.00   25.70
   9  -7   5    8.00   10.60
  -9  -7  -5    3.50    8.10
   9   7   5   16.90    8.60
 -11  -7  -5   15.40    9.30
  11  -7   5   20.00   13.10
  11   7   5  -12.50   30.90
  11   7   5   14.60    9.40
 -13  -7  -5   29.10   15.00
  13  -7   5   37.50   15.20
  13   7   5   19.40   11.60
 -15  -7  -5   76.99   16.60
  15  -7   5  120.99   22.40
  15   7   5  114.79   19.20
  15   7   5   88.29   49.40
  17  -7   5   54.19   22.20
 -17  -7  -5  134.19   22.70
  17   7   5   49.60   16.10
  17   7   5   33.70   43.60
 -19  -7  -5   18.50   16.70
  19  -7   5   27.90   23.50
  19   7   5  -15.50   43.60
  19   7   5   31.20   18.60
 -22  -8   5    7.10   16.20
  22   8  -5   -6.20   46.20
 -20  -8   5   43.80   19.90
  20  -8  -5   40.60   24.00
 -20   8   5   58.29   36.90
  20   8  -5   10.60   38.70
 -18  -8   5  112.49   22.80
  18  -8  -5   97.39   30.30
  18   8  -5  183.78   64.49
 -18   8   5   97.79   36.40
  16  -8  -5   40.70   21.60
 -16  -8   5   23.90   15.10
  16   8  -5   43.90   16.20
  16   8  -5   28.40   39.00
  14  -8  -5  171.38   32.70
 -14  -8   5   94.89   20.00
  14   8  -5  146.49   70.79
  14   8  -5   86.79   29.60
  12  -8  -5   22.20   14.70
 -12  -8   5   52.69   16.00
  12  -8  -5   21.70   20.20
  12   8  -5  -74.99   21.50
  12   8  -5   24.80   13.00
 -10  -8   5  -29.40   18.20
  10  -8  -5   17.60   14.20
  10  -8  -5   12.00   18.60
 -10  -8   5    3.00   11.30
  10   8  -5   17.60   12.40
  10   8  -5    4.00   30.60
  -8  -8   5   15.50   25.70
  -8  -8   5   21.60   12.40
   8  -8  -5  -13.60   15.30
   8  -8  -5   23.90   13.00
   8   8  -5   18.80   11.30
   8   8  -5    4.90   26.50
   6  -8  -5   52.59   14.90
  -6  -8   5   47.20   25.30
   6  -8  -5   50.79   22.00
  -6  -8   5   91.19   19.10
   6   8  -5   43.70   14.10
   6   8  -5   61.09   33.30
   4  -8  -5  408.66   56.19
  -4  -8   5  392.06   47.50
  -4  -8   5  447.56   33.40
   4  -8  -5  463.35   43.40
   4  -8  -5  481.25   31.20
   4   8  -5  489.65   58.79
   4   8  -5  446.76   32.40
   2  -8  -5    9.60   24.40
  -2  -8   5   15.50   19.50
   2  -8  -5   -3.70    8.20
   2  -8  -5    7.50   18.80
  -2  -8   5   -6.70   10.30
   0  -8  -5  192.08   17.70
   0  -8   5  195.78   37.40
   0  -8  -5  141.19   40.40
   0  -8   5  170.28   22.80
  -2  -8  -5   62.09   11.80
   2  -8   5   77.09   17.70
  -2  -8  -5  107.29   38.20
   2  -8   5   36.70   23.10
   4  -8   5   29.80   16.40
  -4  -8  -5   37.30   28.70
  -4  -8  -5   38.80    9.50
   4  -8   5   -5.20   11.30
   4  -8   5   12.20   19.80
   6  -8   5  -10.00   12.80
  -6  -8  -5   14.80    8.50
  -6  -8  -5    9.80   25.80
   6  -8   5   -1.40   13.40
   8  -8   5   20.20   23.30
   8  -8   5    5.60   14.60
   8  -8   5   30.80   15.20
  -8  -8  -5   45.30   10.80
   8   8   5   16.40    7.80
 -10  -8  -5   19.10    9.90
  10  -8   5   -7.00   12.20
  10  -8   5   38.20   23.90
  10  -8   5   22.70   20.60
  10   8   5   16.40    9.20
  12  -8   5  176.28   36.00
  12  -8   5  165.38   24.70
 -12  -8  -5  180.28   19.90
  12  -8   5  197.88   32.30
  12   8   5  178.58   19.50
  14  -8   5    8.80   24.50
  14  -8   5   23.20   15.10
 -14  -8  -5    5.80   11.80
  14   8   5  144.49   57.59
  14   8   5    7.90   10.60
 -16  -8  -5    9.40   13.70
  16  -8   5   62.59   21.40
  16   8   5   51.59   50.19
  16   8   5   17.60   13.80
 -18  -8  -5   10.30   17.10
  18  -8   5    3.00   19.00
  18   8   5   21.80   15.60
  18   8   5  -30.60   44.00
  19  -9  -5    3.70   20.80
 -19  -9   5   10.50   15.20
  19   9  -5   22.50   47.80
 -17  -9   5   -4.50   13.70
  17  -9  -5  -12.20   14.70
  17   9  -5    7.10   35.40
  15  -9  -5   -7.90   16.40
 -15  -9   5   13.20   15.40
  15   9  -5    9.70   12.80
  15   9  -5  -24.50   32.60
 -13  -9   5   89.09   20.10
  13  -9  -5   88.59   27.80
  13   9  -5   68.89   18.30
  13   9  -5  107.79   47.90
  11  -9  -5   19.50   21.00
 -11  -9   5   23.90   14.50
  11  -9  -5   11.20   13.20
  11   9  -5   -7.80   30.90
   9  -9  -5  413.06   43.90
  -9  -9   5  299.97   50.29
  -9  -9   5  334.47   32.30
   9  -9  -5  405.36   37.90
   9   9  -5  444.06   74.19
   9   9  -5  443.46   33.20
   7  -9  -5    2.00   18.60
  -7  -9   5   37.70   15.00
   7  -9  -5   21.80   14.50
   7  -9  -5   19.10   13.40
  -7  -9   5   53.49   30.60
   7   9  -5   54.19   34.80
   7   9  -5   35.40   13.70
  -5  -9   5  205.68   26.40
   5  -9  -5  268.77   38.00
  -5  -9   5  266.57   43.70
   5  -9  -5  258.77   25.10
   5   9  -5  330.27   62.39
   5   9  -5  247.88   26.80
  -3  -9   5  107.39   34.20
   3  -9  -5  120.69   40.20
  -3  -9   5  158.08   24.00
   3  -9  -5  130.39   19.20
   3  -9  -5  134.89   32.60
   1  -9  -5  121.79   34.50
   1  -9  -5   75.79   34.90
   1  -9  -5  115.19   20.70
  -1  -9   5   56.59   29.40
  -1  -9   5  102.69   21.10
   1  -9   5   77.99   30.10
  -1  -9  -5  119.59   16.00
  -1  -9  -5   14.80   31.10
   1  -9   5   92.39   19.80
   3  -9   5   -2.00   21.50
  -3  -9  -5    1.90    9.30
   3  -9   5  -13.20   12.30
  -3  -9  -5   -5.80   25.70
   3  -9   5   -7.10   16.40
   5  -9   5   -0.40   13.90
   5  -9   5   -8.80   16.30
  -5  -9  -5   21.90    9.40
   5  -9   5  -16.50   21.00
  -7  -9  -5  297.47   22.30
   7  -9   5  247.48   31.30
   7  -9   5  310.87   46.10
  -9  -9  -5   13.60    9.90
   9  -9   5   35.30   28.20
   9  -9   5    3.30   13.80
   9  -9   5    1.70   15.10
   9   9   5   17.20    9.90
 -11  -9  -5   59.19   13.70
  11  -9   5   53.39   21.00
  11  -9   5   60.19   39.20
  11  -9   5   39.40   15.90
  11   9   5   44.30   14.90
  13  -9   5   25.10   15.90
  13  -9   5   17.40   41.80
  13  -9   5  -11.40   17.00
  13   9   5   -1.60    9.70
 -15  -9  -5   34.80   14.20
  15  -9   5   54.49   20.00
  15  -9   5   45.60   25.10
  15  -9   5   38.60   30.80
  15   9   5   33.90   13.60
 -17  -9  -5   -0.50   13.60
  17  -9   5   -5.10   19.70
  17  -9   5   25.50   29.30
  17  -9   5   43.10   21.20
  17   9   5   29.60   14.80
 -18 -10   5   -5.30   14.70
  18  10  -5   11.70   49.50
  16 -10  -5    6.40   20.60
 -16 -10   5   30.60   17.60
  16  10  -5  -14.80   44.10
  14 -10  -5   71.79   26.30
 -14 -10   5  112.49   21.80
  14  10  -5   92.89   53.79
  14  10  -5   89.89   25.30
  12 -10  -5    9.00   19.20
 -12 -10   5   45.30   16.90
  12  10  -5   43.30   17.40
  12  10  -5   47.20   41.70
  10 -10  -5  274.97   30.60
  10 -10  -5  218.28   28.60
 -10 -10   5  256.67   28.40
  10 -10  -5  164.48   35.80
  10  10  -5  185.98   60.59
  10  10  -5  212.98   28.90
   8 -10  -5  -23.90   14.20
  -8 -10   5   -1.30   12.40
   8 -10  -5   -9.40   12.50
   8 -10  -5   13.90   14.30
   8 -10  -5    1.30   31.60
   8  10  -5    4.80   35.10
   8  10  -5    2.30   13.50
  -6 -10   5   -3.10   13.30
   6 -10  -5   18.50   20.00
   6 -10  -5   26.40   14.80
  -6 -10   5   -1.70   26.10
   6 -10  -5   19.80   30.20
   6 -10  -5   17.00   14.00
   6  10  -5   20.60   13.40
   4 -10  -5  166.38   37.50
  -4 -10   5  221.48   27.20
   4 -10  -5  201.18   52.69
   4 -10  -5  174.38   23.70
  -4 -10   5  178.08   42.80
   2 -10  -5   40.60   36.50
  -2 -10   5    5.60   13.60
   2 -10  -5   31.00   26.70
  -2 -10   5   -7.70   24.00
   2 -10  -5   -2.80    9.90
   0 -10   5   -9.30   19.50
   0 -10   5   -4.90   12.60
   0 -10  -5   28.10   12.40
   2 -10   5    7.50   22.50
   2 -10   5   49.30   18.40
   4 -10   5  -13.20   14.20
  -4 -10  -5   22.80   10.40
   4 -10   5   21.50   23.70
   4 -10   5   20.10   17.10
   6 -10   5   93.79   33.60
   6 -10   5  120.99   27.30
  -6 -10  -5  140.49   17.60
   6 -10   5   89.89   22.60
   8 -10   5   72.89   21.40
   8 -10   5   20.70   16.70
   8 -10   5   24.40   27.20
  -8 -10  -5   38.90   12.30
  10 -10   5   60.29   31.20
  10 -10   5   25.30   17.10
 -10 -10  -5   45.00   12.30
  10 -10   5   33.60   18.40
  12 -10   5   14.40   29.30
  12 -10   5   55.19   24.40
  12  10   5   10.20   11.30
 -14 -10  -5   22.00   13.70
  14 -10   5   18.60   19.40
  14 -10   5   20.00   18.70
  14 -10   5   40.10   34.20
  14  10   5   14.80   14.00
 -15 -11   5  -14.20   13.50
  15 -11  -5   52.99   27.30
  15  11  -5   52.09   52.39
  13 -11  -5  -12.50   15.40
  13 -11  -5   16.00   23.20
 -13 -11   5    0.20   13.20
  13  11  -5  -27.00   36.80
  11 -11  -5    9.90   15.00
 -11 -11   5   -3.80   12.30
  11  11  -5   -4.00   38.80
   9 -11  -5   55.09   18.80
  -9 -11   5   26.10   14.50
   9 -11  -5   21.60   24.30
   9  11  -5   15.20   16.00
   9  11  -5   34.30   43.30
   7 -11  -5   45.20   15.80
   7 -11  -5    6.40   13.10
  -7 -11   5   -9.60   13.60
   7 -11  -5   52.39   29.90
   7  11  -5   16.00   15.10
   5 -11  -5   57.49   19.10
   5 -11  -5   75.89   19.20
  -5 -11   5   70.99   18.90
  -3 -11   5    2.00   13.20
  -3 -11   5   11.00   27.50
   3 -11  -5    3.50   25.20
   3 -11  -5    0.00   13.00
  -1 -11   5   33.60   16.70
   1 -11  -5   81.49   30.50
  -1 -11   5   30.70   31.00
   1 -11  -5   39.60   14.50
  -1 -11  -5   59.79   15.30
   1 -11   5   44.30   19.20
   1 -11   5   29.30   33.10
   3 -11   5    1.60   13.40
   3 -11   5    0.00   20.60
   3 -11   5   28.20   29.70
  -3 -11  -5    1.20   10.40
   5 -11   5    6.40   19.20
  -5 -11  -5    1.40   11.00
   5 -11   5    5.90   14.80
   5 -11   5   19.70   30.70
   7 -11   5   37.30   30.20
   7 -11   5    9.10   18.90
   7 -11   5   14.40   17.30
   9 -11   5   16.30   18.40
   9 -11   5   21.10   17.30
   9 -11   5    4.40   31.50
  11 -11   5   30.10   31.60
  11 -11   5   21.50   18.30
  11 -11   5   26.10   18.70
  13 -11   5   32.90   19.40
 -13 -11  -5   20.10   13.10
  13 -11   5    5.80   31.00
  13 -11   5    1.10   17.50
 -12 -12   5    1.90   14.30
  12 -12  -5   12.10   23.20
  12 -12  -5   -1.10   15.60
  12  12  -5   25.60   47.70
  10 -12  -5   -2.20   20.20
 -10 -12   5    1.60   14.20
  10 -12  -5   -0.20   12.70
   8 -12  -5   49.80   26.60
  -8 -12   5   43.90   28.10
   8 -12  -5   90.69   33.90
   6 -12  -5   38.90   16.20
   6 -12  -5   38.90   17.70
   6 -12  -5    1.40   23.30
   4 -12  -5   -8.90   11.40
  -4 -12   5  -10.50   13.10
   4 -12  -5  -11.30   20.70
   2 -12  -5   -2.20   22.70
   2 -12  -5   16.10   13.30
  -2 -12   5   11.50   16.10
   0 -12  -5   -5.00   10.00
   0 -12   5    0.00   14.60
   0 -12  -5   -5.70   23.60
   2 -12   5   -4.80   24.80
  -2 -12  -5   25.10   12.80
   2 -12   5   13.30   15.60
   2 -12   5   49.10   35.00
   4 -12   5   13.50   15.40
   4 -12   5    0.00   28.30
   4 -12   5   16.70   23.30
  -4 -12  -5    0.00   10.80
  -6 -12  -5   31.50   13.50
   6 -12   5   24.20   18.10
   6 -12   5   41.80   40.10
   6 -12   5   15.90   21.20
   8 -12   5    1.40   34.60
   8 -12   5    5.70   16.70
   8 -12   5   35.70   23.10
  -8 -12  -5   26.80   12.50
 -10 -12  -5   54.49   15.90
  10 -12   5   51.49   24.20
  10 -12   5   47.80   22.20
  10 -12   5  -15.00   33.90
   9 -13  -5   21.90   26.60
  -9 -13   5    3.00   17.20
   9 -13  -5    5.10   15.10
   7 -13  -5  -21.70   11.10
  -7 -13   5    6.00   16.50
   7 -13  -5   11.60   23.60
   5 -13  -5   32.50   28.50
   5 -13  -5    7.90   14.70
  -5 -13   5   53.09   20.20
   3 -13  -5   30.50   16.00
  -3 -13   5   37.40   17.40
   3 -13  -5   -6.80   26.50
   1 -13  -5   42.90   29.60
  -1 -13   5   49.60   21.80
   1 -13  -5   24.70   13.80
  -1 -13  -5    6.60   13.00
  -1 -13  -5   18.60   35.20
   1 -13   5   -8.20   14.50
   1 -13   5    7.00   23.40
   3 -13   5    9.20   16.90
  -3 -13  -5    2.10   12.70
  -5 -13  -5  -14.00   10.70
   5 -13   5   19.30   19.50
   5 -13   5   18.20   22.80
 -26   0   6  135.39   32.40
  26   0  -6  119.49   50.19
 -24   0   6  109.09   27.60
  24   0  -6  164.88   53.29
 -22   0   6  626.44   48.40
  22   0  -6  476.75   63.49
  20   0  -6   73.59   20.60
 -20   0   6   32.50   24.50
 -20   0   6   25.50   16.60
  20   0  -6   49.40   28.10
  18   0  -6 1424.06   93.09
 -18   0   6 1425.86   84.39
  18   0  -6 1399.56   73.89
 -18   0   6 1379.96   74.89
  16   0  -6   76.39   16.70
  16   0  -6  146.29   34.40
 -16   0   6   83.19   26.10
 -16   0   6   60.09   16.80
 -14   0   6   -8.40   11.30
  14   0  -6   -3.30   13.80
 -14   0   6   25.20   11.30
  14   0  -6    4.90    8.60
  12   0  -6 2219.68  120.79
 -12   0   6 2334.47  100.79
  12   0  -6 2245.18   99.49
 -12   0   6 2201.28  107.89
 -10   0   6 2197.48   95.89
  10   0  -6 2223.58  105.79
  10   0  -6 2166.58   98.79
   8   0  -6 2535.65  106.59
  -8   0   6 2523.25  113.59
  -8   0   6 2517.95  106.89
   8   0  -6 2663.73  116.09
   6   0  -6   20.60   12.00
  -6   0   6   21.90    8.80
  -6   0   6   16.10   10.80
   6   0  -6   28.70    8.20
   4   0  -6  465.65   23.90
  -4   0   6  484.65   24.20
   4   0  -6  444.86   29.40
  -4   0   6  439.76   28.60
  -2   0   6 3238.08  125.39
  -2   0   6 3168.38  129.09
   2   0  -6 3108.39  129.09
   2   0  -6 3177.08  125.19
   0   0  -6 2149.19   90.49
   0   0   6 2255.27   87.89
   0   0  -6 2217.08   87.89
   0   0   6 2155.78   90.89
   2   0   6 5877.21  227.48
  -2   0  -6 5821.92  235.08
  -4   0  -6   50.19   14.20
  -6   0  -6    4.60   12.30
   6   0   6    3.10   13.80
   6   0   6    4.30    7.60
  -8   0  -6   41.20   14.80
   8   0   6   72.79   21.00
   8   0   6   28.00   10.10
  10   0   6  310.67   24.30
  10   0   6  334.17   36.40
 -10   0  -6  257.37   27.90
  12   0   6  204.98   22.30
  12   0   6  192.98   35.40
  14   0   6  718.13   45.00
 -14   0  -6  709.83   50.19
  16   0   6   23.20   29.70
 -16   0  -6   65.59   22.20
  18   0   6   70.59   19.50
  18   0   6  136.69   42.70
 -18   0  -6   81.79   24.20
 -20   0  -6    6.20   22.00
  20   0   6  -43.70   31.30
  22   0   6  201.58   62.49
 -22   0  -6  105.99   32.70
  27  -1  -6   16.90   37.40
 -27  -1   6  -14.10   15.70
  27   1  -6   15.50   39.60
 -25  -1   6  -10.80   15.20
  25  -1  -6   38.10   37.10
 -25   1   6   39.60   21.90
  25   1  -6    7.00   37.10
 -23  -1   6  -28.00   12.30
  23  -1  -6   10.70   26.70
 -23   1   6    4.60   16.80
  23   1  -6  -16.50   28.60
 -21  -1   6   12.70   15.50
  21  -1  -6  -36.30   18.50
 -21  -1   6  -26.30   13.70
 -21   1   6   14.20   17.00
 -21   1   6    2.90   18.70
  21   1  -6    5.10   25.90
 -19  -1   6   51.09   19.20
  19  -1  -6    7.70   13.30
 -19  -1   6   83.99   26.80
  19  -1  -6   60.79   28.20
  19   1  -6   38.00   28.80
 -19   1   6   67.29   23.40
  19   1  -6   67.09   18.00
 -19   1   6   52.79   19.30
 -17  -1   6   71.69   25.00
  17  -1  -6   61.89   16.40
  17  -1  -6   58.09   24.40
 -17  -1   6   15.40   13.10
 -17   1   6   64.69   17.00
  17   1  -6   42.20   15.60
  17   1  -6   93.39   31.90
 -17   1   6   50.19   19.30
 -15  -1   6  183.28   23.10
  15  -1  -6  186.88   34.00
  15  -1  -6  218.08   22.90
 -15  -1   6  181.68   29.00
 -15   1   6  199.88   27.50
  15   1  -6  239.68   41.20
 -15   1   6  198.68   23.10
  15   1  -6  183.68   22.00
 -13  -1   6  447.36   31.70
  13  -1  -6  448.76   31.10
 -13  -1   6  401.56   37.90
  13  -1  -6  557.74   42.90
 -13   1   6  389.26   35.40
 -13   1   6  479.75   32.90
  13   1  -6  433.86   30.60
  13   1  -6  487.15   45.60
  11  -1  -6  627.34   47.00
 -11  -1   6  693.13   39.20
 -11  -1   6  702.03   47.80
  11  -1  -6  747.33   39.90
 -11   1   6  708.63   40.30
  11   1  -6  681.83   38.70
 -11   1   6  672.93   44.90
  11   1  -6  736.03   52.49
   9  -1  -6  633.14   34.20
  -9  -1   6  637.14   34.50
  -9  -1   6  611.94   41.70
   9  -1  -6  653.83   41.70
   9   1  -6  590.24   33.30
   9   1  -6  573.04   43.40
  -9   1   6  565.04   38.80
  -9   1   6  628.24   34.70
  -7  -1   6  450.85   26.90
  -7  -1   6  439.06   32.90
   7  -1  -6  438.46   26.10
   7  -1  -6  470.75   32.90
   7   1  -6  500.15   36.10
  -7   1   6  475.55   27.10
  -7   1   6  471.75   32.30
   7   1  -6  480.75   26.50
  -5  -1   6 4611.04  184.48
   5  -1  -6 4515.35  177.18
  -5  -1   6 4390.36  178.08
   5  -1  -6 4550.94  184.08
  -5   1   6 4378.16  183.28
   5   1  -6 4590.04  178.18
   5   1  -6 4444.06  184.98
  -5   1   6 4478.65  177.38
   3  -1  -6  421.66   27.40
  -3  -1   6  427.96   26.30
  -3  -1   6  379.26   22.30
   3  -1  -6  421.66   20.60
  -3   1   6  410.16   20.80
   3   1  -6  382.06   22.10
  -3   1   6  441.56   28.00
   3   1  -6  401.26   26.50
  -1  -1   6  180.18   14.40
   1  -1  -6  205.88   11.50
   1  -1  -6  188.98   18.50
  -1  -1   6  165.08   14.60
  -1   1   6  190.58   19.10
   1   1  -6  193.98   15.80
   1   1  -6  205.68   14.40
  -1   1   6  203.38   11.50
   1  -1   6 4199.68  165.58
   1  -1   6 4221.68  163.28
   1   1   6 4202.38  161.98
  -1   1  -6 4131.19  162.98
  -3  -1  -6  275.67   29.10
  -3   1  -6  302.17   18.50
  -3   1  -6  308.27   16.00
  -5  -1  -6  260.57   27.80
   5   1   6  194.78   14.90
   5   1   6  211.68   29.10
  -5   1  -6  206.48   16.60
  -7  -1  -6  168.58   27.50
   7  -1   6  121.09   20.40
   7   1   6  117.99   26.20
  -7   1  -6  123.69   15.60
   7   1   6  130.79   14.50
  -9  -1  -6   -7.30   13.20
   9  -1   6   17.60   10.50
   9  -1   6   13.40   15.10
   9   1   6   19.10   19.30
  -9   1  -6    6.60    9.50
   9   1   6    1.40    7.60
  11  -1   6    2.80   16.20
 -11  -1  -6  -19.90   13.00
  11  -1   6   14.00    9.70
  11   1   6    2.30    8.40
  11   1   6   40.00   21.90
 -11   1  -6   -3.50    9.00
 -13  -1  -6   40.40   19.50
  13  -1   6   33.50   22.30
  13  -1   6  111.69   19.60
  13   1   6   49.60   14.70
  13   1   6   95.49   33.00
 -13   1  -6   53.99   17.00
 -15  -1  -6  -10.30   16.80
  15  -1   6  -23.00   19.80
  15   1   6    9.30   27.20
  15   1   6   15.70   14.80
 -15   1  -6   27.00   16.20
  17  -1   6   24.90   17.00
  17  -1   6   32.20   27.10
 -17  -1  -6   -0.40   21.00
 -17   1  -6  -14.70   13.80
  17   1   6   27.60   31.00
  17   1   6   -8.90   13.30
  19  -1   6    4.80   27.40
 -19  -1  -6   -7.10   20.00
  19   1   6   12.90   39.10
 -19   1  -6   -1.50   17.30
 -21  -1  -6   12.60   24.30
  21  -1   6   46.00   41.30
  21   1   6   57.59   44.40
 -21   1  -6    5.20   19.50
  23  -1   6   32.40   42.30
 -23   1  -6   15.30   25.50
  26  -2  -6   42.50   34.80
 -26  -2   6    8.60   18.60
  26   2  -6   -4.80   39.80
 -24  -2   6   44.40   20.50
  24   2  -6   42.50   37.20
 -22  -2   6  342.47   41.90
  22  -2  -6  532.05   59.69
 -22   2   6  559.34   52.09
 -22   2   6  410.86   42.70
  20  -2  -6   33.50   25.80
 -20  -2   6   18.60   17.00
 -20  -2   6   28.30   23.20
 -20   2   6   16.60   15.80
 -20   2   6   23.90   22.60
  20   2  -6   37.20   16.00
  20   2  -6   28.50   29.40
  18  -2  -6  107.89   21.60
  18  -2  -6  158.48   33.90
 -18  -2   6   86.49   29.70
 -18  -2   6  178.88   26.50
 -18   2   6  154.68   31.00
  18   2  -6   80.69   32.20
  18   2  -6  141.39   25.90
 -18   2   6  171.18   29.20
 -16  -2   6  845.82   62.09
 -16  -2   6  818.32   50.29
  16  -2  -6  831.12   50.39
  16  -2  -6  921.31   62.79
  16   2  -6  889.11   49.90
 -16   2   6  839.52   51.89
  16   2  -6  833.12   70.59
 -16   2   6  895.61   57.89
 -14  -2   6   16.80   11.30
 -14  -2   6   42.70   20.40
  14  -2  -6   38.00   14.30
  14  -2  -6   71.29   22.20
  14   2  -6   66.49   28.60
 -14   2   6   31.00   15.70
 -14   2   6   67.59   16.80
  14   2  -6   48.60   12.80
  12  -2  -6 1729.13   80.49
 -12  -2   6 1652.73   90.99
 -12  -2   6 1651.43   79.49
  12  -2  -6 1834.12   97.89
 -12   2   6 1703.33   80.99
  12   2  -6 1782.72   99.09
 -12   2   6 1748.03   86.99
  12   2  -6 1775.32   79.59
 -10  -2   6  507.35   31.50
 -10  -2   6  519.35   40.50
  10  -2  -6  517.05   31.50
  10  -2  -6  469.05   37.60
  10   2  -6  537.55   31.10
  10   2  -6  491.55   44.20
 -10   2   6  488.75   32.00
 -10   2   6  551.24   49.99
   8  -2  -6  365.66   23.90
  -8  -2   6  344.97   31.50
   8  -2  -6  391.16   30.30
  -8  -2   6  353.76   24.10
   8   2  -6  351.06   23.40
  -8   2   6  327.37   28.00
   8   2  -6  409.66   36.00
  -8   2   6  377.86   24.80
   6  -2  -6 1350.56   59.59
  -6  -2   6 1323.47   60.39
  -6  -2   6 1386.46   68.69
   6  -2  -6 1402.66   67.19
   6   2  -6 1359.46   70.99
  -6   2   6 1336.17   66.39
   6   2  -6 1343.17   60.09
  -6   2   6 1366.16   59.99
   4  -2  -6   69.09   15.60
  -4  -2   6   76.89   16.10
   4  -2  -6   77.49    9.70
  -4  -2   6   61.79   10.90
  -4   2   6   65.69    9.50
   4   2  -6   88.49   18.80
  -4   2   6   82.99   17.10
   4   2  -6   91.19   12.60
   2  -2  -6   26.00    5.30
  -2  -2   6   35.50    9.60
   2  -2  -6   21.00   12.10
  -2  -2   6   14.90    9.80
   2   2  -6   32.80    8.40
  -2   2   6   37.30    5.90
   2   2  -6   18.60   11.60
  -2   2   6   30.70   12.20
   0  -2   6  545.55   26.40
   0  -2  -6  573.14   34.80
   0  -2   6  584.64   28.70
   0   2  -6  496.45   27.80
   0   2  -6  492.95   28.20
  -2  -2  -6   82.29   23.40
   2  -2   6   53.19   10.40
  -4  -2  -6   75.19   22.90
   4   2   6   29.80    5.90
  -6  -2  -6  161.78   28.50
   6  -2   6  119.49   14.40
   6   2   6  130.39   12.50
  -6   2  -6  122.69    9.80
   6   2   6  117.59   29.00
  -8  -2  -6  205.78   37.10
   8  -2   6  126.99   17.90
   8   2   6  119.09   14.20
   8   2   6  144.29   32.40
  -8   2  -6  108.49   12.40
 -10  -2  -6   53.69   22.30
  10  -2   6   64.09   15.30
  10  -2   6   30.80   16.20
 -10   2  -6   31.10   10.50
  10   2   6   31.00   10.50
  12  -2   6  376.26   31.20
 -12  -2  -6  379.96   41.80
  12  -2   6  403.76   35.90
 -12   2  -6  372.46   27.40
  12   2   6  360.66   27.30
  12   2   6  459.95   53.89
 -14  -2  -6   12.20   19.60
  14  -2   6   54.99   23.80
  14   2   6   57.29   33.50
  14   2   6   48.60   14.30
 -14   2  -6   16.00   13.20
 -16  -2  -6  -10.60   19.60
  16  -2   6  -33.20   20.10
  16  -2   6   -8.00   14.10
  16   2   6   26.00   15.60
  16   2   6   74.39   39.80
 -16   2  -6   20.00   15.10
 -18  -2  -6  205.38   39.40
  18  -2   6  113.69   35.50
  18   2   6  129.39   23.30
 -18   2  -6  161.08   27.60
  18   2   6  151.18   46.50
  20  -2   6    5.80   33.20
 -20  -2  -6   33.50   26.90
  20   2   6   13.90   40.20
 -20   2  -6   24.20   19.90
  22  -2   6    2.80   38.90
 -22   2  -6   75.69   26.80
  22   2   6  -26.10   45.90
 -25  -3   6   18.00   18.60
  25  -3  -6   32.70   30.60
  25   3  -6  -29.40   33.50
  23  -3  -6   23.20   26.40
 -23  -3   6  -18.40   14.30
  23   3  -6    4.60   31.50
  21  -3  -6   70.79   31.70
 -21  -3   6   76.49   22.20
 -21   3   6   71.09   26.10
  19  -3  -6  164.18   34.90
 -19  -3   6  100.49   22.00
 -19  -3   6   92.89   29.90
  19   3  -6  134.69   24.20
  19   3  -6   59.99   34.90
 -19   3   6  178.38   29.10
 -19   3   6  171.68   35.90
 -17  -3   6   34.10   15.40
  17  -3  -6   26.20   14.80
  17  -3  -6   13.90   19.10
 -17  -3   6  -13.40   13.70
 -17   3   6   24.20   17.20
  17   3  -6    1.70   11.50
  17   3  -6   -9.00   17.80
 -17   3   6   23.50   14.20
  15  -3  -6  207.88   34.00
  15  -3  -6  153.48   22.50
 -15  -3   6  203.78   35.30
 -15  -3   6  213.68   23.90
  15   3  -6  133.09   19.70
 -15   3   6  179.38   26.80
 -15   3   6  150.48   25.60
  15   3  -6  216.38   43.60
  13  -3  -6  107.09   18.60
  13  -3  -6  112.89   23.70
 -13  -3   6  105.29   18.30
 -13  -3   6  149.39   29.40
  13   3  -6  118.59   18.60
 -13   3   6  107.39   19.70
 -13   3   6  132.59   24.20
  13   3  -6  106.39   33.50
 -11  -3   6  130.09   26.80
 -11  -3   6  132.29   19.20
  11  -3  -6  148.29   20.60
  11  -3  -6   89.99   20.60
 -11   3   6  109.79   21.40
 -11   3   6  141.59   20.20
  11   3  -6  119.29   16.60
  11   3  -6  105.99   30.60
  -9  -3   6 1459.95   78.69
   9  -3  -6 1389.96   72.39
   9  -3  -6 1411.46   65.79
  -9  -3   6 1434.76   65.49
   9   3  -6 1399.56   64.99
   9   3  -6 1310.97   81.69
  -9   3   6 1462.45   78.39
  -9   3   6 1328.97   65.59
   7  -3  -6  157.78   21.80
  -7  -3   6  144.39   15.60
   7  -3  -6  152.78   15.40
  -7  -3   6  147.59   24.00
   7   3  -6  149.49   15.20
   7   3  -6  214.78   33.70
  -7   3   6  153.38   20.60
  -7   3   6  135.19   15.80
   5  -3  -6    1.20    5.90
   5  -3  -6   15.60   10.90
  -5  -3   6   31.00   14.90
  -5  -3   6   -0.40    6.40
   5   3  -6    0.00   14.50
  -5   3   6    7.10    6.80
  -5   3   6  -12.20   11.10
   5   3  -6   -0.20    7.10
   3  -3  -6   42.00    6.90
  -3  -3   6   18.90   11.90
   3  -3  -6   37.60   12.70
  -3  -3   6   34.50   10.40
   3   3  -6    6.50   15.00
  -3   3   6   31.50   12.40
   3   3  -6   35.30   10.00
   1  -3  -6  119.59    7.80
  -1  -3   6  124.89   16.20
  -1  -3   6  123.09   14.20
   1  -3  -6  152.68   23.40
   1   3  -6  106.09   13.00
   1   3  -6  115.99   19.10
   1  -3   6    6.20    7.50
   1  -3   6    8.90    7.60
  -1   3  -6   35.40   11.10
  -3  -3  -6   42.70   21.60
   3  -3   6   44.80   10.50
  -5  -3  -6   88.59   27.60
   5   3   6   54.29    7.50
   7  -3   6  262.57   16.50
  -7  -3  -6  213.78   35.50
   7   3   6  265.67   17.10
   7   3   6  240.98   41.60
   9  -3   6    5.90    9.60
  -9  -3  -6  -16.30   15.40
  -9   3  -6    9.90    6.70
   9   3   6   19.50   24.40
   9   3   6   -7.50    7.00
  11  -3   6  -10.10   11.70
  11  -3   6   17.70   11.70
 -11  -3  -6   10.60   19.30
  11   3   6   -6.40   24.20
 -11   3  -6  -14.40    7.60
 -13  -3  -6   27.00   24.10
  13  -3   6   -6.40   14.40
  13   3   6   -1.10   10.00
  13   3   6   -9.20   26.50
 -13   3  -6   -7.80    9.70
  15  -3   6  107.09   26.70
 -15  -3  -6   77.79   32.00
  15  -3   6   79.79   20.60
  15   3   6   79.09   17.90
  15   3   6   87.49   39.10
 -15   3  -6  116.99   20.70
  17  -3   6   -6.30   22.30
 -17  -3  -6  -17.10   21.50
  17   3   6  -48.60   31.50
  17   3   6    3.90   13.60
  19   3   6    1.50   15.10
  19   3   6   54.89   46.20
 -19   3  -6   10.10   17.10
  21  -3   6   15.50   33.40
  21   3   6  -17.40   42.70
 -21   3  -6   24.40   20.80
  26  -4  -6   23.30   30.70
 -26  -4   6   54.09   24.70
  26   4  -6   30.10   45.40
 -24  -4   6   -2.70   16.20
  24   4  -6   71.49   50.39
  22  -4  -6  286.07   45.20
 -22  -4   6  191.08   31.80
 -22   4   6  275.97   46.40
  22   4  -6  248.58   61.99
  20  -4  -6  -18.50   17.00
 -20  -4   6  -27.10   12.00
  20   4  -6   -5.80   13.10
 -20   4   6  -16.00   17.00
  18  -4  -6  173.28   28.30
 -18  -4   6  174.98   27.70
 -18  -4   6  190.08   42.50
  18  -4  -6  196.18   36.80
 -18   4   6  164.98   31.80
  18   4  -6  217.98   51.89
  18   4  -6  164.38   23.50
  16  -4  -6  421.26   42.70
 -16  -4   6  446.46   34.20
 -16  -4   6  379.86   46.00
  16  -4  -6  498.35   36.50
  16   4  -6  385.16   55.19
 -16   4   6  367.16   38.90
  16   4  -6  356.66   31.10
 -14  -4   6   43.40   21.80
  14  -4  -6   37.90   13.60
  14  -4  -6   68.69   23.00
 -14  -4   6   43.20   14.40
 -14   4   6   25.30   16.50
  14   4  -6   46.70   28.00
  14   4  -6   52.09   14.40
  12  -4  -6  696.83   42.70
 -12  -4   6  754.02   42.40
  12  -4  -6  707.93   49.00
 -12  -4   6  741.33   56.89
  12   4  -6  676.43   62.39
  12   4  -6  752.02   41.90
 -12   4   6  701.03   48.60
 -10  -4   6   -3.60   12.70
  10  -4  -6   -4.80    7.90
 -10  -4   6    1.30    8.20
  10  -4  -6    7.20   20.40
  10   4  -6  -28.50   14.50
  10   4  -6   17.50    9.50
 -10   4   6   -0.30   11.50
  -8  -4   6  946.21   61.89
   8  -4  -6  927.31   56.39
  -8  -4   6 1017.20   49.80
  -8   4   6 1005.80   57.49
   8   4  -6  915.11   67.19
   8   4  -6 1035.60   49.60
  -6  -4   6   -5.60   12.00
  -6  -4   6   23.50    9.50
   6  -4  -6    9.80   11.90
   6  -4  -6   13.00    8.20
   6   4  -6   19.30   17.80
  -6   4   6   29.80   16.00
   4  -4  -6   11.00   12.50
  -4  -4   6  -18.70   11.10
  -4  -4   6   -3.70    6.90
   4  -4  -6   16.80    6.50
   4   4  -6   -7.50   13.20
   4   4  -6   11.90    8.10
  -2  -4   6   92.39   19.50
  -2  -4   6   91.69   14.50
   2  -4  -6  107.79   21.40
   2  -4  -6   96.59    9.60
   2   4  -6  143.59   25.90
   2   4  -6   84.09   12.80
   0  -4   6 1074.49   56.69
   0  -4  -6 1123.49   46.00
   0  -4  -6 1170.98   46.50
   0  -4   6 1149.98   54.39
   0   4  -6 1193.28   61.39
  -2  -4  -6   62.69   27.90
   2  -4   6   67.39   13.60
   2  -4   6   57.29   12.80
   4  -4   6  951.80   45.40
  -4  -4  -6  905.51   69.29
   4  -4   6  971.60   42.40
   4  -4   6 1006.30   53.89
  -4  -4  -6  989.50   40.50
   4   4   6 1017.30   40.10
  -6  -4  -6   99.89   10.50
  -6  -4  -6  111.09   30.00
   6  -4   6   90.99   12.90
   6  -4   6   94.79    9.50
   6   4   6  103.99    9.70
  -8  -4  -6  427.56   49.30
  -8  -4  -6  499.25   27.60
   8  -4   6  521.95   26.20
   8   4   6  506.75   26.30
   8   4   6  439.26   54.79
 -10  -4  -6  -13.80    7.50
  10  -4   6   -7.50    9.10
 -10  -4  -6   45.30   23.20
  10   4   6   -2.10    6.90
  10   4   6  -27.20   21.20
 -12  -4  -6  103.69   34.00
  12  -4   6   84.49   19.50
 -12  -4  -6  126.09   18.60
  12  -4   6  148.69   21.50
  12   4   6  121.69   16.50
  12   4   6   75.69   37.30
 -12   4  -6   90.99   14.40
 -14  -4  -6   20.10   43.00
  14  -4   6   25.70   16.60
  14  -4   6   15.60   16.30
 -14   4  -6   10.20    9.70
  14   4   6   32.80   33.50
  14   4   6   -1.90   10.70
  16  -4   6    5.30   20.70
 -16  -4  -6    7.40   23.50
  16   4   6    4.30   13.10
  16   4   6   -6.00   36.00
 -16   4  -6   34.60   14.50
  18  -4   6   33.30   25.00
 -18   4  -6   29.10   16.90
  18   4   6   -8.00   38.40
  18   4   6   48.20   17.50
  20  -4   6   28.50   33.00
  20   4   6   17.20   16.80
  20   4   6   60.99   48.40
 -20   4  -6   97.39   23.00
 -25  -5   6   -1.20   16.20
  25  -5  -6   41.50   32.90
  25   5  -6   -3.20   37.80
  23  -5  -6   41.70   28.30
 -23  -5   6   62.49   22.90
  23   5  -6   30.50   36.80
  21  -5  -6   38.40   24.40
 -21  -5   6   55.99   32.30
  21   5  -6   62.59   41.40
 -21   5   6   17.00   23.40
  19  -5  -6   12.30   19.60
 -19  -5   6   -4.40   14.40
  19   5  -6  -41.50   31.50
  19   5  -6  -10.20   11.50
  17  -5  -6   39.60   21.10
 -17  -5   6   10.30   19.60
 -17  -5   6   39.30   16.50
  17  -5  -6   49.30   16.00
  17   5  -6   22.20   26.50
  17   5  -6   12.90   15.20
 -17   5   6   68.59   24.70
 -15  -5   6   93.79   19.40
  15  -5  -6   93.29   24.10
  15  -5  -6  119.39   24.30
 -15  -5   6   83.59   27.10
  15   5  -6  124.79   20.80
 -15   5   6  145.69   30.50
  15   5  -6   46.40   33.70
 -13  -5   6  398.46   45.50
  13  -5  -6  480.05   34.60
 -13  -5   6  461.45   33.00
  13  -5  -6  510.95   41.50
 -13   5   6  406.16   38.10
  13   5  -6  399.96   30.90
  13   5  -6  480.95   57.99
  11  -5  -6  153.48   20.30
 -11  -5   6  168.68   20.50
  11  -5  -6  199.78   26.70
 -11  -5   6  174.28   34.70
 -11   5   6  166.08   25.60
  11   5  -6  244.18   49.80
  11   5  -6  165.38   19.30
   9  -5  -6   58.79   20.70
  -9  -5   6   36.30   18.80
   9  -5  -6   51.69   12.90
  -9  -5   6   49.40   13.00
   9   5  -6   48.30   12.40
   9   5  -6   36.20   22.60
  -9   5   6   52.29   18.60
  -7  -5   6  100.99   25.70
   7   5  -6  122.09   17.50
   7   5  -6  192.18   43.60
  -7   5   6  114.39   23.90
  -5  -5   6  155.98   28.70
   5  -5  -6   98.19   13.60
  -5  -5   6  141.89   19.40
   5  -5  -6  164.38   26.90
   5   5  -6  186.48   36.30
   5   5  -6  117.79   15.80
  -3  -5   6   18.80   15.30
  -3  -5   6    5.30    9.00
   3  -5  -6   -7.50   12.40
   3  -5  -6   -8.70    6.00
   3   5  -6   10.30    8.00
   3   5  -6   13.20   17.60
  -1  -5   6   -7.90   11.80
  -1  -5   6   -7.30    8.80
   1  -5  -6    7.50    5.60
   1   5  -6   -6.70    6.60
   1   5  -6   -4.20   14.60
  -1  -5  -6  154.18   10.40
   1  -5   6  140.09   19.10
  -1  -5  -6  147.89   38.20
   1  -5   6  155.88   22.00
  -3  -5  -6  173.28   10.50
   3  -5   6  207.88   20.60
   3  -5   6  167.48   21.80
  -3  -5  -6  191.28   40.80
   5  -5   6    6.30    7.00
   5  -5   6   10.50   10.80
   5  -5   6   21.10   11.00
  -5  -5  -6    5.10    5.00
  -5  -5  -6   19.00   22.30
   5   5   6    0.60    4.00
  -7  -5  -6  -10.40    5.00
   7  -5   6    7.70   11.20
  -7  -5  -6  -13.60   17.70
   7  -5   6   19.70    7.60
   7   5   6    1.10    5.10
  -9  -5  -6  115.09   13.40
  -9  -5  -6   35.30   23.70
   9   5   6   95.79   39.40
   9   5   6   90.49   11.80
 -11  -5  -6   86.89   14.70
  11  -5   6  112.99   16.30
 -11  -5  -6   69.59   30.90
  11  -5   6   93.49   21.80
  11   5   6   57.79   37.20
  11   5   6   73.29   13.40
 -13  -5  -6  108.39   18.00
  13  -5   6   66.79   25.20
  13  -5   6   75.19   18.30
 -13  -5  -6   89.99   35.10
  13   5   6   74.39   14.00
  13   5   6    5.40   35.10
 -15  -5  -6   87.39   46.40
  15  -5   6   26.20   17.40
  15   5   6   47.70   14.40
  15   5   6  -51.19   29.60
  17  -5   6   19.60   19.60
  17   5   6   32.70   49.70
 -17   5  -6   17.30   12.60
  17   5   6   27.90   14.90
  19  -5   6   33.00   26.40
  19   5   6   12.60   17.50
  19   5   6   41.10   48.30
 -19   5  -6   19.40   14.50
  21  -5   6   16.70   28.30
  21   5   6   94.79   59.29
  24  -6  -6   -6.50   24.00
 -24  -6   6   34.00   19.90
  24   6  -6   19.70   46.40
 -22  -6   6  115.59   26.00
  22  -6  -6   42.70   26.20
  22   6  -6    8.30   40.40
  20  -6  -6   43.20   25.40
 -20  -6   6   51.69   19.60
 -20   6   6   25.40   26.80
  20   6  -6   27.30   40.30
  18  -6  -6  418.56   45.60
 -18  -6   6  384.96   35.40
  18   6  -6  462.25   71.69
  18   6  -6  370.26   34.00
  16  -6  -6   80.19   25.60
 -16  -6   6   57.69   17.30
  16  -6  -6   13.30   13.30
 -16   6   6   58.39   24.80
  16   6  -6   32.90   39.30
 -14  -6   6    8.30   12.50
 -14  -6   6   51.59   24.70
  14  -6  -6   34.60   20.00
  14  -6  -6    4.80   14.60
  14   6  -6    3.10   25.60
  14   6  -6   13.00   12.00
 -14   6   6    8.70   16.50
 -12  -6   6  216.28   23.10
 -12  -6   6  196.78   38.50
  12  -6  -6  206.18   34.20
  12  -6  -6  156.08   22.10
 -12   6   6  196.08   29.50
  12   6  -6  186.28   44.90
  12   6  -6  178.88   21.00
 -10  -6   6    1.80   16.90
 -10  -6   6   -0.20    9.40
  10  -6  -6    7.20   10.20
  10  -6  -6    2.70   13.00
 -10   6   6   24.00   17.00
  10   6  -6    2.60   21.70
  10   6  -6   -7.80    7.70
   8  -6  -6  485.15   40.10
  -8  -6   6  483.55   32.20
   8  -6  -6  460.95   31.10
  -8  -6   6  457.55   45.70
   8   6  -6  395.66   50.89
   8   6  -6  482.55   31.00
   6  -6  -6  350.06   35.40
  -6  -6   6  428.26   43.20
  -6  -6   6  444.26   30.20
   6  -6  -6  437.16   28.00
   6   6  -6  461.15   50.09
   6   6  -6  419.96   28.50
   4  -6  -6  151.68   28.40
  -4  -6   6  126.39   27.40
  -4  -6   6  100.69   16.90
   4  -6  -6  109.79   14.00
   4   6  -6   94.19   29.80
   4   6  -6  103.09   15.40
  -2  -6   6 1109.29   56.99
   2  -6  -6 1187.68   68.39
  -2  -6   6 1163.88   75.59
   2  -6  -6 1148.99   50.79
   2   6  -6 1011.60   71.29
   2   6  -6 1139.39   56.69
   0  -6   6  107.39   23.90
   0  -6  -6   88.69   10.30
   0  -6   6   92.69   17.60
   0  -6  -6   71.29   30.90
   2  -6   6  176.78   27.30
  -2  -6  -6  181.18   41.20
   2  -6   6  141.89   19.40
  -2  -6  -6  141.59   10.90
   4  -6   6  188.18   20.60
   4  -6   6  197.98   25.60
   4  -6   6  215.98   23.00
  -4  -6  -6  200.78   12.90
  -4  -6  -6  164.38   36.60
   6  -6   6   97.49   20.70
  -6  -6  -6   91.19   10.50
   6  -6   6  103.39   14.60
  -6  -6  -6   81.39   29.50
   6  -6   6   85.39   17.70
   6   6   6   92.19    9.50
   8  -6   6  484.85   35.70
   8  -6   6  502.55   28.40
  -8  -6  -6  470.05   25.90
  -8  -6  -6  475.55   56.79
   8  -6   6  376.56   34.80
   8   6   6  501.25   25.30
 -10  -6  -6   11.50   24.90
 -10  -6  -6   24.20    9.40
  10  -6   6    3.10    8.90
  10   6   6   -6.90    7.10
  10   6   6   24.30   35.00
 -12  -6  -6   -5.20   23.60
 -12  -6  -6   13.90   10.40
  12  -6   6  -18.70   10.50
  12   6   6  -28.20   29.50
  14  -6   6   74.49   18.50
 -14  -6  -6   98.19   18.60
  14   6   6  118.49   17.90
  14   6   6   62.39   43.30
  16  -6   6   -2.80   16.10
 -16  -6  -6   36.20   15.50
  16   6   6    4.10   11.70
  16   6   6   94.59   52.09
  18  -6   6   65.39   24.10
  18   6   6    4.80   40.40
  18   6   6   19.70   14.20
  20  -6   6   11.10   23.80
  20   6   6   26.80   17.90
  20   6   6   18.90   54.59
  23  -7  -6   38.60   27.80
 -23  -7   6   -8.20   14.20
  23   7  -6  -26.10   42.00
 -21  -7   6   42.10   18.50
  21  -7  -6   34.70   23.50
  21   7  -6   50.39   48.70
 -19  -7   6  -17.70   12.30
  19  -7  -6   15.70   21.00
  19   7  -6   18.20   39.30
 -19   7   6   38.90   27.10
  17  -7  -6  293.47   38.60
 -17  -7   6  271.97   30.40
  17   7  -6  350.66   74.59
 -17   7   6  282.77   41.80
  17   7  -6  254.07   29.80
  15  -7  -6   18.70   16.20
 -15  -7   6  -16.10   11.40
  15  -7  -6   -6.40   15.00
  15   7  -6   35.00   31.60
  15   7  -6   15.80   15.30
 -15   7   6   11.00   20.20
  13  -7  -6  116.69   28.20
 -13  -7   6   30.50   23.80
  13  -7  -6   19.70   15.10
 -13  -7   6   50.09   16.80
 -13   7   6   50.49   22.60
  13   7  -6   39.30   32.50
  13   7  -6  104.79   19.40
 -11  -7   6  441.36   33.80
 -11  -7   6  385.26   53.19
  11  -7  -6  547.55   45.00
  11  -7  -6  439.26   34.70
  11   7  -6  489.65   33.60
  11   7  -6  448.26   63.09
   9  -7  -6    6.50   14.70
  -9  -7   6   -0.60    9.30
  -9  -7   6   25.10   20.00
   9  -7  -6   14.20   11.40
   9   7  -6   25.70   12.00
   9   7  -6   48.70   28.00
  -7  -7   6   25.60   22.60
   7  -7  -6   78.49   23.60
  -7  -7   6   48.20   14.50
   7  -7  -6   52.39   13.90
   7   7  -6   27.00   11.10
   7   7  -6  -22.90   18.30
  -5  -7   6  143.99   33.50
   5  -7  -6   78.09   14.70
  -5  -7   6   75.39   16.40
   5  -7  -6   80.99   23.30
   5   7  -6   51.39   30.50
   5   7  -6   91.79   16.00
   3  -7  -6    9.20   17.10
  -3  -7   6    2.30   17.30
   3  -7  -6   17.90    8.00
  -3  -7   6   13.10   11.00
   3   7  -6    8.40    8.70
   3   7  -6   -2.20   19.00
  -1  -7   6   61.79   23.90
   1  -7  -6   57.39   28.70
  -1  -7   6   94.99   19.00
   1  -7  -6   71.09   11.50
  -1  -7  -6  213.38   46.80
   1  -7   6  249.88   24.40
   1  -7   6  241.88   35.80
  -1  -7  -6  218.18   16.10
   3  -7   6   38.00   19.80
   3  -7   6   34.00   14.00
  -3  -7  -6   41.70    8.40
  -3  -7  -6   28.70   27.40
  -5  -7  -6  148.59   41.40
   5  -7   6  170.98   20.80
   5  -7   6  168.88   22.90
  -5  -7  -6  190.78   13.80
   5  -7   6  140.59   26.30
   7  -7   6   94.89   23.00
  -7  -7  -6  112.89   12.50
  -7  -7  -6   81.59   37.20
   7  -7   6   91.29   16.40
   7  -7   6  134.99   22.40
   7   7   6  103.89   11.10
   9  -7   6  193.58   29.50
  -9  -7  -6  196.58   16.70
   9  -7   6  170.68   19.40
   9  -7   6  135.79   24.90
  -9  -7  -6  240.88   56.29
   9   7   6  178.08   15.90
 -11  -7  -6   66.59   13.60
  11  -7   6   57.49   20.40
  11  -7   6   64.29   14.60
  11   7   6   78.09   12.80
 -13  -7  -6  301.17   25.00
  13  -7   6  295.07   34.70
  13  -7   6  286.87   26.90
  13   7   6  262.97   23.60
  13   7   6  212.08   64.99
 -15  -7  -6    9.20   12.70
  15  -7   6   -6.50   14.20
  15   7   6   19.40   12.80
  15   7   6  -36.70   32.30
  17  -7   6    7.80   16.70
  17   7   6   15.70   13.60
  17   7   6  -21.20   41.10
  19   7   6  -30.60   47.30
  19   7   6   11.00   14.90
  22  -8  -6   73.89   30.10
 -22  -8   6   35.20   19.40
  22   8  -6   98.49   57.19
  20  -8  -6   17.20   22.70
 -20  -8   6   -3.50   15.20
  20   8  -6  -13.40   35.70
  18  -8  -6   19.60   21.20
 -18  -8   6   28.70   16.10
 -18   8   6    0.90   23.10
  18   8  -6   75.09   47.80
 -16  -8   6   69.39   19.80
  16  -8  -6  123.69   29.60
  16   8  -6   43.90   17.60
  16   8  -6  101.19   45.60
 -14  -8   6   15.40   14.20
  14  -8  -6   31.00   19.70
  14  -8  -6   34.50   21.60
  14   8  -6   24.90   14.40
 -12  -8   6  163.08   24.20
 -12  -8   6   57.49   34.90
  12  -8  -6  149.29   31.80
  12  -8  -6  181.78   25.60
  12   8  -6  144.39   48.60
  12   8  -6  204.88   24.00
  10  -8  -6   59.69   24.40
 -10  -8   6   72.29   17.80
 -10  -8   6   28.20   24.30
  10  -8  -6   39.20   15.50
  10   8  -6   13.80   12.30
  10   8  -6   78.29   39.80
  -8  -8   6   -0.50   20.30
  -8  -8   6   27.30   14.40
   8  -8  -6    1.00   10.60
   8  -8  -6    2.90   16.10
   8   8  -6   -0.20   10.20
   8   8  -6   -5.00   25.80
   6  -8  -6  331.97   27.50
  -6  -8   6  353.76   30.40
   6  -8  -6  377.46   39.20
  -6  -8   6  258.77   42.20
   6   8  -6  380.76   30.10
   6   8  -6  401.66   57.19
  -4  -8   6   18.60   13.70
  -4  -8   6  -28.70   14.00
   4  -8  -6   19.30   10.60
   4  -8  -6    4.10    9.50
   4  -8  -6    0.80   15.90
   4   8  -6   65.59   30.60
   4   8  -6   -2.90    8.90
   2  -8  -6  108.39   31.60
   2  -8  -6    2.40   22.60
  -2  -8   6   47.50   15.10
  -2  -8   6   67.89   24.80
   2  -8  -6   59.39   12.50
   2   8  -6   48.90   14.10
   0  -8  -6   55.09   11.20
   0  -8   6   51.79   17.00
   0  -8  -6   57.89   30.60
   0  -8   6   58.19   23.90
   2  -8   6  209.38   33.50
   2  -8   6  184.78   24.20
  -2  -8  -6  123.19   45.20
  -2  -8  -6  129.39   14.10
  -4  -8  -6    7.50   24.30
   4  -8   6   -3.50   11.80
   4  -8   6   -2.40   31.60
   4  -8   6    2.90   13.00
  -4  -8  -6   15.70    7.00
   6  -8   6   11.40   19.00
  -6  -8  -6  -12.80   23.90
  -6  -8  -6   -8.70    6.80
   6  -8   6  -17.60   10.90
   6  -8   6  -15.00   11.00
   8  -8   6    8.50   18.70
  -8  -8  -6   68.09   11.00
   8  -8   6   44.20   15.70
   8  -8   6   59.69   19.80
   8   8   6   56.29    9.50
 -10  -8  -6  151.28   16.90
  10  -8   6  123.99   28.60
  10  -8   6  195.78   22.50
  10  -8   6  136.79   25.40
  10   8   6  152.18   15.70
  12  -8   6   71.09   26.00
  12  -8   6   95.39   18.40
  12  -8   6  106.39   24.70
 -12  -8  -6  121.99   17.10
  12   8   6   45.70   14.50
  14  -8   6    8.00   17.80
  14  -8   6   31.30   14.00
  14  -8   6   52.89   23.70
  14   8   6    8.80   10.80
  16  -8   6    8.40   21.50
  16  -8   6   13.60   16.60
 -16  -8  -6   10.30   14.00
  16   8   6   15.10   12.70
  18   8   6   36.80   16.10
  19  -9  -6    9.60   24.70
 -19  -9   6  -20.20   13.60
  19   9  -6   19.40   43.50
 -17  -9   6  -18.30   12.50
  17  -9  -6   -4.20   17.50
  17   9  -6   49.40   45.90
  15  -9  -6    5.00   17.40
 -15  -9   6    1.40   14.30
  15   9  -6   33.80   16.40
  15   9  -6   -0.30   36.40
  13  -9  -6  142.19   32.70
 -13  -9   6  112.59   22.40
  13   9  -6   79.19   19.80
  13   9  -6  197.38   58.89
 -11  -9   6  -14.40   10.80
  11  -9  -6   13.40   19.80
  11  -9  -6   -6.20   11.30
  11   9  -6   18.00   31.80
  11   9  -6   13.90   12.90
   9  -9  -6   13.60   13.40
   9  -9  -6   52.29   25.00
  -9  -9   6   93.09   19.90
  -9  -9   6   40.50   28.40
   9   9  -6  -35.60   26.90
   7  -9  -6  387.06   30.50
  -7  -9   6  310.87   30.70
   7  -9  -6  338.27   41.50
   7  -9  -6  281.77   28.70
  -7  -9   6  408.36   51.79
   7   9  -6  347.67   31.40
   7   9  -6  352.26   65.19
   5  -9  -6   -0.20   23.60
  -5  -9   6   -1.30   18.80
   5  -9  -6  -15.20    9.30
   5  -9  -6    0.10   10.60
   5  -9  -6  -19.10   14.00
  -5  -9   6    8.50   13.40
   5   9  -6  -39.90   21.90
   5   9  -6  -26.50    9.10
  -3  -9   6  162.48   24.50
   3  -9  -6  212.38   39.10
  -3  -9   6  207.28   42.40
   3  -9  -6  137.19   42.30
   3  -9  -6  144.09   19.60
   1  -9  -6   19.40   31.60
   1  -9  -6   74.09   30.30
  -1  -9   6   72.49   19.00
   1  -9  -6  100.29   16.20
  -1  -9   6   86.69   30.40
   1  -9   6   17.10   15.80
   1  -9   6   33.30   24.80
  -1  -9  -6   55.59   12.00
  -1  -9  -6   15.60   29.30
   3  -9   6   32.40   16.10
  -3  -9  -6   92.19   13.30
   3  -9   6   45.60   20.90
   3  -9   6   80.69   29.00
  -3  -9  -6  113.29   48.00
   5  -9   6   44.30   19.70
  -5  -9  -6   67.69   11.60
   5  -9   6   77.99   28.80
   7  -9   6    3.40   21.90
  -7  -9  -6   24.70   10.10
   7  -9   6   14.70   15.10
   7  -9   6   95.09   36.50
   9  -9   6   22.80   29.20
   9  -9   6   64.09   18.10
   9  -9   6   68.59   23.50
  -9  -9  -6   72.39   13.30
  11  -9   6   -4.40   15.20
  11  -9   6   28.50   23.70
 -11  -9  -6   11.90    9.80
  11  -9   6  -11.40   12.90
  11   9   6    0.50    8.30
  13  -9   6   13.20   14.20
  13  -9   6   28.70   25.50
  13  -9   6  -27.20   14.60
 -13  -9  -6   19.90   11.70
  13   9   6   19.30   13.40
  15  -9   6   24.50   22.30
 -15  -9  -6   46.30   15.70
  15  -9   6   38.30   23.80
  15  -9   6   29.60   17.10
  15   9   6   41.70   12.90
  18 -10  -6    6.30   23.90
 -18 -10   6    1.50   15.80
  18  10  -6   -1.20   41.80
 -16 -10   6   54.39   22.10
  16  10  -6   32.50   47.20
  14 -10  -6    3.30   18.60
 -14 -10   6   14.10   14.60
  14  10  -6   -8.40   34.80
  12 -10  -6   38.00   24.00
 -12 -10   6   22.40   16.30
  12  10  -6  -11.90   37.50
  12  10  -6   32.30   15.70
  10 -10  -6   41.70   22.40
  10 -10  -6   18.10   16.40
 -10 -10   6   27.20   16.20
  10  10  -6   65.79   44.20
  10  10  -6   25.90   15.90
   8 -10  -6  211.98   38.50
  -8 -10   6  192.68   27.60
   8 -10  -6  179.58   25.30
   8  10  -6  149.59   25.00
   8  10  -6  220.18   56.89
  -6 -10   6   18.60   14.30
   6 -10  -6   -2.40   11.00
   6 -10  -6   -7.90   10.80
  -6 -10   6   -2.20   24.70
   6 -10  -6   -6.40   26.00
   6 -10  -6   15.10   21.80
   6  10  -6   -3.10   36.60
   6  10  -6   -1.00   11.70
  -4 -10   6   12.20   14.00
   4 -10  -6   28.20   12.90
   4 -10  -6    4.50   12.10
   4 -10  -6  -13.70   19.80
   4 -10  -6   26.60   34.30
  -4 -10   6   27.60   26.00
   2 -10  -6  284.77   42.60
   2 -10  -6  230.68   22.80
  -2 -10   6  140.49   39.30
  -2 -10   6  243.08   29.00
   0 -10  -6   11.90   27.10
   0 -10   6   -4.80   21.80
   0 -10   6    9.30   14.90
   2 -10   6  -20.70   11.80
  -2 -10  -6   -1.40    9.60
   2 -10   6  -17.30   20.20
   4 -10   6   41.10   27.00
  -4 -10  -6   -3.90    8.70
   4 -10   6  -16.80   17.20
   4 -10   6   18.20   27.80
   6 -10   6   12.90   16.20
   6 -10   6    8.20   24.90
  -6 -10  -6    6.50    9.00
   6 -10   6    2.00   16.80
  -8 -10  -6   35.40   11.00
   8 -10   6   28.60   19.90
   8 -10   6   14.00   17.20
   8 -10   6    5.90   25.60
  10 -10   6   31.70   28.90
  10 -10   6   32.70   20.10
 -10 -10  -6   27.80   11.90
  10 -10   6   19.60   18.90
  12 -10   6   28.70   17.80
 -12 -10  -6   14.00   11.40
  12 -10   6   30.40   19.70
  14 -10   6    8.00   14.60
  14 -10   6    9.20   19.60
  14 -10   6    8.40   24.80
 -14 -10  -6    9.80   15.80
  14  10   6   12.70   11.60
  15 -11  -6   21.00   21.00
 -15 -11   6  -16.50   14.20
  15  11  -6   83.49   51.99
  13 -11  -6    9.20   21.00
 -13 -11   6   18.70   17.40
  13  11  -6  -48.30   37.50
  11 -11  -6   15.60   21.80
  11 -11  -6   25.10   19.80
 -11 -11   6   32.40   15.60
  11  11  -6    8.80   39.20
   9 -11  -6    8.50   13.90
   9 -11  -6   17.20   23.90
   9 -11  -6   12.40   14.20
  -9 -11   6   37.60   16.20
   9  11  -6    8.20   40.90
   7 -11  -6   48.50   18.60
   7 -11  -6   33.10   28.90
  -7 -11   6   92.79   22.70
   7 -11  -6   70.59   19.10
   5 -11  -6   12.50   11.60
  -5 -11   6   16.20   15.80
   5 -11  -6   17.20   14.20
   5 -11  -6   23.40   21.00
   3 -11  -6   65.99   30.80
   3 -11  -6  108.49   20.20
  -3 -11   6   74.29   35.40
  -3 -11   6  132.09   26.40
  -1 -11   6  211.58   28.90
  -1 -11   6  114.19   40.10
   1 -11  -6  150.08   20.40
   1 -11  -6  171.28   40.40
  -1 -11  -6   39.60   13.70
   1 -11   6   23.80   15.40
   3 -11   6   49.30   19.50
   3 -11   6   96.29   39.00
   3 -11   6  106.39   29.60
   5 -11   6   28.40   29.80
   5 -11   6   43.00   21.00
   5 -11   6   21.60   17.60
  -5 -11  -6    6.90   10.00
   7 -11   6   21.40   19.10
  -7 -11  -6    8.60   10.60
   7 -11   6  -10.40   27.80
   7 -11   6   -0.90   16.40
   9 -11   6   25.80   29.10
  -9 -11  -6   36.70   11.90
   9 -11   6   35.90   20.10
   9 -11   6   25.00   21.60
  11 -11   6  -13.40   17.80
  11 -11   6  -12.90   30.60
 -11 -11  -6   13.10   11.00
  11 -11   6   26.60   18.20
  12 -12  -6   24.20   16.40
  12 -12  -6   -9.10   20.40
 -12 -12   6   -1.00   15.00
  12  12  -6  135.19   63.19
  10 -12  -6   19.10   14.90
 -10 -12   6   25.30   16.20
  10 -12  -6   20.50   21.70
   8 -12  -6   12.30   21.60
   8 -12  -6   16.90   16.10
  -8 -12   6    3.10   14.90
   6 -12  -6   12.90   25.00
   6 -12  -6   23.50   14.60
   6 -12  -6   16.40   15.20
  -6 -12   6    7.60   14.90
   4 -12  -6    6.80   12.60
   4 -12  -6    8.30   26.40
  -4 -12   6   12.80   16.00
  -2 -12   6   34.40   17.70
   2 -12  -6   38.40   14.70
   2 -12  -6    4.50   24.90
   0 -12  -6  -24.20    9.20
   0 -12   6   -6.20   13.10
   0 -12  -6   12.10   27.20
   0 -12   6  -32.60   25.20
   2 -12   6   27.50   16.50
   2 -12   6   35.30   25.90
   2 -12   6   16.30   33.70
  -2 -12  -6   13.80   12.00
   4 -12   6   27.20   21.40
   4 -12   6   35.70   34.80
  -4 -12  -6    4.90   10.80
   4 -12   6   20.10   17.80
   6 -12   6   10.00   32.10
   6 -12   6   17.30   17.00
   6 -12   6   19.70   18.00
   8 -12   6   22.30   21.70
   8 -12   6   23.70   20.30
   8 -12   6   29.50   33.50
  -8 -12  -6   64.79   14.60
   9 -13  -6   27.80   25.00
   9 -13  -6   10.30   15.50
  -9 -13   6   31.60   17.60
   7 -13  -6   26.70   17.20
   7 -13  -6  -11.40   22.00
  -7 -13   6    3.40   15.80
   5 -13  -6    0.70   13.40
   5 -13  -6    3.20   24.40
  -5 -13   6   46.90   19.90
   3 -13  -6   28.90   14.30
   3 -13  -6   10.10   14.40
   3 -13  -6   62.59   32.20
  -3 -13   6  -24.70   12.50
   1 -13  -6   10.40   13.40
  -1 -13   6   47.80   19.90
   1 -13  -6   65.79   35.60
   1 -13   6  -10.60   14.20
  -1 -13  -6   -0.40   25.80
  -1 -13  -6   11.00   11.90
   1 -13   6   21.70   27.40
   3 -13   6   14.30   19.80
  -3 -13  -6  -42.00   27.70
  -3 -13  -6   18.40   13.50
   3 -13   6  -31.40   22.00
 -26   0   7   30.80   21.80
  26   0  -7  -14.90   28.80
 -24   0   7   22.40   19.50
  24   0  -7   -6.30   28.50
 -22   0   7  -13.80   12.60
  22   0  -7   -3.90   25.40
  20   0  -7    3.10   12.10
 -20   0   7   21.90   20.00
 -20   0   7   20.90   14.40
  20   0  -7  -23.20   19.90
 -18   0   7   10.70   12.50
  18   0  -7   34.70   26.20
  18   0  -7   18.60   12.70
 -18   0   7   21.70   19.20
 -16   0   7  -10.00   10.20
  16   0  -7  -15.50    8.20
 -16   0   7  -11.00   12.30
  16   0  -7  -11.90   14.40
 -14   0   7    4.50   13.10
  14   0  -7    6.80    8.70
 -14   0   7   -2.30    9.00
  14   0  -7   -2.90   14.60
 -12   0   7    9.10    9.90
 -12   0   7  -17.60   10.40
  12   0  -7    2.80   16.80
  12   0  -7    2.50    8.80
 -10   0   7    5.10   11.60
  10   0  -7    8.10    8.40
  10   0  -7   -4.70   12.90
 -10   0   7    9.40    8.70
   8   0  -7    2.40    7.20
  -8   0   7    0.80    9.80
  -8   0   7   14.60    8.30
   8   0  -7   14.50   11.80
  -6   0   7    2.50    9.70
   6   0  -7    6.30   11.70
  -6   0   7    2.70    7.30
   6   0  -7    3.50    6.50
  -4   0   7   -5.70    6.20
  -4   0   7    9.90    9.60
   4   0  -7   -5.40    8.80
   4   0  -7   -3.50    5.90
   2   0  -7   12.50    8.80
  -2   0   7    5.80    6.30
  -2   0   7    2.60    8.30
   2   0  -7   10.40    6.00
   0   0  -7   28.00    7.20
   0   0  -7   20.50   10.10
   0   0   7   36.90    7.70
   0   0   7   39.80   11.10
   2   0   7    8.10    5.50
  -2   0  -7    2.60    7.70
  -4   0  -7    6.50   11.70
   6   0   7  -14.80    6.40
  -6   0  -7   -4.20   11.90
  -8   0  -7   -3.00   10.00
   8   0   7   -4.00   14.60
  10   0   7    5.40    9.30
  10   0   7    8.00   18.80
 -10   0  -7   -2.40   11.00
  12   0   7   -6.90   18.80
  12   0   7    2.60   11.20
  14   0   7   -7.00   12.20
 -14   0  -7   -6.50   15.50
  16   0   7    1.50   12.70
  16   0   7   -7.30   23.40
 -16   0  -7  -11.10   15.90
  18   0   7   36.80   23.10
 -18   0  -7   36.10   22.50
  18   0   7   67.29   37.30
 -20   0  -7    8.20   19.40
  20   0   7   -6.40   35.50
 -22   0  -7   22.60   24.50
  22   0   7    0.20   41.40
 -27  -1   7   -1.70   18.50
  27  -1  -7   49.40   42.10
 -27   1   7  -15.60   19.30
  27   1  -7   34.90   40.60
 -25  -1   7  106.59   28.70
  25  -1  -7  160.48   46.00
  25   1  -7   48.70   37.40
 -25   1   7   72.49   25.50
 -23  -1   7  144.59   29.20
  23  -1  -7  146.89   42.70
  23   1  -7  168.08   47.50
 -23   1   7  175.98   33.50
  21  -1  -7  145.09   42.50
 -21  -1   7  118.09   38.30
 -21  -1   7  136.49   27.40
 -21   1   7  209.18   33.30
 -21   1   7  149.39   32.80
  21   1  -7  169.68   47.70
 -19  -1   7   79.79   29.10
  19  -1  -7  101.99   22.90
 -19  -1   7  105.39   22.10
  19  -1  -7  147.49   37.20
 -19   1   7   99.29   31.40
 -19   1   7  119.89   25.80
  19   1  -7   87.79   32.70
  19   1  -7   93.19   21.20
  17  -1  -7    6.10   16.90
  17  -1  -7    6.40   11.50
 -17  -1   7   44.80   22.20
 -17  -1   7   21.30   13.50
  17   1  -7   52.29   27.10
 -17   1   7    9.90   14.70
  17   1  -7    2.80   10.70
 -17   1   7   15.10   15.20
  15  -1  -7  184.28   21.40
  15  -1  -7  187.38   30.10
 -15  -1   7  179.48   22.00
 -15  -1   7  239.38   30.80
 -15   1   7  207.98   23.30
 -15   1   7  153.78   25.50
  15   1  -7  129.59   31.80
  15   1  -7  154.48   19.80
 -13  -1   7  202.68   28.20
  13  -1  -7  211.68   29.80
 -13  -1   7  236.38   22.90
  13  -1  -7  204.88   21.20
  13   1  -7  223.38   21.50
 -13   1   7  192.28   22.00
  13   1  -7  236.28   33.70
 -13   1   7  150.58   24.40
 -11  -1   7  781.12   41.60
  11  -1  -7  727.23   49.30
  11  -1  -7  677.93   39.80
 -11  -1   7  753.72   49.50
 -11   1   7  728.83   47.30
  11   1  -7  718.53   52.59
 -11   1   7  707.23   41.20
  11   1  -7  748.03   40.20
   9  -1  -7 1113.19   60.89
   9  -1  -7 1052.79   51.99
  -9  -1   7 1088.39   52.69
  -9  -1   7 1084.49   61.09
  -9   1   7 1177.28   59.89
  -9   1   7 1076.69   52.69
   9   1  -7 1116.79   52.59
   9   1  -7 1057.69   62.79
   7  -1  -7  373.16   22.80
  -7  -1   7  417.26   30.40
   7  -1  -7  364.46   29.50
  -7  -1   7  363.16   23.50
   7   1  -7  368.66   31.30
   7   1  -7  379.36   23.10
  -7   1   7  375.66   28.80
  -7   1   7  338.47   22.90
  -5  -1   7  168.88   19.90
   5  -1  -7  178.98   20.40
  -5  -1   7  143.89   14.60
   5  -1  -7  187.38   14.10
   5   1  -7  174.38   14.80
   5   1  -7  184.38   21.30
  -5   1   7  189.28   20.20
  -5   1   7  170.28   14.50
   3  -1  -7  843.32   37.30
  -3  -1   7  821.52   42.40
  -3  -1   7  910.81   40.20
   3  -1  -7  784.52   44.10
  -3   1   7  850.31   44.90
   3   1  -7  859.21   39.50
   3   1  -7  883.31   43.90
  -3   1   7  865.21   37.60
   1  -1  -7  275.67   22.30
   1  -1  -7  285.37   14.90
  -1  -1   7  291.87   18.90
  -1  -1   7  283.87   18.40
  -1   1   7  282.87   23.00
  -1   1   7  289.47   15.00
   1   1  -7  265.47   17.60
   1   1  -7  261.87   19.10
   1  -1   7 9767.62  375.96
  -1  -1  -7 9999.00  382.56
   1  -1   7 9543.14  377.66
  -1   1  -7 9758.82  375.76
   1   1   7 9723.03  374.26
  -3  -1  -7   17.30   15.00
   3  -1   7    9.30    7.10
  -3   1  -7   17.10    6.00
  -3   1  -7   19.40    8.50
  -5  -1  -7  760.52   48.20
   5   1   7  724.53   34.90
  -5   1  -7  691.43   35.90
  -7  -1  -7  -10.70   13.70
   7  -1   7  -10.90   11.40
   7   1   7   -5.00   16.70
   7   1   7   -1.20    7.30
  -7   1  -7    8.20    8.80
  -9  -1  -7  336.47   35.00
   9  -1   7  366.66   27.30
   9  -1   7  305.37   31.50
   9   1   7  350.46   42.00
   9   1   7  311.17   26.20
  -9   1  -7  323.47   24.60
  11  -1   7  139.99   19.90
  11  -1   7  140.89   27.40
 -11  -1  -7  110.39   24.50
  11   1   7  115.79   31.90
 -11   1  -7  127.59   19.20
  11   1   7  164.08   19.20
  13  -1   7  -31.30   18.10
 -13  -1  -7  -16.10   15.10
  13  -1   7    3.10   12.50
 -13   1  -7   43.90   15.90
  13   1   7    1.10   10.00
  13   1   7  -14.80   24.80
 -15  -1  -7  122.09   28.90
  15  -1   7  109.49   34.70
  15  -1   7   86.19   20.70
 -15   1  -7   92.49   21.80
  15   1   7  121.49   22.30
  15   1   7  130.49   42.50
  17  -1   7   64.59   33.40
 -17  -1  -7   45.50   25.90
  17  -1   7  139.79   26.00
 -17   1  -7  110.99   25.20
  17   1   7   63.59   38.20
  17   1   7  117.49   24.10
  19  -1   7    6.60   32.20
 -19   1  -7   29.40   21.20
  19   1   7   25.10   34.60
 -21  -1  -7    5.10   23.40
  21  -1   7   64.69   42.10
  21   1   7   25.30   43.50
 -21   1  -7   47.70   24.70
  26  -2  -7   -4.80   27.90
 -26  -2   7   27.60   20.20
  26   2  -7   22.40   34.80
 -24  -2   7   -9.20   14.30
  24  -2  -7  -24.30   24.80
  24   2  -7    8.50   31.70
 -24   2   7   24.10   19.60
 -22  -2   7   19.50   18.10
  22  -2  -7   -4.10   22.00
 -22   2   7   -9.40   13.00
 -22   2   7   11.10   20.40
 -20  -2   7  118.69   25.10
 -20  -2   7  143.59   34.00
  20  -2  -7   74.69   29.40
 -20   2   7   92.49   29.60
  20   2  -7  145.89   24.00
 -20   2   7  106.99   25.20
  20   2  -7  116.49   39.90
 -18  -2   7   13.00   19.20
  18  -2  -7   15.00   13.10
  18  -2  -7   10.30   20.70
 -18  -2   7   12.80   13.10
 -18   2   7   11.20   13.40
  18   2  -7    9.10   24.90
 -18   2   7   39.50   19.60
  18   2  -7   10.80   11.80
  16  -2  -7   40.70   20.60
  16  -2  -7   37.00   14.20
 -16  -2   7   18.40   13.60
 -16  -2   7   35.20   20.20
  16   2  -7   44.20   13.70
 -16   2   7   63.89   21.40
  16   2  -7   26.30   22.40
 -16   2   7   17.90   13.30
 -14  -2   7   -6.10   13.00
  14  -2  -7    5.30   14.30
  14  -2  -7    4.20   10.40
 -14  -2   7   12.00   10.00
  14   2  -7   16.60   10.30
 -14   2   7    1.20    9.70
  14   2  -7    4.00   17.60
 -14   2   7  -12.80    9.50
 -12  -2   7  -14.90   10.40
 -12  -2   7   25.90   12.00
  12  -2  -7    6.80    9.90
  12  -2  -7    7.40   13.20
  12   2  -7   15.50    9.80
 -12   2   7   20.30   10.90
 -12   2   7   26.80   14.70
  12   2  -7   13.50   17.50
 -10  -2   7   -0.90   12.60
 -10  -2   7    4.10    8.50
  10  -2  -7   27.40   14.00
  10  -2  -7   -1.50    7.90
 -10   2   7    6.60    9.60
 -10   2   7   -8.50   11.80
  10   2  -7  -19.70   12.40
  10   2  -7   14.60    9.00
  -8  -2   7    3.50   11.60
  -8  -2   7   28.40    9.40
   8  -2  -7   12.10   12.60
   8  -2  -7    2.80    7.40
  -8   2   7    3.30    9.40
   8   2  -7    4.40    7.80
  -8   2   7    2.90    7.70
   8   2  -7    0.20   14.00
  -6  -2   7 1955.80   81.89
   6  -2  -7 1903.51   88.59
   6  -2  -7 1854.31   79.89
  -6  -2   7 1989.60   90.09
   6   2  -7 1813.72   91.19
   6   2  -7 1879.41   81.29
  -6   2   7 1929.31   80.49
  -6   2   7 1870.41   88.29
  -4  -2   7  316.17   20.60
   4  -2  -7  277.57   17.10
   4  -2  -7  276.97   25.10
  -4  -2   7  281.97   24.50
  -4   2   7  305.77   25.80
  -4   2   7  296.87   17.80
   4   2  -7  308.87   27.00
   4   2  -7  309.47   19.80
   2  -2  -7  250.57   13.40
   2  -2  -7  279.47   23.70
  -2  -2   7  252.57   18.30
  -2  -2   7  246.28   19.70
   2   2  -7  236.58   21.00
  -2   2   7  283.17   24.80
   2   2  -7  239.28   17.60
  -2   2   7  244.88   13.70
   0  -2   7   26.50    8.60
   0  -2   7   20.90    6.90
   0  -2  -7   22.40   11.50
   0   2   7   11.40    3.10
   0   2  -7   13.00    7.10
   0   2  -7   27.80    8.40
  -2  -2  -7  181.68   32.20
   2  -2   7  150.68   14.80
   2   2   7  143.09    8.30
   2   2   7  134.39    8.60
   4  -2   7   33.20    9.60
  -4  -2  -7   19.60   18.70
   4   2   7   31.20    6.50
  -6  -2  -7  299.07   34.60
   6   2   7  274.47   18.00
  -8  -2  -7    9.80   16.90
   8  -2   7   -0.30   10.20
  -8   2  -7    5.60    6.50
   8   2   7   17.50   20.70
   8   2   7   13.90    7.60
  10  -2   7   -0.20   10.10
  10  -2   7    9.70   13.80
 -10  -2  -7   -4.30   16.90
  10   2   7    2.30   22.30
 -10   2  -7   21.60    8.70
  12  -2   7   26.00   13.30
  12  -2   7    4.20   16.60
 -12  -2  -7   14.60   20.80
  12   2   7   24.30   26.50
 -12   2  -7    3.80    9.60
  12   2   7   29.60   12.20
  14  -2   7  -25.90   17.70
 -14  -2  -7   21.80   22.70
  14  -2   7    2.90   11.70
  14   2   7  -38.20   25.90
  14   2   7   13.00   12.60
 -14   2  -7   -7.90   11.00
 -16  -2  -7    6.20   22.90
  16  -2   7   -2.40   23.20
  16  -2   7    7.50   15.70
  16   2   7   52.89   17.50
  16   2   7   -9.70   29.80
 -16   2  -7   11.70   17.90
 -18  -2  -7   95.09   34.00
  18  -2   7   56.69   32.70
 -18   2  -7   24.70   17.30
  18   2   7   83.19   44.20
  18   2   7   -5.40   14.30
  20  -2   7   61.79   38.30
 -20  -2  -7    6.00   27.10
 -20   2  -7   29.70   18.10
  20   2   7   -9.00   36.20
  22  -2   7   -2.80   39.30
 -22   2  -7   17.90   21.10
  22   2   7  -17.00   47.00
 -25  -3   7  202.68   34.60
  25  -3  -7  158.68   47.20
  25   3  -7  175.98   56.59
 -23  -3   7   41.50   20.40
  23  -3  -7    6.90   28.60
  23   3  -7   11.40   37.30
 -21  -3   7    5.00   13.50
  21  -3  -7   53.49   26.00
 -21   3   7  -10.10   17.10
 -21   3   7   12.90   17.10
  19  -3  -7   56.59   29.10
  19  -3  -7   69.09   28.00
 -19  -3   7   61.59   28.10
 -19  -3   7  134.09   24.80
  19   3  -7   83.69   20.10
  19   3  -7   97.29   36.10
 -19   3   7   94.39   31.10
 -19   3   7   63.69   21.60
  17  -3  -7    0.10   16.90
 -17  -3   7  -10.50   11.20
 -17  -3   7   28.60   19.80
  17  -3  -7    0.30   11.10
  17   3  -7   -0.50   21.60
 -17   3   7  -20.30   12.10
 -17   3   7   14.80   13.80
  17   3  -7   -4.20    8.70
 -15  -3   7 1399.36   70.29
  15  -3  -7 1361.56   70.59
 -15  -3   7 1442.26   85.29
  15  -3  -7 1302.07   79.79
 -15   3   7 1403.06   72.49
  15   3  -7 1426.56   95.09
 -15   3   7 1309.47   76.59
  15   3  -7 1349.66   68.69
 -13  -3   7  339.57   27.10
  13  -3  -7  295.47   26.10
  13  -3  -7  346.77   34.20
 -13  -3   7  271.77   34.40
 -13   3   7  312.27   28.00
  13   3  -7  274.47   41.30
 -13   3   7  292.37   30.20
  13   3  -7  267.37   24.00
  11  -3  -7   49.90   12.30
 -11  -3   7   46.10   13.00
 -11  -3   7   55.39   21.60
  11   3  -7   50.29   23.40
 -11   3   7   30.60   13.00
 -11   3   7   28.00   14.80
  11   3  -7   43.30   12.90
  -9  -3   7  753.02   50.99
   9  -3  -7  753.72   46.50
   9  -3  -7  718.43   46.90
  -9  -3   7  744.43   40.30
  -9   3   7  669.93   39.30
  -9   3   7  776.72   47.80
   9   3  -7  755.72   56.19
   9   3  -7  709.43   39.40
   7  -3  -7   41.50    9.80
   7  -3  -7   31.50   14.40
  -7  -3   7   26.30   10.10
  -7  -3   7   60.19   17.50
  -7   3   7   36.70   18.20
   7   3  -7   60.79   21.30
  -7   3   7   31.10   10.00
   7   3  -7   19.90   11.60
   5  -3  -7  157.98   13.40
  -5  -3   7  177.38   22.00
   5  -3  -7  192.18   22.10
  -5  -3   7  152.58   15.80
   5   3  -7  158.38   26.10
  -5   3   7  139.19   13.60
   5   3  -7  119.59   14.30
  -5   3   7  185.08   27.70
  -3  -3   7    9.10    7.60
  -3  -3   7   13.60   10.40
   3  -3  -7    4.90    4.70
   3  -3  -7   -1.40    9.40
   3   3  -7   -1.70   12.20
  -3   3   7   -2.50    9.60
   3   3  -7   15.90    8.20
  -3   3   7   -0.90    5.10
  -1  -3   7  215.38   18.40
   1  -3  -7  269.47   25.20
  -1  -3   7  221.08   18.90
   1  -3  -7  233.08   11.30
   1   3  -7  250.47   23.00
   1   3  -7  252.17   18.40
   1  -3   7   95.99   11.00
   1  -3   7  118.89   14.50
  -1   3  -7  115.79   15.20
   3  -3   7    8.70    8.90
  -3  -3  -7   28.70   20.50
  -5  -3  -7 1080.69   72.59
   5   3   7 1071.49   45.10
  -7  -3  -7   52.79   22.60
   7   3   7   11.10    6.80
   9  -3   7  339.27   22.20
  -9  -3  -7  308.77   40.90
   9   3   7  311.87   21.10
  -9   3  -7  298.17   16.80
   9   3   7  327.87   46.60
  11  -3   7  410.16   31.10
 -11  -3  -7  391.66   46.70
  11  -3   7  393.06   34.10
  11   3   7  416.86   54.59
  11   3   7  481.65   40.50
 -11   3  -7  444.56   25.70
  13  -3   7    5.40   15.40
 -13  -3  -7  -11.40   19.60
  13  -3   7   -1.10   13.20
  13   3   7   18.70   12.10
  13   3   7   47.10   33.40
 -13   3  -7   -7.30    9.80
  15  -3   7  608.14   48.20
 -15  -3  -7  567.24   59.69
  15  -3   7  593.04   48.70
 -15   3  -7  676.23   41.50
  15   3   7  737.93   78.39
  15   3   7  695.73   42.30
  17  -3   7   -7.60   22.40
 -17  -3  -7   -4.70   21.60
 -17   3  -7    7.10   14.30
  17   3   7   32.80   16.70
  17   3   7   25.60   38.40
  19  -3   7    8.50   28.60
  19   3   7   74.29   48.40
 -19   3  -7   23.10   18.50
  19   3   7   -0.40   15.20
  21  -3   7   46.20   37.60
  21   3   7   75.69   47.60
 -21   3  -7   90.59   26.80
  26  -4  -7   41.50   31.60
 -26  -4   7    1.50   17.00
  26   4  -7   11.50   43.90
 -24  -4   7   16.00   18.90
  24  -4  -7   33.10   32.90
  24   4  -7  -33.90   31.50
 -22  -4   7   86.09   24.50
  22  -4  -7   33.40   27.90
 -22   4   7  102.79   36.10
  22   4  -7  112.69   47.80
  20  -4  -7   -1.80   19.80
 -20  -4   7   11.10   14.00
 -20   4   7    6.70   18.40
  18  -4  -7  102.39   21.70
  18  -4  -7   95.49   27.30
 -18  -4   7   89.59   20.40
 -18  -4   7  109.89   34.00
 -18   4   7   82.49   25.90
  18   4  -7   91.99   20.00
  18   4  -7  152.58   42.60
 -16  -4   7  405.86   45.80
  16  -4  -7  406.36   38.30
  16  -4  -7  419.96   42.60
 -16  -4   7  449.76   34.50
  16   4  -7  439.26   33.10
  16   4  -7  373.66   62.79
 -16   4   7  346.17   38.40
 -14  -4   7   27.60   20.60
 -14  -4   7   31.30   13.60
  14  -4  -7   17.30   12.60
  14  -4  -7   -9.10   14.30
 -14   4   7   17.20   13.80
  14   4  -7   46.00   27.00
 -14   4   7    8.60   16.30
  14   4  -7   33.20   11.60
 -12  -4   7  114.49   29.10
 -12  -4   7   64.59   16.20
  12  -4  -7   64.59   15.20
  12  -4  -7   75.89   21.40
 -12   4   7   60.39   19.00
  12   4  -7   60.09   26.20
 -12   4   7   72.39   16.40
  12   4  -7   75.79   14.90
 -10  -4   7  261.07   22.70
  10  -4  -7  250.87   28.40
 -10  -4   7  200.18   30.00
  10  -4  -7  234.28   22.10
  10   4  -7  276.37   22.10
  10   4  -7  317.97   40.70
 -10   4   7  216.98   36.20
 -10   4   7  279.27   29.30
  -8  -4   7   35.90   11.50
   8  -4  -7   35.00   12.00
   8  -4  -7   10.20   13.60
  -8  -4   7   39.60   19.00
  -8   4   7   34.60   15.60
   8   4  -7  -18.90   15.70
   8   4  -7   20.70    9.80
   6  -4  -7    9.60   11.90
   6  -4  -7    0.20    6.80
  -6  -4   7   17.70   13.60
  -6  -4   7    6.90    9.00
   6   4  -7    7.30    7.20
  -6   4   7   11.50   12.30
   6   4  -7  -11.90   15.20
   4  -4  -7  330.37   30.40
   4  -4  -7  361.46   20.30
  -4  -4   7  321.87   30.20
  -4  -4   7  326.47   24.10
   4   4  -7  382.26   24.70
   4   4  -7  274.77   33.20
  -2  -4   7  269.17   21.80
   2  -4  -7  244.08   27.60
  -2  -4   7  261.07   25.40
   2  -4  -7  276.87   15.50
   2   4  -7  275.37   21.20
   2   4  -7  319.47   30.90
   0  -4   7 1032.40   51.49
   0  -4   7  959.80   49.90
   0   4  -7 1055.69   50.49
   0   4  -7 1042.00   55.79
   2  -4   7   79.19   15.70
   2  -4   7   52.39   11.10
  -2  -4  -7   71.69   28.00
   4  -4   7  207.78   21.40
  -4  -4  -7  241.98   42.00
   6  -4   7   25.90   12.00
  -6  -4  -7   48.00   23.20
   6   4   7   31.70    6.40
  -8  -4  -7  130.59   34.10
   8   4   7   77.19   31.20
   8   4   7   55.19    9.20
 -10  -4  -7   21.40   23.10
  10   4   7   28.90    9.10
  10   4   7  -16.60   24.10
  12  -4   7    2.80   11.90
  12  -4   7    6.20   12.60
 -12  -4  -7   13.20   23.80
  12   4   7  -39.50   24.00
  12   4   7   41.60   11.90
 -14  -4  -7   16.80   26.50
  14  -4   7    4.60   16.50
  14   4   7  -12.40   33.60
  14   4   7   20.70   11.40
 -14   4  -7    3.60    9.10
 -16  -4  -7   -3.70   23.90
  16  -4   7   17.20   20.00
  16   4   7    3.10   12.30
 -16   4  -7    8.00   10.80
  16   4   7   76.29   43.70
  18  -4   7   16.10   24.00
  18   4   7   20.40   16.00
 -18   4  -7   28.30   15.70
  18   4   7    6.50   44.40
  20  -4   7   28.60   31.00
  20   4   7   13.20   16.10
  20   4   7  -39.60   42.40
 -25  -5   7  133.39   31.90
  25  -5  -7   37.20   30.90
  25   5  -7   13.50   44.80
  23  -5  -7   66.79   33.50
 -23  -5   7   49.50   20.40
  23   5  -7  170.88   60.59
  21  -5  -7  201.88   39.90
  21   5  -7   89.69   48.40
 -21   5   7  318.77   51.59
  19  -5  -7   21.10   22.70
 -19  -5   7    5.50   15.00
 -19   5   7   38.30   24.40
  19   5  -7  -15.00   29.10
  19   5  -7   25.30   15.30
 -17  -5   7   23.30   21.70
  17  -5  -7   34.60   15.60
  17  -5  -7   -5.00   18.00
 -17  -5   7   -2.00   12.20
  17   5  -7   -3.80   28.80
  17   5  -7  -17.40   10.10
 -17   5   7    8.90   17.30
 -15  -5   7  -10.90   11.20
  15  -5  -7   -4.90   14.70
 -15  -5   7   21.30   21.00
  15   5  -7  -10.70   23.10
  15   5  -7    5.70   10.80
 -15   5   7   -4.20   13.70
  13  -5  -7  437.86   33.50
 -13  -5   7  423.66   45.90
  13  -5  -7  397.26   39.40
 -13  -5   7  429.76   32.90
  13   5  -7  476.25   32.40
  13   5  -7  496.35   58.19
 -13   5   7  411.76   38.70
  11  -5  -7  486.05   40.60
 -11  -5   7  484.85   32.70
  11  -5  -7  454.05   32.50
 -11  -5   7  430.46   45.10
  11   5  -7  474.05   32.00
 -11   5   7  508.45   41.10
  11   5  -7  518.95   56.19
   9  -5  -7  343.57   33.70
  -9  -5   7  366.46   27.00
   9  -5  -7  399.86   27.60
  -9  -5   7  351.86   38.20
   9   5  -7  366.16   46.00
   9   5  -7  333.97   25.80
  -9   5   7  322.37   33.40
   7  -5  -7   21.00   15.10
  -7  -5   7   -4.70   12.00
  -7  -5   7    4.60    8.00
   7  -5  -7  -12.20    6.80
  -7   5   7    2.20   12.70
   7   5  -7    3.90   25.30
   7   5  -7   -0.70    7.40
   5  -5  -7  689.93   48.20
   5  -5  -7  673.53   35.90
  -5  -5   7  734.03   50.29
   5   5  -7  696.83   38.80
   5   5  -7  766.22   56.99
  -3  -5   7   -2.90   12.40
   3  -5  -7   22.50   17.50
   3  -5  -7   17.90    6.80
   3   5  -7    7.70    8.80
   3   5  -7   18.40   18.80
   1  -5  -7  201.68   13.20
  -1  -5   7  236.68   22.10
   1  -5  -7  246.68   30.00
  -1  -5   7  221.78   25.20
   1  -5  -7  226.28   13.80
   1   5  -7  182.08   29.30
   1   5  -7  201.08   19.50
   1  -5   7  725.43   41.50
   1  -5   7  664.13   38.50
  -1  -5  -7  634.44   60.09
  -1  -5  -7  643.74   27.50
   3  -5   7   72.99   15.70
  -3  -5  -7   16.40   21.80
   3  -5   7   61.69   11.50
   3  -5   7   33.00   12.70
  -5  -5  -7  205.78   43.60
   5  -5   7  180.78   13.50
   5  -5   7  196.88   17.20
   5  -5   7  196.28   22.20
  -5  -5  -7  186.58   11.10
   5   5   7  166.88   10.30
   7  -5   7  121.39   21.00
  -7  -5  -7  106.49   11.20
  -7  -5  -7  153.68   36.40
   7   5   7  119.99   10.90
  -9  -5  -7   66.69   11.20
  -9  -5  -7   77.39   30.90
   9   5   7   37.00    9.10
  11   5   7  307.87   22.20
  11   5   7  338.57   66.89
 -13  -5  -7  160.58   42.50
  13  -5   7  228.38   22.20
  13   5   7  236.18   21.80
  13   5   7  355.36   70.69
  15  -5   7   51.49   17.20
  15   5   7   24.50   12.40
  15   5   7   36.70   43.50
  17  -5   7   28.20   20.50
  17   5   7   20.30   13.90
  17   5   7   28.20   44.90
  19  -5   7   -1.00   22.70
  19   5   7  103.19   54.99
  24  -6  -7   -2.10   22.60
 -24  -6   7   17.80   18.00
  24   6  -7  -21.40   38.50
  22  -6  -7   66.99   30.30
 -22  -6   7   30.80   19.00
  22   6  -7   69.49   44.80
 -20  -6   7   24.80   17.60
  20  -6  -7    5.10   21.30
  20   6  -7   18.60   33.70
 -20   6   7    1.70   22.90
 -18  -6   7   17.20   15.10
  18  -6  -7  111.29   31.80
 -18   6   7   64.39   27.40
  18   6  -7   52.79   17.40
  18   6  -7   88.09   42.20
 -16  -6   7   28.90   16.20
  16  -6  -7    3.00   12.50
  16  -6  -7   28.10   20.90
  16   6  -7   -3.60   26.70
  16   6  -7   53.49   17.20
 -16   6   7    0.70   18.20
 -14  -6   7  140.49   34.40
 -14  -6   7  145.29   23.00
  14  -6  -7  106.29   27.60
  14   6  -7  109.59   39.30
  14   6  -7  113.29   20.00
 -14   6   7  117.09   28.90
  12  -6  -7   29.90   17.40
  12  -6  -7   46.20   15.50
 -12  -6   7   37.80   13.90
 -12  -6   7   19.10   18.80
 -12   6   7    6.10   16.00
  12   6  -7   51.09   31.60
  12   6  -7   26.40   11.80
 -10  -6   7  168.58   20.50
 -10  -6   7  137.99   32.40
  10  -6  -7  141.29   28.20
  10  -6  -7  129.89   19.20
 -10   6   7  191.28   31.70
  10   6  -7  207.48   20.70
  10   6  -7  177.08   42.30
  -8  -6   7  196.48   32.10
  -8  -6   7  169.68   20.30
   8  -6  -7  135.99   18.10
   8  -6  -7  194.98   33.10
   8   6  -7  197.18   44.20
   8   6  -7  191.58   19.50
   6  -6  -7   24.80   16.20
  -6  -6   7    6.30   15.90
   6  -6  -7   49.80   13.00
  -6  -6   7   46.00   13.70
   6   6  -7   31.90   10.90
   6   6  -7   16.30   22.80
   4  -6  -7  206.78   17.10
   4  -6  -7  179.68   28.10
  -4  -6   7  216.48   21.90
  -4  -6   7  219.28   30.90
   4   6  -7  205.68   20.00
   4   6  -7  218.58   40.30
  -2  -6   7   35.50   18.10
  -2  -6   7   10.30   10.50
   2  -6  -7   31.20    8.40
   2  -6  -7   13.20    7.00
   2  -6  -7   36.20   19.50
   2   6  -7   -0.50   15.50
   2   6  -7    0.80    8.50
   0  -6   7   20.80   15.00
   0  -6  -7   17.70    6.20
   0  -6  -7   27.40   23.10
   0  -6   7   29.80   12.40
  -2  -6  -7  212.18   47.00
   2  -6   7  176.88   25.50
   2  -6   7  208.78   23.00
  -2  -6  -7  222.98   12.30
   4  -6   7   21.80   13.30
   4  -6   7   21.40   10.60
  -4  -6  -7  -12.90   17.30
  -4  -6  -7   16.70    4.80
   4  -6   7   24.80   13.80
  -6  -6  -7  -36.30   13.70
   6  -6   7   23.40   12.10
  -6  -6  -7   11.30    5.30
   6  -6   7   15.30    8.00
   6  -6   7   -9.60    9.80
   6   6   7    6.30    4.70
   8  -6   7  201.58   15.90
  -8  -6  -7  146.09   44.90
  -8  -6  -7  188.88   14.80
   8  -6   7  160.58   19.80
   8  -6   7  228.38   26.70
   8   6   7  193.18   14.30
 -10  -6  -7   65.29   11.80
 -10  -6  -7   52.79   30.00
  10   6   7   94.59   13.30
 -12  -6  -7   64.89   36.30
 -12  -6  -7   99.19   15.40
  12   6   7  101.39   14.60
  12   6   7  173.18   54.49
  14   6   7    3.50   10.00
  14   6   7   21.40   41.00
  16   6   7  -14.70   41.90
  16   6   7   73.99   16.90
  18   6   7   44.60   51.09
  18   6   7    7.10   14.60
 -23  -7   7   11.90   17.40
  23  -7  -7   21.90   25.60
  23   7  -7    1.90   40.30
 -21  -7   7   51.09   20.60
  21  -7  -7   58.49   28.60
  21   7  -7   74.29   46.90
  19  -7  -7   87.29   29.20
 -19  -7   7   85.89   21.60
  19   7  -7   86.69   48.00
 -19   7   7   50.89   30.20
  17  -7  -7   43.00   22.90
 -17  -7   7   24.90   15.60
  17   7  -7   10.90   15.40
  17   7  -7  -35.30   28.00
 -17   7   7  -15.70   19.90
  15  -7  -7  277.77   30.30
  15  -7  -7  222.58   34.80
 -15  -7   7  250.57   29.10
  15   7  -7  340.17   65.49
  15   7  -7  254.87   28.20
  13  -7  -7   -9.00   14.50
 -13  -7   7   26.70   13.30
 -13  -7   7  -15.40   18.60
  13   7  -7   24.10   13.90
  13   7  -7   15.50   32.20
 -13   7   7    4.50   18.10
 -11  -7   7   -1.00   10.50
 -11  -7   7  -19.70   16.30
  11  -7  -7   -5.50   14.50
  11  -7  -7   -4.60   10.40
  11   7  -7   32.50   31.30
  11   7  -7   -3.40    9.60
  -9  -7   7   80.09   17.60
   9  -7  -7   55.79   19.50
  -9  -7   7   51.29   24.60
   9  -7  -7   25.10   12.30
   9   7  -7   34.20   12.20
   9   7  -7   -6.00   22.80
  -7  -7   7    1.30    9.30
   7  -7  -7    7.00    9.00
   7  -7  -7   28.50   16.20
  -7  -7   7   11.10   15.60
   7   7  -7   39.50   12.10
   7   7  -7   61.99   29.20
  -5  -7   7  154.38   21.20
   5  -7  -7  189.98   21.30
   5  -7  -7  201.18   34.10
  -5  -7   7  192.48   31.60
   5   7  -7  181.08   20.40
   5   7  -7  271.87   48.40
   3  -7  -7  276.57   20.80
   3  -7  -7  278.87   35.50
  -3  -7   7  212.88   33.20
   3  -7  -7  304.67   20.50
  -3  -7   7  264.97   25.00
   3   7  -7  223.28   23.60
   3   7  -7  288.27   48.10
  -1  -7   7  196.18   29.80
   1  -7  -7  236.38   50.59
  -1  -7   7  238.58   24.50
   1  -7  -7  195.08   31.90
   1  -7  -7  239.08   16.90
   1  -7   7  299.77   33.70
  -1  -7  -7  284.27   17.70
  -1  -7  -7  287.37   54.69
   1  -7   7  311.57   27.50
   3  -7   7   32.80   15.00
   3  -7   7   26.90   17.30
  -3  -7  -7   49.60    7.60
   3  -7   7   65.19   16.80
  -3  -7  -7    6.30   25.50
   5  -7   7  244.78   26.60
   5  -7   7  231.78   28.10
  -5  -7  -7  223.38   14.30
   5  -7   7  239.28   22.70
  -7  -7  -7   15.50    7.10
   7  -7   7   15.00    9.90
   7  -7   7    4.70   13.80
   7  -7   7    4.60   15.00
  -7  -7  -7  -25.30   17.20
   7   7   7    7.50    5.60
   9  -7   7   94.59   14.40
   9  -7   7  137.19   24.90
  -9  -7  -7  102.29   12.80
  -9  -7  -7   71.09   34.50
   9  -7   7  102.09   19.80
   9   7   7   96.39   12.60
  11  -7   7   99.59   15.20
  11  -7   7   71.89   33.10
 -11  -7  -7   86.99   13.70
  11  -7   7   84.69   17.50
  11   7   7   87.29   13.00
 -13  -7  -7   28.40   11.90
  15   7   7   31.10   12.70
  17   7   7   28.50   14.00
  22  -8  -7   66.09   29.80
 -22  -8   7    1.60   16.30
  22   8  -7    2.40   43.20
  20  -8  -7   23.50   26.30
 -20  -8   7   74.69   21.90
  20   8  -7   50.09   42.00
  18  -8  -7   -5.50   18.00
 -18  -8   7    2.40   14.40
  18   8  -7   52.49   42.20
 -18   8   7   26.30   38.30
 -16  -8   7   29.20   16.30
  16  -8  -7   58.29   23.40
 -16   8   7   83.19   30.60
  16   8  -7   42.10   16.90
  16   8  -7   57.19   41.20
  14  -8  -7   -1.40   12.60
  14  -8  -7   -9.10   15.30
 -14  -8   7   -6.50   13.10
  14   8  -7   -2.30   10.80
 -12  -8   7   20.30   14.10
 -12  -8   7  -10.70   20.80
  12  -8  -7   -3.50   12.80
  12  -8  -7   -1.80   16.20
  12   8  -7    0.90   27.20
  12   8  -7    4.40   22.20
  10  -8  -7  313.07   38.70
  10  -8  -7  324.87   29.70
 -10  -8   7  383.26   49.30
 -10  -8   7  331.37   30.10
  10   8  -7  388.16   60.39
  10   8  -7  298.47   28.80
   8  -8  -7   -1.80    9.10
   8  -8  -7   13.60   20.10
  -8  -8   7   11.50   13.10
  -8  -8   7   26.70   22.90
   8   8  -7   14.10   27.70
   8   8  -7   -1.30   11.20
   6  -8  -7  200.88   36.20
  -6  -8   7  226.28   24.90
  -6  -8   7  224.58   42.80
   6  -8  -7  175.68   20.80
   6   8  -7  203.58   23.30
   6   8  -7  270.87   51.59
   4  -8  -7  245.88   21.00
   4  -8  -7  201.68   20.90
  -4  -8   7  285.47   45.60
  -4  -8   7  208.88   24.70
   4  -8  -7  213.68   34.00
   4   8  -7  235.08   24.60
   4   8  -7  165.28   40.80
  -2  -8   7  136.69   22.60
   2  -8  -7  116.09   40.90
   2  -8  -7  111.39   15.20
  -2  -8   7   90.19   27.80
   2  -8  -7  169.68   37.70
   2   8  -7  139.09   22.20
   0  -8   7   52.49   17.20
   0  -8   7   33.00   23.20
   0  -8  -7   97.79   12.30
  -2  -8  -7   48.50    9.30
   2  -8   7   55.69   16.00
   2  -8   7   11.30   19.30
  -2  -8  -7   58.29   32.80
  -4  -8  -7   22.10    7.00
   4  -8   7   15.40   15.60
   4  -8   7   30.80   15.60
   4  -8   7   28.80   20.70
  -4  -8  -7   -7.10   30.90
  -6  -8  -7   17.30   30.20
   6  -8   7   72.09   20.20
   6  -8   7   70.39   17.30
   6  -8   7   89.59   23.60
  -6  -8  -7   75.39   10.70
   8  -8   7    3.00   11.90
  -8  -8  -7    1.30    7.40
   8  -8   7  -16.70   16.80
   8  -8   7    7.80   13.70
 -10  -8  -7    4.70    8.40
  10  -8   7   18.10   18.00
  10  -8   7   19.70   17.90
  10  -8   7    6.70   11.20
  10   8   7    5.50    7.40
  12  -8   7   16.10   16.00
  12  -8   7   45.40   12.50
 -12  -8  -7   17.10   10.90
  12  -8   7   58.89   21.00
  12   8   7   42.40   10.70
 -14  -8  -7   39.60   14.10
  14  -8   7   -9.30   17.10
  14   8   7   36.10   13.80
  16  -8   7   29.70   25.50
  16   8   7   11.50   12.30
 -21  -9   7   17.90   17.70
  21  -9  -7   15.30   23.20
  21   9  -7  -31.20   35.40
 -19  -9   7   38.30   18.40
  19  -9  -7   47.70   27.00
  19   9  -7   12.40   40.20
 -17  -9   7  -41.00   20.20
  17  -9  -7   14.60   19.50
  17   9  -7   25.30   42.60
  15  -9  -7  152.48   33.60
 -15  -9   7  192.98   28.20
  15   9  -7  281.67   69.89
  13  -9  -7    3.10   19.20
 -13  -9   7   31.60   14.90
  13   9  -7   26.00   37.50
  13   9  -7   18.30   13.40
 -11  -9   7    9.00   14.20
  11  -9  -7   -0.50   17.90
  11  -9  -7   42.30   15.00
  11   9  -7   17.50   12.90
  11   9  -7   35.20   37.20
  -9  -9   7    4.30   22.50
   9  -9  -7  -13.10   18.10
   9  -9  -7   22.50   13.10
  -9  -9   7   58.59   17.50
   9   9  -7    9.50   13.10
   9   9  -7  -13.50   29.80
   7  -9  -7  -26.10    9.40
   7  -9  -7  -14.50    9.50
  -7  -9   7   15.20   23.30
  -7  -9   7    6.30   13.30
   7  -9  -7   14.80   20.60
   7   9  -7  -16.50   12.00
   7   9  -7   -2.80   27.40
  -5  -9   7   39.50   25.90
   5  -9  -7   46.10   38.10
   5  -9  -7   51.29   13.50
   5  -9  -7   22.00   12.20
  -5  -9   7   37.20   15.30
   5  -9  -7   54.39   23.20
   5   9  -7   88.69   37.20
   5   9  -7   10.70   15.60
   3  -9  -7  123.99   21.10
   3  -9  -7  139.69   51.39
   3  -9  -7  122.29   31.90
  -3  -9   7   62.59   28.40
   3  -9  -7  124.89   18.50
  -3  -9   7  102.89   21.10
   3   9  -7  119.19   21.20
   1  -9  -7   77.69   14.00
   1  -9  -7   79.69   34.70
  -1  -9   7   34.00   16.80
  -1  -9   7   51.29   25.80
   1  -9  -7  119.19   35.00
  -1  -9  -7  105.19   14.30
  -1  -9  -7   83.79   39.50
   1  -9   7   59.49   26.20
   1  -9   7  119.09   22.40
   3  -9   7   54.69   21.20
   3  -9   7   78.39   27.90
   3  -9   7   83.39   21.60
  -3  -9  -7   52.39   10.30
   5  -9   7   53.49   26.00
   5  -9   7   44.50   19.20
  -5  -9  -7   82.69   11.90
   5  -9   7   45.00   17.80
   7  -9   7    8.50   15.10
   7  -9   7   23.40   18.00
   7  -9   7   23.00   25.30
  -7  -9  -7   25.60    9.00
  -9  -9  -7   80.99   12.20
   9  -9   7  127.79   28.90
   9  -9   7   92.59   23.30
   9  -9   7  101.09   18.00
  11  -9   7   -4.60   19.60
 -11  -9  -7   12.50    9.50
  11  -9   7    9.30   15.00
  11  -9   7    6.10   12.40
  11   9   7    3.90    8.20
  13  -9   7   12.80   12.00
 -13  -9  -7   19.00   11.50
  13  -9   7    2.90   17.40
  13  -9   7  -29.60   16.00
  13   9   7   17.30    9.70
  15  -9   7    5.10   19.90
  15   9   7    0.60   11.40
  18 -10  -7   18.90   20.60
 -18 -10   7    2.20   14.90
  18  10  -7  -12.30   38.80
 -16 -10   7  200.28   29.90
  16 -10  -7  122.59   32.90
  16  10  -7  196.88   65.99
 -14 -10   7   34.80   18.40
  14 -10  -7   18.50   22.70
  14  10  -7   13.80   41.60
  12 -10  -7  -12.00   15.40
 -12 -10   7    4.00   13.70
  12  10  -7  -41.10   28.00
  10 -10  -7   51.19   17.70
  10 -10  -7   82.39   29.20
 -10 -10   7   68.79   18.40
  10  10  -7   68.69   19.40
  10  10  -7    7.90   37.10
   8 -10  -7   19.80   20.20
   8 -10  -7   11.90   13.40
  -8 -10   7   16.80   14.30
   8 -10  -7    8.90   13.00
   8  10  -7   16.60   15.30
   8  10  -7   -9.90   32.60
   6 -10  -7    6.40   19.40
   6 -10  -7   24.00   14.30
  -6 -10   7   49.20   16.60
  -6 -10   7   43.00   25.50
   6 -10  -7   -4.70   12.20
   6  10  -7   12.70   35.60
   6  10  -7    8.90   16.00
  -4 -10   7   53.19   18.90
   4 -10  -7   55.19   15.10
  -4 -10   7   57.79   29.10
   4 -10  -7   24.60   13.30
   4 -10  -7   10.50   21.70
   2 -10  -7  101.19   16.60
  -2 -10   7  101.49   23.00
  -2 -10   7  122.09   36.70
   2 -10  -7   69.79   32.30
   0 -10   7   73.49   20.40
   0 -10  -7  190.58   58.79
   0 -10   7   83.19   28.50
   0 -10  -7  105.69   16.00
   2 -10   7   49.50   19.60
   2 -10   7   -1.80   21.50
  -2 -10  -7   13.40    9.50
   4 -10   7    3.00   17.10
   4 -10   7  -10.30   14.00
  -4 -10  -7   20.60    9.70
   4 -10   7   41.00   26.40
   6 -10   7   87.09   23.70
   6 -10   7   69.69   29.20
  -6 -10  -7   98.49   13.90
   6 -10   7   59.69   20.00
   8 -10   7   12.70   22.70
   8 -10   7    4.70   18.20
  -8 -10  -7    2.80    7.90
   8 -10   7  -13.10   13.40
  10 -10   7   44.20   31.00
  10 -10   7   15.70   15.30
  10 -10   7   22.60   19.00
 -10 -10  -7   11.40    9.20
  12 -10   7  -20.60   14.90
 -12 -10  -7   12.20    9.40
  12 -10   7   17.10   22.50
  12 -10   7    3.40   15.00
  14 -10   7  -26.10   15.90
  14  10   7   18.60   10.90
  15 -11  -7   16.00   23.80
 -15 -11   7   11.20   15.40
  15  11  -7  -28.80   39.40
  13 -11  -7   33.90   24.80
 -13 -11   7   51.79   20.20
  13  11  -7   14.60   41.20
 -11 -11   7  138.29   35.90
  11 -11  -7   97.49   25.70
  11 -11  -7   86.09   30.30
  11  11  -7   52.79   47.20
   9 -11  -7   16.00   14.00
   9 -11  -7   19.10   22.60
   9 -11  -7   11.00   13.60
  -9 -11   7   -8.50   12.60
   9  11  -7  -17.00   32.90
   7 -11  -7   -5.00   11.40
   7 -11  -7   14.50   24.30
   7 -11  -7   -8.30   13.80
  -7 -11   7   -8.30   13.40
  -5 -11   7   21.00   16.70
   5 -11  -7   39.50   28.80
   5 -11  -7   45.20   15.50
   5 -11  -7   41.60   16.00
  -3 -11   7    5.30   18.20
   3 -11  -7   -6.00   20.40
   3 -11  -7   10.20   11.60
   3 -11  -7   11.30   13.30
  -3 -11   7   29.40   26.50
   1 -11  -7  102.39   36.20
   1 -11  -7   60.99   15.10
  -1 -11   7   98.49   37.20
  -1 -11   7   12.40   15.60
   1 -11   7    2.00   13.30
  -1 -11  -7   23.10   29.90
   1 -11   7   27.20   25.20
   3 -11   7   -8.30   25.00
   3 -11   7   18.20   18.60
   3 -11   7    7.10   20.00
  -3 -11  -7    0.00    8.60
   5 -11   7    5.40   18.40
   5 -11   7   31.20   28.10
  -5 -11  -7    6.50    9.40
   5 -11   7   11.10   16.00
   7 -11   7  -17.30   14.20
   7 -11   7  -28.10   14.00
   7 -11   7   18.70   26.00
  -7 -11  -7   17.90    9.90
  -9 -11  -7   21.70    9.50
   9 -11   7   -6.40   24.60
   9 -11   7   -0.80   18.20
   9 -11   7   -9.00   15.00
  11 -11   7   61.09   20.70
 -11 -11  -7   28.30   10.40
  11 -11   7   13.40   20.30
  12 -12  -7   20.70   16.80
 -12 -12   7   38.80   18.70
  12 -12  -7   24.60   23.80
  12  12  -7    7.80   43.70
  10 -12  -7   16.70   23.50
 -10 -12   7   21.40   16.30
  10 -12  -7  -16.50   12.50
  -8 -12   7   32.30   16.90
   8 -12  -7   50.39   29.10
   8 -12  -7   -3.40   12.40
   6 -12  -7    6.10   22.20
   6 -12  -7   -9.60   10.60
  -6 -12   7   11.30   18.20
   6 -12  -7   27.70   15.10
  -4 -12   7   71.59   23.00
   4 -12  -7   52.19   33.10
   4 -12  -7   74.89   17.70
   4 -12  -7   79.59   20.50
   2 -12  -7   -2.20   12.40
  -2 -12   7   10.10   15.10
   2 -12  -7   25.40   28.50
   2 -12  -7    7.60   11.50
   0 -12   7    8.40   27.90
   0 -12   7   15.30   16.70
   0 -12  -7    1.40   10.20
   0 -12  -7   24.20   32.40
   2 -12   7   24.30   22.30
  -2 -12  -7   21.20   31.60
   2 -12   7   34.50   31.50
  -2 -12  -7   -3.50   10.60
   2 -12   7   19.30   17.10
   4 -12   7   51.79   23.20
   4 -12   7   37.70   20.30
  -4 -12  -7   48.00   13.50
   6 -12   7   17.80   20.90
   6 -12   7   -6.00   15.90
  -6 -12  -7    5.60   10.60
   6 -12   7   18.50   29.40
  -8 -12  -7   15.40    9.70
   8 -12   7  -21.60   17.10
   8 -12   7   12.70   31.20
   8 -12   7   26.70   19.80
   7 -13  -7   19.90   16.60
  -7 -13   7   -4.00   15.70
   7 -13  -7   23.00   26.60
   5 -13  -7    2.80   14.30
  -5 -13   7   -9.50   14.60
   5 -13  -7    0.60   14.70
   5 -13  -7  -29.60   21.90
   3 -13  -7   11.70   17.50
   3 -13  -7  -10.60   24.50
  -3 -13   7  -20.20   12.90
   3 -13  -7   -7.50   11.60
   1 -13  -7    7.00   12.00
  -1 -13   7    6.50   16.90
   1 -13  -7    5.80   30.30
   1 -13  -7    7.40   14.70
   1 -13   7  -20.40   34.70
   1 -13   7   -1.30   17.70
  -1 -13  -7   -1.30   27.70
  -1 -13  -7   14.70   13.20
  -3 -13  -7   -4.40   11.00
   3 -13   7  -15.10   17.00
  -3 -13  -7   21.90   32.10
   3 -13   7  -32.60   19.60
 -26   0   8   33.70   20.90
  26   0  -8   18.20   35.10
  24   0  -8  279.07   60.59
 -24   0   8  255.37   35.90
  22   0  -8   39.80   30.70
 -22   0   8   -5.20   13.60
 -20   0   8   81.59   23.20
  20   0  -8   51.69   17.30
  20   0  -8   58.39   29.30
 -20   0   8   93.69   26.10
  18   0  -8  369.46   30.90
 -18   0   8  343.57   38.80
 -18   0   8  265.27   30.60
  18   0  -8  303.07   49.70
 -16   0   8  798.62   51.19
  16   0  -8  933.31   67.19
  16   0  -8  956.60   52.09
 -16   0   8  898.21   60.99
 -14   0   8  592.84   45.00
  14   0  -8  552.44   36.30
  14   0  -8  557.74   48.30
 -14   0   8  585.74   37.80
  12   0  -8  183.78   28.20
  12   0  -8  182.58   19.00
 -12   0   8  190.18   25.60
 -12   0   8  144.79   19.10
 -10   0   8   10.80    8.70
 -10   0   8  -16.10    9.10
  10   0  -8   -0.80   12.60
  10   0  -8    8.20    8.10
   8   0  -8 3503.15  150.28
   8   0  -8 3412.96  140.19
  -8   0   8 3424.36  140.69
  -8   0   8 3398.46  147.99
  -6   0   8   14.30   10.10
   6   0  -8   23.60    7.80
  -6   0   8   13.50    7.50
   6   0  -8   19.00   12.90
   4   0  -8  866.61   46.60
  -4   0   8  892.41   46.30
  -4   0   8  888.41   40.90
   4   0  -8  911.31   40.70
  -2   0   8  569.64   27.90
  -2   0   8  547.35   32.40
   2   0  -8  576.84   32.40
   2   0  -8  560.54   27.60
   0   0   8 3735.13  151.78
   0   0  -8 3702.93  147.89
   0   0   8 3772.12  147.99
   0   0  -8 3752.82  151.28
  -2   0  -8 1101.09   51.29
   2   0   8 1117.99   48.70
  -4   0  -8   51.39   16.50
  -6   0  -8  203.58   24.40
   8   0   8  914.71   47.30
   8   0   8  902.11   58.69
  -8   0  -8  954.80   53.59
 -10   0  -8    4.60   12.00
  10   0   8   -3.40    8.60
  10   0   8  -11.80   16.80
  12   0   8  463.15   47.60
  12   0   8  381.86   31.30
  14   0   8   57.39   16.80
 -14   0  -8   28.60   16.90
 -16   0  -8   57.89   22.50
  16   0   8   84.79   35.60
  16   0   8   50.79   17.80
  18   0   8   39.00   35.50
 -18   0  -8   89.69   27.20
 -20   0  -8   24.90   22.20
  20   0   8   13.80   37.70
 -22   0  -8   64.59   29.20
  27  -1  -8   24.90   37.10
 -27  -1   8   17.70   21.00
  27   1  -8   25.50   41.90
 -27   1   8    5.30   18.10
 -25  -1   8   47.40   20.40
  25  -1  -8   30.10   32.80
 -25   1   8   45.50   21.90
  25   1  -8   65.59   41.80
  23  -1  -8   68.39   36.80
 -23  -1   8  108.89   27.80
 -23   1   8   92.79   24.50
  23   1  -8   54.79   32.50
 -21  -1   8   27.00   17.70
  21  -1  -8   -6.80   21.60
 -21   1   8   62.39   25.20
 -21   1   8   23.60   16.50
  21   1  -8   28.70   28.30
 -19  -1   8   -6.70   16.70
 -19  -1   8  -10.70   10.80
  19  -1  -8  -16.90    9.00
  19  -1  -8    4.70   21.40
  19   1  -8    4.60   12.00
 -19   1   8  -28.80    8.90
  19   1  -8   35.50   24.30
 -19   1   8    9.60   32.80
  17  -1  -8   -5.10   10.80
 -17  -1   8    5.10   11.60
  17  -1  -8   -9.50   15.80
 -17  -1   8  -21.50   11.50
 -17   1   8  -13.90    8.90
 -17   1   8   -8.10   13.40
  17   1  -8  -14.30   15.70
  17   1  -8    8.10   11.90
  15  -1  -8   55.19   21.20
  15  -1  -8    8.30   11.30
 -15  -1   8   26.30   17.60
 -15  -1   8   30.50   12.70
 -15   1   8   38.90   17.10
 -15   1   8   39.00   14.10
  15   1  -8   47.70   23.70
  15   1  -8   32.20   13.00
  13  -1  -8  -22.50   11.50
 -13  -1   8    5.70    9.50
  13  -1  -8   -2.90    9.20
 -13  -1   8   30.90   14.80
 -13   1   8   21.40   14.10
  13   1  -8   -0.70   14.70
  13   1  -8    9.60    9.90
 -13   1   8    0.20    9.70
  11  -1  -8   52.19   17.90
  11  -1  -8   12.20    9.10
 -11  -1   8    7.50   12.90
 -11   1   8   -1.20   12.10
 -11   1   8   27.60   12.20
  11   1  -8   26.70    9.70
   9  -1  -8  346.97   23.60
  -9  -1   8  327.17   24.00
   9  -1  -8  342.77   31.20
   9   1  -8  370.86   34.00
  -9   1   8  341.57   24.40
  -7  -1   8  109.69   19.50
   7  -1  -8  105.89   20.30
  -7  -1   8  115.09   13.70
   7  -1  -8   80.09   12.00
   7   1  -8  125.29   21.90
  -7   1   8  106.19   13.40
   7   1  -8   94.89   12.90
  -7   1   8  103.29   18.00
  -5  -1   8  460.55   30.70
   5  -1  -8  403.06   30.60
  -5  -1   8  448.26   25.50
   5  -1  -8  447.36   23.80
   5   1  -8  433.66   31.30
   5   1  -8  423.46   24.70
  -5   1   8  479.15   24.60
  -5   1   8  416.06   30.50
   3  -1  -8 1165.38   56.09
  -3  -1   8 1083.29   52.99
   3  -1  -8 1127.29   48.00
  -3  -1   8 1108.89   50.39
   3   1  -8 1171.58   50.29
  -3   1   8 1113.29   55.99
   3   1  -8 1118.79   54.39
  -3   1   8 1103.89   48.00
   1  -1  -8   23.00   11.40
   1  -1  -8    4.50    4.90
  -1  -1   8   26.60    8.80
  -1  -1   8   13.40    7.70
  -1   1   8   12.70    5.40
  -1   1   8   14.40   10.70
   1   1  -8   12.10    6.70
   1   1  -8    8.20    8.20
  -1  -1  -8  402.86   28.40
   1  -1   8  469.35   25.00
   1   1   8  450.45   21.50
  -1   1  -8  433.96   23.20
  -3  -1  -8   59.99   19.80
   3  -1   8  101.59   12.70
  -3   1  -8   62.79   12.50
  -3   1  -8   86.79    9.70
   3   1   8   89.19    9.70
  -5  -1  -8   69.49   20.70
   5   1   8  113.29   13.00
  -5   1  -8  102.19   15.10
  -7  -1  -8   -7.40   13.80
  -7   1  -8   13.60    9.70
   7   1   8   19.10    8.40
   9  -1   8    2.20    8.80
  -9  -1  -8  -16.30   13.00
   9  -1   8   -1.60   15.00
   9   1   8  -19.90   17.70
  -9   1  -8    4.90    9.50
   9   1   8    2.60    9.30
 -11  -1  -8  238.78   31.90
  11  -1   8  188.78   31.20
  11  -1   8  198.68   22.80
  11   1   8  188.58   37.90
  11   1   8  236.98   22.20
 -11   1  -8  238.48   23.50
 -13  -1  -8   52.19   22.70
  13  -1   8   48.20   22.30
  13  -1   8   56.39   17.80
  13   1   8   29.70   14.30
  13   1   8   47.70   29.00
 -13   1  -8   48.60   16.70
  15  -1   8   -0.90   25.60
 -15  -1  -8    8.70   19.20
  15  -1   8   19.00   15.70
 -15   1  -8   21.70   15.60
  15   1   8   13.90   15.20
  15   1   8   35.60   31.80
 -17  -1  -8    5.70   20.50
  17  -1   8   58.99   34.30
  17   1   8   27.90   15.80
 -17   1  -8    1.60   15.90
  17   1   8  -35.50   29.20
  19  -1   8   32.10   33.90
 -19   1  -8    7.70   19.30
  19   1   8  -60.99   32.80
  21  -1   8   19.90   40.70
 -21  -1  -8   28.70   26.80
  21   1   8   -2.90   39.10
 -21   1  -8   15.70   20.40
  26  -2  -8   44.10   34.60
 -26  -2   8   21.80   20.90
 -26   2   8   31.50   21.70
  26   2  -8   -0.70   33.90
 -24  -2   8   85.69   26.00
  24  -2  -8   30.50   29.60
  24   2  -8  136.59   47.30
 -24   2   8  128.59   29.50
  22  -2  -8  374.76   53.89
 -22  -2   8  427.26   39.60
 -22   2   8  341.67   38.60
  22   2  -8  345.57   74.49
 -20  -2   8   41.50   25.20
 -20  -2   8  116.59   23.70
  20  -2  -8  144.39   34.70
 -20   2   8  101.89   29.80
 -20   2   8  161.28   27.60
  20   2  -8  106.29   38.80
  20   2  -8   79.69   19.30
 -18  -2   8  539.85   51.19
 -18  -2   8  560.94   42.00
  18  -2  -8  594.84   42.10
  18  -2  -8  587.24   53.89
  18   2  -8  631.44   64.19
 -18   2   8  547.05   48.10
 -18   2   8  593.24   43.70
  18   2  -8  561.54   39.90
  16  -2  -8   93.39   26.30
 -16  -2   8   95.79   19.40
  16  -2  -8   91.09   18.70
 -16  -2   8   42.40   22.50
  16   2  -8  130.39   20.80
  16   2  -8   97.89   30.90
 -16   2   8   50.39   16.00
 -16   2   8  133.29   28.50
  14  -2  -8    1.00   13.20
  14  -2  -8   21.60   10.80
 -14  -2   8   20.20   14.00
 -14  -2   8   32.50   13.10
  14   2  -8    6.10   17.90
  14   2  -8    4.80    9.70
 -14   2   8   13.00   15.00
 -14   2   8    2.40    9.50
  12  -2  -8 2482.15  119.59
 -12  -2   8 2623.14  110.19
 -12  -2   8 2348.36  120.19
  12  -2  -8 2562.74  109.39
  12   2  -8 2492.05  108.69
  12   2  -8 2418.76  126.39
 -12   2   8 2554.74  110.29
 -12   2   8 2333.57  116.39
  10  -2  -8  192.28   18.70
 -10  -2   8  180.58   26.00
 -10  -2   8  154.68   19.00
  10  -2  -8  203.68   25.90
  10   2  -8  238.78   38.00
  10   2  -8  190.78   18.70
 -10   2   8  192.98   24.10
 -10   2   8  174.08   19.50
   8  -2  -8 1225.28   66.39
  -8  -2   8 1280.97   68.19
   8  -2  -8 1308.47   58.49
  -8  -2   8 1276.67   59.69
   8   2  -8 1259.97   71.79
  -8   2   8 1252.97   58.69
  -6  -2   8  580.44   32.20
   6  -2  -8  580.44   38.30
  -6  -2   8  602.54   38.80
   6  -2  -8  576.34   29.90
   6   2  -8  579.74   31.60
   6   2  -8  568.44   40.60
  -6   2   8  564.74   38.20
  -6   2   8  589.84   30.40
  -4  -2   8  360.16   22.80
   4  -2  -8  325.17   27.70
  -4  -2   8  369.06   26.40
   4  -2  -8  355.66   19.00
  -4   2   8  337.37   27.90
   4   2  -8  330.67   21.60
  -4   2   8  326.27   19.30
   4   2  -8  309.57   27.30
   2  -2  -8  283.27   24.30
  -2  -2   8  232.48   19.20
   2  -2  -8  247.68   13.80
  -2  -2   8  240.18   18.60
   2   2  -8  287.37   18.80
  -2   2   8  270.97   14.40
  -2   2   8  264.67   24.90
   2   2  -8  258.67   21.50
   0  -2   8   52.19    8.60
   0  -2  -8   77.79   16.10
   0  -2   8   53.69   10.20
   0   2   8   56.09    5.70
   0   2  -8   66.59   10.60
   0   2  -8   73.39   11.40
   2  -2   8  561.74   31.00
  -2  -2  -8  541.95   46.40
   2   2   8  554.24   24.00
   4  -2   8  287.57   22.50
  -4  -2  -8  330.17   37.50
   4   2   8  338.77   17.90
  -6  -2  -8  837.02   58.59
   6   2   8  832.92   39.00
  -8  -2  -8  285.07   36.00
   8   2   8  273.27   19.70
  -8   2  -8  266.87   16.60
  10  -2   8   43.20   15.30
  10  -2   8   20.50   12.30
 -10  -2  -8    4.20   18.80
  10   2   8   17.70   11.90
  10   2   8   27.60   25.40
 -10   2  -8   39.00   10.20
 -12  -2  -8  181.28   35.30
  12  -2   8  207.48   25.50
  12  -2   8  215.88   31.50
  12   2   8  272.27   48.70
  12   2   8  218.88   22.30
 -12   2  -8  203.98   20.80
 -14  -2  -8  154.98   33.10
  14  -2   8  119.99   28.20
  14  -2   8  142.29   24.50
 -14   2  -8  156.58   22.40
  14   2   8  138.59   42.00
  14   2   8  157.58   22.60
 -16  -2  -8   37.90   23.90
  16  -2   8   18.20   25.80
  16   2   8  -19.10   32.70
 -16   2  -8   32.00   18.60
  16   2   8   30.50   15.60
 -18  -2  -8   85.19   32.90
  18   2   8  136.19   25.70
 -18   2  -8  129.89   25.80
  18   2   8  136.59   48.20
 -20  -2  -8   24.00   32.20
  20  -2   8  -10.40   31.50
 -20   2  -8   16.20   20.00
  20   2   8  -31.40   39.40
 -27  -3   8   -1.30   18.50
  27  -3  -8   69.59   38.50
  27   3  -8  -22.50   36.70
 -25  -3   8   15.40   19.00
  25  -3  -8   69.69   37.30
  25   3  -8  136.59   57.19
  23  -3  -8  -11.70   23.20
 -23  -3   8   24.90   15.70
  23   3  -8  -39.20   21.00
 -23   3   8   -4.50   15.80
  21  -3  -8   11.10   21.80
 -21  -3   8   54.09   20.10
 -21   3   8    6.70   16.70
 -21   3   8   60.39   25.90
  19  -3  -8   -0.90   14.70
 -19  -3   8  -16.20   16.60
 -19  -3   8   -9.10   12.50
  19  -3  -8    2.60   19.10
  19   3  -8    5.80   11.80
 -19   3   8  -15.80   30.30
 -19   3   8   -3.10   14.40
  19   3  -8   20.60   29.80
  17  -3  -8   11.40   11.90
  17  -3  -8   -6.50   14.30
 -17  -3   8  -10.90   16.00
 -17  -3   8  -12.00   10.70
 -17   3   8    7.20   15.00
  17   3  -8   -9.00   19.50
 -17   3   8   13.50   14.10
  17   3  -8    1.80   11.20
 -15  -3   8   37.90   20.90
  15  -3  -8   57.99   21.10
 -15  -3   8   35.80   14.40
  15  -3  -8   90.39   18.20
  15   3  -8   54.79   27.30
 -15   3   8   32.40   14.20
  15   3  -8   61.49   15.70
 -15   3   8   41.60   18.60
  13  -3  -8   54.49   13.50
  13  -3  -8   54.69   20.40
 -13  -3   8   59.89   20.40
 -13  -3   8   61.49   16.40
 -13   3   8   22.80   14.00
  13   3  -8   41.70   24.50
 -13   3   8   41.40   13.80
  13   3  -8   63.09   14.10
  11  -3  -8  259.67   22.30
 -11  -3   8  228.48   22.10
 -11  -3   8  235.98   30.00
  11  -3  -8  204.18   27.40
  11   3  -8  234.98   35.90
 -11   3   8  236.38   28.10
 -11   3   8  224.98   22.40
  11   3  -8  240.08   21.40
  -9  -3   8  543.05   41.80
   9  -3  -8  479.05   38.20
  -9  -3   8  479.55   31.50
  -9   3   8  497.35   38.30
   9   3  -8  501.15   30.60
   9   3  -8  445.96   44.10
  -9   3   8  487.65   30.90
  -7  -3   8   92.49   15.60
  -7  -3   8  111.79   22.50
   7  -3  -8   84.99   12.90
   7  -3  -8   95.99   20.10
   7   3  -8   95.59   14.00
  -7   3   8   86.39   19.70
   7   3  -8  121.29   26.10
  -7   3   8   93.79   13.70
  -5  -3   8   19.60    9.50
   5  -3  -8   13.00    6.90
   5  -3  -8   39.60   15.70
  -5  -3   8   15.10   12.40
   5   3  -8   24.40    8.40
  -5   3   8   24.00   13.50
  -5   3   8   31.20    8.50
   5   3  -8   28.20   16.70
   3  -3  -8  327.77   17.30
   3  -3  -8  317.17   28.00
  -3  -3   8  312.77   22.50
  -3  -3   8  353.46   25.80
  -3   3   8  347.27   30.00
   3   3  -8  286.27   21.40
   3   3  -8  317.27   29.50
  -3   3   8  329.57   17.70
   1  -3  -8   26.20   14.70
  -1  -3   8   22.10    9.10
  -1  -3   8   15.80    8.70
   1  -3  -8   24.90    3.60
   1   3  -8   24.70   12.40
   1   3  -8    8.40    7.50
   1  -3   8  437.06   28.10
   1  -3   8  472.85   23.20
  -1   3  -8  465.65   26.60
   3  -3   8  160.48   17.90
  -3  -3  -8  123.89   32.50
  -5  -3  -8  -27.00   16.70
   5  -3   8   35.80   12.40
   5   3   8   11.90    5.40
  -7  -3  -8   60.29   25.90
   7   3   8   48.50    8.50
  -9  -3  -8   46.50   25.60
   9   3   8   70.39   30.10
   9   3   8   38.30    9.80
  11  -3   8   17.90   14.20
  11  -3   8    7.20   12.60
 -11  -3  -8   33.30   23.90
 -11   3  -8   26.90    8.70
  11   3   8   -5.00   24.00
  11   3   8   24.80   12.50
  13  -3   8   39.80   17.40
  13  -3   8   67.29   20.00
 -13  -3  -8   89.59   29.60
 -13   3  -8   87.99   14.50
  13   3   8   40.20   38.50
  13   3   8   53.79   15.30
 -15  -3  -8    6.80   26.60
  15  -3   8   -1.00   20.60
  15   3   8    4.60   29.70
  15   3   8    2.00   11.80
 -15   3  -8   -5.70   11.50
  17  -3   8    3.90   24.30
 -17  -3  -8   11.60   24.80
  17   3   8    7.40   14.00
  17   3   8  -29.60   31.90
 -17   3  -8   -3.00   13.80
  19  -3   8    2.20   28.30
  19   3   8    8.60   15.30
  19   3   8    6.60   43.80
 -21   3  -8   49.90   21.70
  21   3   8  -29.10   42.50
  26  -4  -8   48.40   34.90
 -26  -4   8   75.09   25.90
  26   4  -8    6.40   35.20
  24  -4  -8   56.59   32.30
 -24  -4   8   49.60   22.70
  24   4  -8   54.39   40.60
  22  -4  -8  313.27   47.50
 -22  -4   8  244.68   33.10
  22   4  -8  285.17   67.29
 -20  -4   8    9.90   16.60
  20  -4  -8   -6.40   19.40
 -20   4   8   -7.10   19.60
 -18  -4   8  294.57   50.49
  18  -4  -8  282.37   39.40
  18  -4  -8  246.78   28.90
 -18  -4   8  214.38   27.50
 -18   4   8  272.17   44.30
  18   4  -8  222.38   49.30
 -18   4   8  237.88   30.90
  18   4  -8  231.58   27.60
  16  -4  -8   26.90   20.60
 -16  -4   8   20.80   13.30
 -16  -4   8   26.70   18.70
  16   4  -8   19.80   12.30
 -16   4   8   28.30   17.50
 -16   4   8    5.20   13.40
  16   4  -8    1.40   22.20
  14  -4  -8   18.50   11.80
  14  -4  -8  -18.70   12.00
 -14  -4   8   -5.60   16.30
 -14  -4   8   18.70   11.90
 -14   4   8    4.60   14.10
  14   4  -8   18.60   22.30
 -14   4   8    0.70   11.20
  14   4  -8   16.80   11.00
 -12  -4   8  331.57   37.80
  12  -4  -8  313.17   26.40
  12  -4  -8  323.67   33.90
 -12  -4   8  322.57   26.90
 -12   4   8  330.97   28.00
  12   4  -8  352.76   26.60
  12   4  -8  350.76   44.70
 -12   4   8  299.47   32.40
  10  -4  -8   -3.40    7.70
  10  -4  -8  -22.30   10.00
 -10  -4   8    5.00   12.70
 -10  -4   8   -6.00    8.50
  10   4  -8    7.80   19.70
  10   4  -8   13.50    9.70
 -10   4   8   11.70   13.70
  -8  -4   8 1007.90   50.79
   8  -4  -8  979.50   64.39
   8  -4  -8  909.51   46.80
  -8  -4   8  930.31   59.99
   8   4  -8  906.91   47.70
  -8   4   8  901.51   47.50
   8   4  -8  955.90   66.39
  -8   4   8  929.61   57.19
  -6  -4   8  307.77   24.30
   6  -4  -8  323.87   21.60
   6  -4  -8  291.97   30.30
  -6  -4   8  418.56   35.10
   6   4  -8  303.77   23.50
  -6   4   8  327.17   31.20
   6   4  -8  361.96   37.40
  -4  -4   8  118.79   16.70
   4  -4  -8  103.59   11.30
   4  -4  -8  146.69   23.70
  -4  -4   8  146.99   23.90
   4   4  -8  169.98   29.30
   4   4  -8  114.59   15.70
   2  -4  -8 1848.12   74.49
  -2  -4   8 1883.81   82.99
  -2  -4   8 1871.11   86.29
   2  -4  -8 1895.71   92.49
   2   4  -8 1877.21   90.89
   2   4  -8 1798.72   82.29
   0  -4  -8  109.99   22.70
   0  -4   8  121.69   18.30
   0  -4   8   92.89   14.50
   0   4  -8  105.49   16.40
   0   4  -8  106.39   19.40
   2  -4   8 1150.88   57.49
   2  -4   8 1136.79   50.39
  -2  -4  -8 1229.18   81.19
  -4  -4  -8  -22.20   14.50
   4  -4   8   -6.60    7.50
  -6  -4  -8  529.05   54.69
   6  -4   8  603.94   37.90
   6   4   8  587.94   26.50
  -8  -4  -8   26.00   23.50
   8   4   8   41.30    8.20
 -10  -4  -8  -25.30   17.30
  10   4   8   -7.30    7.20
  12  -4   8    1.30   14.50
 -12  -4  -8   68.39   33.60
  12   4   8   -7.90   30.20
  12   4   8   14.00   10.90
 -14  -4  -8   88.79   37.00
  14  -4   8  167.28   23.50
  14   4   8  102.59   17.60
  14   4   8   47.40   37.00
 -16  -4  -8   20.60   27.10
  16  -4   8    3.70   17.80
 -16   4  -8    7.70    9.50
  16   4   8   34.60   41.80
  16   4   8    4.20   12.80
  18  -4   8   90.89   27.70
  18   4   8   46.30   17.00
 -18   4  -8   70.89   15.60
  20  -4   8   12.10   25.60
  20   4   8  -24.10   43.80
 -20   4  -8   -0.30   13.50
  20   4   8   -4.20   15.40
 -25  -5   8   50.09   23.40
  25  -5  -8   30.70   28.20
  25   5  -8  117.19   58.79
 -23  -5   8   40.10   21.60
  23   5  -8    6.90   38.10
 -21  -5   8   44.40   18.70
  21  -5  -8   59.79   28.30
  21   5  -8   33.40   40.50
 -21   5   8   65.49   32.80
 -19  -5   8   52.89   18.70
  19  -5  -8   41.20   24.60
  19   5  -8   16.70   34.50
  19   5  -8   43.50   17.70
 -19   5   8   28.70   21.20
 -17  -5   8   13.50   13.80
  17  -5  -8   -2.60   12.00
 -17  -5   8   17.40   21.60
  17  -5  -8   -4.10   16.40
  17   5  -8   19.00   27.50
 -17   5   8   12.00   19.10
  17   5  -8  -11.30   11.20
 -15  -5   8    6.70   17.20
 -15  -5   8   58.39   18.10
  15  -5  -8    5.30   16.40
  15  -5  -8   -9.80   10.40
  15   5  -8  -17.90   17.30
  15   5  -8   -0.50   10.80
 -15   5   8   15.30   16.60
  13  -5  -8   43.00   19.70
  13  -5  -8   57.69   15.40
 -13  -5   8   78.29   16.70
 -13  -5   8   65.49   25.40
  13   5  -8   74.89   32.60
 -13   5   8   85.89   24.10
  13   5  -8   82.49   16.90
 -11  -5   8   17.80   17.70
 -11  -5   8   22.60   11.40
  11  -5  -8   10.40   10.30
  11  -5  -8   21.90   17.10
  11   5  -8   18.80   26.10
  11   5  -8    9.40    9.70
 -11   5   8   30.60   17.50
   9  -5  -8   22.40   16.50
  -9  -5   8    4.60   14.10
  -9  -5   8   45.60   14.30
   9  -5  -8   44.50   11.30
  -9   5   8   86.79   24.60
   9   5  -8   64.19   26.40
   9   5  -8   34.20   11.30
   7  -5  -8  137.49   15.60
  -7  -5   8  190.28   31.10
   7  -5  -8  166.08   28.90
  -7  -5   8  125.39   18.80
  -7   5   8  138.89   26.00
   7   5  -8  128.69   16.90
  -5  -5   8  121.69   17.90
   5  -5  -8  100.39   12.90
   5  -5  -8  100.09   21.90
  -5  -5   8   98.59   25.80
   5   5  -8   99.69   15.10
   5   5  -8   97.49   25.10
  -3  -5   8  191.78   25.20
  -3  -5   8  225.28   21.60
   3  -5  -8  179.88   29.40
   3  -5  -8  199.48   14.60
   3   5  -8  196.48   33.30
   3   5  -8  202.18   19.80
   1  -5  -8    6.70    4.20
   1  -5  -8    3.00    4.00
  -1  -5   8  -15.30    8.40
  -1  -5   8   18.00   11.00
   1  -5  -8    8.20   15.40
   1   5  -8    5.10    7.90
   1   5  -8    2.30   14.50
   1  -5   8  154.68   18.80
  -1  -5  -8  102.19   29.50
   1  -5   8  131.89   18.40
   3  -5   8    6.90    7.60
   3  -5   8  -13.70    8.30
   3  -5   8   -1.40    7.80
  -3  -5  -8   28.00   23.80
  -5  -5  -8   26.70   24.90
   5  -5   8  -15.90    8.30
   7  -5   8  179.28   24.60
  -7  -5  -8  161.58   38.10
   7   5   8  225.28   13.30
  -9  -5  -8   -3.90   24.10
   9   5   8   29.90    8.30
 -11  -5  -8   32.40   31.50
  11   5   8    4.40    9.00
 -13  -5  -8   41.90   30.60
  13   5   8  113.39   44.70
  13   5   8   82.29   14.60
  15   5   8    3.30   10.80
  15   5   8  -17.40   38.80
  17   5   8    3.00   37.00
  17   5   8   14.00   14.30
  19   5   8   43.80   50.99
  24  -6  -8   16.90   28.50
 -24  -6   8   18.60   18.30
  24   6  -8  -18.60   33.40
 -22  -6   8   51.49   21.10
  22   6  -8   75.49   45.60
  20  -6  -8   39.40   24.10
 -20   6   8  -10.90   22.10
  20   6  -8   12.80   34.30
  18  -6  -8  230.28   40.80
 -18  -6   8  210.28   28.50
 -18   6   8  255.07   40.70
  18   6  -8  259.27   29.10
  18   6  -8  278.97   65.69
  16  -6  -8  166.68   33.60
  16  -6  -8  175.18   26.50
 -16  -6   8  100.59   22.50
  16   6  -8  115.49   21.20
 -16   6   8  141.69   55.59
  16   6  -8  152.68   47.40
 -14  -6   8  183.88   24.80
 -14  -6   8  170.18   39.60
  14  -6  -8  222.58   33.30
  14  -6  -8  161.98   24.10
  14   6  -8  192.08   48.80
 -14   6   8  216.08   33.80
  14   6  -8  182.18   23.70
 -12  -6   8    0.90   16.60
 -12  -6   8    8.00   10.70
  12  -6  -8    7.80   10.50
  12  -6  -8   -7.90   12.60
  12   6  -8    3.50   23.60
  12   6  -8   -6.90    8.60
 -12   6   8   25.10   18.40
 -10  -6   8    6.60   17.60
 -10  -6   8   11.70   10.90
  10  -6  -8   15.80    9.70
  10  -6  -8   -7.60   13.00
 -10   6   8    6.10   16.50
  10   6  -8    6.20   10.50
  10   6  -8    2.80   20.90
   8  -6  -8  804.12   55.59
   8  -6  -8  819.42   44.60
  -8  -6   8  835.52   47.20
  -8  -6   8  851.11   60.79
   8   6  -8  756.02   45.00
   8   6  -8  933.11   70.89
  -6  -6   8  159.78   30.00
   6  -6  -8  116.99   15.70
  -6  -6   8  158.18   20.60
   6  -6  -8  196.78   27.90
   6   6  -8  141.19   18.00
   6   6  -8  187.98   39.40
  -4  -6   8  127.39   19.00
   4  -6  -8  124.19   13.70
  -4  -6   8  202.38   32.30
   4  -6  -8   98.39   23.00
   4   6  -8  109.09   29.60
   4   6  -8  135.79   17.60
  -2  -6   8  436.56   30.70
   2  -6  -8  412.56   22.10
   2  -6  -8  392.86   38.70
   2  -6  -8  377.76   21.50
  -2  -6   8  398.36   36.20
   2   6  -8  374.26   40.90
   2   6  -8  428.56   29.40
   0  -6  -8  115.29    9.90
   0  -6   8  146.49   24.20
   0  -6  -8  109.89   38.60
   0  -6   8  125.29   19.00
   0  -6  -8  131.49    9.60
  -2  -6  -8  665.53   65.29
   2  -6   8  661.03   41.70
   2  -6   8  720.03   42.90
   4  -6   8    2.30    9.90
   4  -6   8   19.80   11.90
  -4  -6  -8   71.19   30.40
   4  -6   8   24.90    9.70
   6  -6   8   27.60    9.60
   6  -6   8    3.90    6.30
   6  -6   8    7.90   11.30
  -6  -6  -8   10.90   21.80
   8  -6   8   91.69   21.70
  -8  -6  -8   62.59   36.20
   8   6   8   65.79    9.50
  10  -6   8   88.59   22.30
 -10  -6  -8   38.60   29.60
  10   6   8   88.19   11.90
  12   6   8    4.40    9.20
  14   6   8   97.79   16.50
  16   6   8   43.90   14.90
  18   6   8   -6.80   12.90
 -23  -7   8   45.90   20.10
  23  -7  -8   21.90   26.70
  23   7  -8   16.00   41.00
 -21  -7   8   32.00   20.60
  21   7  -8   -1.00   37.10
  19  -7  -8   52.19   25.20
  19   7  -8    0.80   32.40
 -19   7   8   -6.70   36.50
 -17  -7   8  228.38   30.00
  17  -7  -8  285.37   40.00
  17   7  -8  236.38   30.00
 -17   7   8  312.17   49.99
  17   7  -8  424.36   82.09
  15  -7  -8    4.80   16.70
 -15  -7   8    5.70   14.20
  15  -7  -8    7.70   15.00
 -15   7   8  -13.00   17.40
  15   7  -8   18.10   27.90
  15   7  -8   -5.00   12.40
  13  -7  -8   69.29   19.60
 -13  -7   8   41.50   15.90
  13  -7  -8   64.59   25.30
 -13  -7   8   62.19   29.00
  13   7  -8   47.10   26.80
  13   7  -8   27.00   33.40
 -13   7   8   10.90   20.30
 -11  -7   8   -9.60   10.50
  11  -7  -8   -4.20   16.50
  11  -7  -8   14.40   12.30
  11   7  -8   31.80   29.70
  11   7  -8   -8.90    9.20
   9  -7  -8  400.86   39.60
  -9  -7   8  296.17   41.40
  -9  -7   8  341.57   29.50
   9  -7  -8  351.76   28.20
   9   7  -8  424.26   55.39
   9   7  -8  317.47   27.60
  -7  -7   8  200.58   23.60
   7  -7  -8  185.28   19.60
   7  -7  -8  192.08   30.80
  -7  -7   8  219.58   40.30
   7   7  -8  176.18   20.80
   7   7  -8  219.38   44.40
  -5  -7   8   -8.60   15.50
   5  -7  -8   28.10   10.20
  -5  -7   8   73.99   17.70
   5  -7  -8   19.90   17.40
   5   7  -8   36.90   11.40
   5   7  -8   40.00   27.70
   3  -7  -8   -0.70    7.30
  -3  -7   8   -3.20   13.40
  -3  -7   8   15.30   11.40
   3  -7  -8   11.10    7.90
   3  -7  -8   25.40   19.10
   3   7  -8   -5.80    8.10
   1  -7  -8   13.40    7.40
   1  -7  -8   40.10   22.60
   1  -7  -8   23.00    7.10
  -1  -7   8    7.10   11.20
   1  -7  -8   14.00   23.70
  -1  -7   8   19.70   16.70
   1   7  -8   23.60   11.80
   1  -7   8  583.04   37.50
  -1  -7  -8  480.55   23.10
  -1  -7  -8  385.56   55.79
   1  -7   8  424.76   38.40
   3  -7   8   33.30   14.10
   3  -7   8   16.80   12.20
   3  -7   8   25.50   14.80
  -3  -7  -8   33.70   28.10
  -5  -7  -8    7.80   27.80
   5  -7   8   51.99   14.20
   5  -7   8   38.80   16.30
   5  -7   8   36.00   14.80
  -7  -7  -8   -4.80   26.60
   7  -7   8   14.40   15.60
   7  -7   8   29.70    9.70
   7  -7   8   31.60   13.00
   9  -7   8    8.80   16.40
  -9  -7  -8   45.50   42.00
   9   7   8   36.50    7.60
  11  -7   8   61.19   21.10
  11   7   8   42.80   10.00
  13  -7   8  221.78   36.00
  13   7   8  198.78   19.90
  15   7   8    5.90   10.50
  17   7   8   26.20   14.50
  22  -8  -8   48.10   28.80
 -22  -8   8   10.10   17.40
  22   8  -8  -29.60   39.90
 -20  -8   8   22.30   18.00
  20  -8  -8   21.00   25.10
  20   8  -8  -19.90   36.80
  18  -8  -8   81.39   29.80
 -18  -8   8  100.59   35.50
  18   8  -8   80.39   44.50
  16  -8  -8  107.39   29.50
 -16  -8   8   73.29   20.50
 -16   8   8   66.69   33.20
  16   8  -8   39.20   40.00
 -14  -8   8   16.00   14.40
  14  -8  -8   43.70   17.30
  14  -8  -8  -10.90   18.60
  14   8  -8    8.30   13.10
  14   8  -8  -28.10   27.50
  12  -8  -8  966.20   68.59
 -12  -8   8 1007.20   57.39
 -12  -8   8  850.91   74.49
  12   8  -8  928.11   55.29
  12   8  -8  976.00   93.49
 -10  -8   8   48.70   17.00
  10  -8  -8   18.60   19.90
  10  -8  -8   58.99   16.30
 -10  -8   8   -4.10   17.60
  10   8  -8    5.10   29.00
  -8  -8   8  855.61   49.20
   8  -8  -8  753.52   44.20
  -8  -8   8  646.84   61.19
   8  -8  -8  695.63   57.09
   8   8  -8  763.82   76.09
   8   8  -8  710.33   45.20
   6  -8  -8   51.39   13.20
  -6  -8   8   44.40   16.60
  -6  -8   8   22.90   20.90
   6  -8  -8   11.00   19.50
   6   8  -8   20.70   27.30
   6   8  -8   35.10   13.30
  -4  -8   8   58.69   17.30
  -4  -8   8   86.49   28.00
   4  -8  -8   89.99   27.10
   4  -8  -8   98.89   15.20
   4   8  -8   91.69   19.10
   4   8  -8   73.69   31.80
   2  -8  -8   98.49   30.60
  -2  -8   8   44.40   16.40
  -2  -8   8   53.49   22.50
   2  -8  -8   62.89   53.69
   2  -8  -8   73.39   12.30
   2  -8  -8   88.09   13.30
   2   8  -8   41.80   15.40
   0  -8   8  -21.10   13.50
   0  -8  -8  -34.80   16.30
   0  -8   8   -9.60    9.60
   0  -8  -8  -10.10   21.40
   0  -8  -8   20.30    7.90
   2  -8   8    6.30   11.90
  -2  -8  -8   -9.90    5.00
  -2  -8  -8   50.19   30.50
  -4  -8  -8   85.49    9.10
   4  -8   8   64.19   19.10
   4  -8   8   89.79   21.80
   4  -8   8   44.60   20.60
  -4  -8  -8   16.40   27.00
  -6  -8  -8   75.39    8.80
   6  -8   8   94.39   17.30
   6  -8   8  119.39   24.70
   6  -8   8   82.89   22.90
   8  -8   8  121.99   21.50
   8  -8   8   73.39   14.50
  -8  -8  -8  110.69   10.70
  10  -8   8    8.80   17.00
  10   8   8   12.80    7.30
  12  -8   8   58.19   21.80
  12   8   8   39.80   10.10
  14  -8   8   47.70   22.90
  14   8   8    6.00    9.70
  16  -8   8   29.80   23.30
  16   8   8   17.40   12.40
  21  -9  -8   29.90   25.10
 -21  -9   8   53.49   19.90
  21   9  -8  -41.70   38.00
  19  -9  -8   37.00   25.60
 -19  -9   8    1.50   16.10
  19   9  -8  -22.10   34.70
 -17  -9   8   27.90   17.10
  17   9  -8  -23.00   35.80
 -15  -9   8    7.10   14.00
  15  -9  -8    1.90   20.30
  15   9  -8    9.80   37.40
  13  -9  -8   77.19   27.00
  13  -9  -8  126.49   25.50
 -13  -9   8  101.59   22.80
  13   9  -8  138.19   56.99
  13   9  -8  122.39   23.60
  11  -9  -8   60.99   18.50
  11  -9  -8   75.59   27.10
 -11  -9   8   24.90   15.70
  11   9  -8   47.90   38.70
  11   9  -8   46.90   18.10
  -9  -9   8    0.10   20.60
  -9  -9   8   16.80   14.90
   9  -9  -8   23.30   13.70
   9  -9  -8  -14.00   17.40
   9   9  -8  -35.30   26.70
   9   9  -8   -4.10   11.60
  -7  -9   8   -3.60   12.70
   7  -9  -8    0.20   11.60
   7  -9  -8   17.70   12.80
   7  -9  -8  -24.60   14.60
  -7  -9   8    2.80   20.40
   7   9  -8    1.00   11.60
   7   9  -8    5.60   27.40
  -5  -9   8  -23.50   17.00
   5  -9  -8   -0.30    9.30
   5  -9  -8   43.70   22.60
  -5  -9   8   19.90   14.10
   5  -9  -8   -2.50    9.40
   5   9  -8  -10.40   26.50
   5   9  -8    5.70   12.80
   3  -9  -8  214.68   40.80
   3  -9  -8  174.28   19.00
  -3  -9   8  165.68   25.70
   3  -9  -8  228.98   53.49
   3  -9  -8  167.98   20.30
  -3  -9   8  226.88   41.40
   3   9  -8  210.88   27.70
  -1  -9   8   33.00   16.40
   1  -9  -8   -0.40    7.80
   1  -9  -8   25.80   34.60
   1  -9  -8  -43.10   14.40
   1  -9  -8  -10.60    8.10
  -1  -9   8   -9.20   19.80
   1  -9   8    0.80   19.10
   1  -9   8   -1.80   13.70
  -1  -9  -8  -12.80    6.20
   3  -9   8  231.28   28.30
   3  -9   8  227.28   37.60
   3  -9   8  303.37   56.29
  -3  -9  -8  170.98   15.00
  -5  -9  -8    4.60    6.20
   5  -9   8   -8.80   15.60
   5  -9   8   -1.60   14.30
   7  -9   8   48.60   15.10
   7  -9   8   24.10   17.40
   7  -9   8   20.70   21.00
  -7  -9  -8   48.30    7.90
  -9  -9  -8  171.28   13.70
   9  -9   8  159.88   29.10
   9  -9   8  147.19   20.20
   9  -9   8  118.99   22.70
  11  -9   8   20.00   18.00
  13  -9   8   66.69   24.20
  13   9   8   59.49   10.90
  15  -9   8   16.00   22.20
  15   9   8    9.70    9.40
 -18 -10   8    4.20   15.90
  18 -10  -8   -5.20   20.40
  18  10  -8    4.00   40.20
  16 -10  -8   22.60   23.20
 -16 -10   8   59.39   22.10
  16  10  -8   45.60   45.70
  14 -10  -8   62.69   27.30
 -14 -10   8   16.00   18.20
  14  10  -8  -37.30   32.00
 -12 -10   8   21.30   15.20
  12  10  -8   34.10   40.80
  10 -10  -8   41.50   16.70
 -10 -10   8   57.69   18.30
  10 -10  -8   26.20   23.70
   8 -10  -8  367.56   31.20
  -8 -10   8  328.57   34.70
   8 -10  -8  366.06   46.40
   8 -10  -8  372.36   32.30
   8  10  -8  369.36   45.50
   8  10  -8  343.57   67.19
  -6 -10   8   34.00   25.80
   6 -10  -8   -2.10   18.70
   6 -10  -8    8.60   10.80
  -6 -10   8   19.30   16.90
   6 -10  -8    7.40   12.10
   6  10  -8    2.10   14.40
   6  10  -8   -9.20   33.30
   4 -10  -8    9.90   11.30
   4 -10  -8    1.80   18.40
  -4 -10   8   -4.90   12.50
  -4 -10   8    6.70   30.60
   4 -10  -8   -6.40   11.30
  -2 -10   8   39.50   27.50
   2 -10  -8   65.29   17.20
  -2 -10   8   54.49   19.90
   2 -10  -8   72.89   38.40
   2 -10  -8   54.99   13.80
   0 -10  -8  -22.10   23.30
   0 -10   8   11.70   21.90
   0 -10  -8   -0.40    8.60
   0 -10   8  -14.10   12.50
   2 -10   8  -16.50   18.80
   2 -10   8   24.00   21.20
   2 -10   8   10.70   20.50
  -2 -10  -8  -12.40    7.80
   4 -10   8   17.50   22.90
   4 -10   8    1.30   16.20
  -4 -10  -8   13.20    8.10
   4 -10   8   -3.40   13.80
   6 -10   8    4.80   21.90
   6 -10   8   -9.10   22.10
  -6 -10  -8    5.10    6.80
   6 -10   8   26.60   18.60
   8 -10   8   71.19   18.30
   8 -10   8   81.49   25.50
  -8 -10  -8   78.29   10.70
   8 -10   8   50.99   29.70
  10 -10   8   44.30   21.30
  10 -10   8    5.20   19.40
  10 -10   8    9.70   14.60
  12 -10   8   17.40   19.70
 -15 -11   8   10.50   15.80
  15 -11  -8   22.40   24.70
  15  11  -8   23.30   43.30
 -13 -11   8   34.20   18.00
  13 -11  -8   19.40   23.10
  13  11  -8   -5.70   39.60
  11 -11  -8   13.10   14.50
  11 -11  -8    0.60   23.00
 -11 -11   8   45.50   18.90
  11  11  -8   27.00   43.50
  -9 -11   8   54.69   20.60
   9 -11  -8  161.08   25.10
   9 -11  -8   55.69   29.20
   9 -11  -8   68.49   18.10
   9  11  -8   29.00   40.70
  -7 -11   8   -4.10   16.50
   7 -11  -8   12.80   12.60
   7 -11  -8  -15.60   19.70
   7 -11  -8   14.50   14.10
   5 -11  -8   21.40   12.50
   5 -11  -8  -13.80   19.20
   5 -11  -8   19.00   13.60
  -5 -11   8   29.20   20.10
   3 -11  -8    7.50   11.70
   3 -11  -8    2.50   10.80
   3 -11  -8   57.69   27.10
  -3 -11   8   10.80   27.30
  -3 -11   8   16.30   15.20
   1 -11  -8   52.89   14.60
  -1 -11   8   32.00   35.10
   1 -11  -8   -9.70   22.80
  -1 -11   8   38.70   18.00
   1 -11  -8   53.59   15.10
   1 -11   8  -14.30   21.60
  -1 -11  -8   34.10   32.00
   1 -11   8   -2.80   14.10
  -1 -11  -8   -4.50    8.60
   3 -11   8   55.59   23.20
  -3 -11  -8   58.69   11.50
   3 -11   8   69.69   31.10
   3 -11   8   67.99   23.40
   5 -11   8   24.40   27.50
  -5 -11  -8   13.40    8.60
   5 -11   8   30.30   20.20
   5 -11   8   36.40   20.20
   7 -11   8  104.29   32.20
   7 -11   8  102.09   23.70
   7 -11   8  105.59   26.70
  -7 -11  -8  108.09   12.30
   9 -11   8    7.80   30.30
   9 -11   8   31.10   23.10
   9 -11   8    6.70   16.40
  11 -11   8   33.70   23.40
  11 -11   8   29.60   23.10
  11 -11   8   25.50   15.70
  12 -12  -8  -13.20   18.30
  12 -12  -8   26.10   15.40
 -12 -12   8   19.10   17.10
  12  12  -8   49.90   50.89
 -10 -12   8    7.80   15.00
  10 -12  -8   13.70   23.20
  10  12  -8   33.10   39.50
   8 -12  -8   64.69   29.20
  -8 -12   8   69.99   21.20
   8 -12  -8   25.10   16.00
   8 -12  -8   47.30   16.80
  -6 -12   8   32.70   18.90
   6 -12  -8   47.20   30.70
   6 -12  -8   48.70   16.30
   6 -12  -8   31.40   15.70
   4 -12  -8   24.70   27.10
   4 -12  -8   12.70   13.30
  -4 -12   8   15.80   15.90
   4 -12  -8   27.30   15.40
   2 -12  -8   -1.20   10.70
   2 -12  -8    1.80   26.20
  -2 -12   8   20.20   16.00
   2 -12  -8   13.30   13.80
   0 -12  -8   -7.30   10.10
   0 -12  -8   15.40   12.80
   0 -12   8   19.80   17.60
   0 -12  -8   31.40   28.40
   0 -12   8   -7.70   26.60
  -2 -12  -8   71.39   14.10
   2 -12   8   12.10   23.30
   2 -12   8   74.49   23.70
  -2 -12  -8   89.89   39.60
   2 -12   8    5.80   29.10
  -2 -12  -8   56.99   16.00
   4 -12   8   32.50   22.50
  -4 -12  -8    0.20    9.20
   4 -12   8   42.80   21.70
   4 -12   8   10.60   30.70
   6 -12   8   -0.70   15.40
   6 -12   8  -20.60   26.50
   6 -12   8  -19.90   16.00
  -6 -12  -8    8.40    8.50
   7 -13  -8    1.10   12.90
  -7 -13   8   53.39   21.60
   7 -13  -8   11.90   26.60
   5 -13  -8  -26.30   21.50
  -5 -13   8  -16.80   15.00
   5 -13  -8   -5.20   14.10
   5 -13  -8    9.00   13.70
   3 -13  -8   -7.40   13.00
  -3 -13   8    6.20   15.50
   3 -13  -8    8.20   29.90
   3 -13  -8   -5.00   10.90
   1 -13  -8   66.89   34.10
   1 -13  -8   44.00   15.70
   1 -13  -8   30.60   15.40
  -1 -13   8   22.90   18.60
   1 -13   8   23.40   24.10
  -1 -13  -8   -0.80   12.00
  -1 -13  -8  -32.60   21.80
  -1 -13  -8   -3.70   10.50
   1 -13   8  -10.30   15.30
  26   0  -9  -10.60   29.70
 -26   0   9    6.20   17.30
 -24   0   9    3.50   15.20
  24   0  -9  -17.60   26.00
 -22   0   9   15.50   14.80
  22   0  -9   -3.60   23.00
  20   0  -9   -1.80   22.80
 -20   0   9   -2.70   17.90
  20   0  -9   -7.20   12.50
 -20   0   9   -6.60   14.10
 -18   0   9    2.20   12.60
  18   0  -9  -18.40   17.30
  18   0  -9   25.20   13.20
 -18   0   9   -7.70   13.70
 -16   0   9    7.50   12.50
  16   0  -9   -0.70   17.30
  16   0  -9   16.50   11.50
 -16   0   9   -7.30    8.80
  14   0  -9   16.40   10.60
 -14   0   9    1.40    8.50
  14   0  -9    0.20   13.60
 -14   0   9    0.70   12.80
  12   0  -9   -7.70   11.20
  12   0  -9   -7.40    6.90
 -12   0   9  -13.00   10.60
 -12   0   9   -7.10    8.80
  10   0  -9   -2.80    7.40
  10   0  -9    9.70   14.40
 -10   0   9    1.00    9.10
 -10   0   9    7.70   10.80
   8   0  -9   -4.10   10.70
   8   0  -9   -5.20    6.00
  -8   0   9    9.20    9.50
  -8   0   9    3.00    7.60
  -6   0   9   -6.50    8.50
   6   0  -9   -6.30    6.00
  -6   0   9   -1.00    6.80
   6   0  -9  -11.30    9.40
  -4   0   9   -4.80    5.20
   4   0  -9   -1.50    8.60
  -4   0   9  -10.10    7.60
   4   0  -9   -6.40    4.90
   2   0  -9   -6.60    5.30
  -2   0   9   10.80    9.10
  -2   0   9   -2.80    5.70
   2   0  -9   -1.10    8.40
   0   0   9   -4.30    5.50
   0   0   9  -10.70    7.90
   0   0  -9    2.00    8.40
   0   0  -9   -2.40    4.90
   2   0   9    2.60    6.20
  -2   0  -9    7.00    7.90
  -4   0  -9   -3.60   12.40
   4   0   9   -3.40    6.70
  -6   0  -9  -14.50   11.50
   8   0   9    2.00    9.00
  -8   0  -9  -11.90   12.40
 -10   0  -9   17.30   12.20
  10   0   9    2.30    9.60
  12   0   9    5.90   11.60
  12   0   9   -9.70   21.60
  14   0   9   19.20   15.50
 -14   0  -9   -1.70   16.90
 -16   0  -9    2.60   17.50
  16   0   9   -2.40   14.90
  16   0   9    7.40   27.30
  18   0   9  -35.10   29.10
 -18   0  -9    1.70   19.20
 -20   0  -9   42.20   24.70
  20   0   9  -35.80   37.70
 -27  -1   9   25.40   21.20
  27  -1  -9    2.70   28.10
  27   1  -9   44.90   37.30
 -27   1   9   -4.60   17.60
  25  -1  -9  367.86   68.29
 -25  -1   9  387.86   42.20
  25   1  -9  438.96   76.49
 -25   1   9  374.86   42.90
 -23  -1   9   34.10   17.40
 -23   1   9   43.50   19.30
  23   1  -9   31.00   32.30
  21  -1  -9  926.21   76.49
 -21  -1   9  822.42   56.59
  21   1  -9  848.62   77.89
 -21   1   9  814.22   64.69
 -21   1   9  809.22   57.59
  19  -1  -9   19.10   20.90
 -19  -1   9   60.39   25.20
 -19  -1   9    6.50   13.40
  19  -1  -9   43.30   15.80
 -19   1   9   13.10   15.00
  19   1  -9    2.10   12.60
  19   1  -9   -1.60   21.20
 -19   1   9    5.10   18.10
  17  -1  -9  268.57   45.40
 -17  -1   9  269.07   27.10
  17  -1  -9  216.38   24.70
 -17  -1   9  191.38   31.70
 -17   1   9  191.78   30.40
  17   1  -9  281.97   41.50
  17   1  -9  210.48   24.40
 -17   1   9  176.28   24.80
  15  -1  -9   12.70   10.10
 -15  -1   9    7.60   11.80
 -15  -1   9   43.70   19.90
  15  -1  -9   28.80   17.90
 -15   1   9   15.00   14.60
  15   1  -9    7.40    8.90
  15   1  -9   10.50   19.00
 -15   1   9   -9.50    8.50
 -13  -1   9   69.89   15.60
  13  -1  -9   76.89   16.20
 -13  -1   9   90.89   23.20
  13  -1  -9   93.89   26.90
 -13   1   9   76.79   21.40
  13   1  -9   77.39   15.40
  13   1  -9   27.20   18.80
 -13   1   9   74.69   16.00
  11  -1  -9  600.34   35.10
  11  -1  -9  462.55   61.59
 -11  -1   9  672.13   45.20
 -11  -1   9  612.84   39.20
  11   1  -9  541.45   34.10
 -11   1   9  582.14   42.20
 -11   1   9  552.24   38.80
  11   1  -9  594.14   53.69
  -9  -1   9  406.46   34.10
   9  -1  -9  461.35   27.60
  -9  -1   9  443.26   28.40
   9  -1  -9  436.96   35.70
   9   1  -9  429.46   37.10
  -9   1   9  440.36   28.30
  -9   1   9  452.05   34.40
   9   1  -9  430.06   27.30
   7  -1  -9  228.48   17.30
   7  -1  -9  234.18   24.60
  -7  -1   9  243.98   19.00
  -7  -1   9  280.37   25.20
  -7   1   9  228.28   23.70
   7   1  -9  206.98   25.30
   7   1  -9  226.38   18.10
  -7   1   9  217.48   18.00
   5  -1  -9  776.42   35.30
   5  -1  -9  712.93   42.90
  -5  -1   9  722.53   41.50
  -5  -1   9  736.83   37.20
   5   1  -9  742.03   43.10
  -5   1   9  765.02   43.50
  -5   1   9  731.23   35.50
   5   1  -9  706.63   36.60
   3  -1  -9  227.78   21.90
  -3  -1   9  238.18   17.50
   3  -1  -9  213.28   14.60
  -3  -1   9  234.68   19.90
   3   1  -9  250.47   17.10
  -3   1   9  237.98   22.20
  -3   1   9  218.48   14.80
   3   1  -9  231.38   21.00
  -1  -1   9 1273.27   56.59
   1  -1  -9 1211.38   52.09
  -1  -1   9 1252.77   55.59
   1  -1  -9 1270.47   60.69
  -1   1   9 1251.97   52.29
   1   1  -9 1268.77   55.39
  -1   1   9 1225.38   60.99
   1   1  -9 1252.97   56.79
   1  -1   9  260.07   18.80
  -1  -1  -9  265.07   23.50
  -1   1  -9  270.97   18.00
   1   1   9  282.37   16.10
  -3  -1  -9   -8.30   13.50
   3  -1   9    3.50    7.50
  -3   1  -9   10.30   10.20
   3   1   9    3.70    5.00
  -3   1  -9   -3.20    6.60
   5  -1   9 1260.97   58.49
  -5  -1  -9 1299.57   71.99
  -5   1  -9 1229.18   54.89
  -5   1  -9 1272.67   58.09
   5   1   9 1207.58   55.99
  -7  -1  -9   95.69   23.90
   7   1   9  115.59   14.80
  -7   1  -9  128.09   16.40
  -9   1  -9  565.24   33.90
   9   1   9  523.75   32.50
  11  -1   9  228.68   24.60
 -11  -1  -9  222.88   31.60
 -11   1  -9  183.18   22.00
  11   1   9  203.68   39.00
  11   1   9  232.88   23.00
  13  -1   9   95.59   21.00
  13  -1   9   75.29   29.70
 -13  -1  -9   63.99   21.20
 -13   1  -9  100.59   20.70
  13   1   9   33.90   29.20
  13   1   9   53.89   16.70
 -15  -1  -9  140.29   30.80
  15  -1   9  128.79   35.60
  15  -1   9  128.89   24.00
 -15   1  -9  209.18   27.50
  15   1   9  122.09   43.40
  15   1   9  146.59   23.10
  17  -1   9   15.90   30.30
 -17  -1  -9    5.10   21.60
  17   1   9  -15.30   15.10
 -17   1  -9   26.50   17.90
  17   1   9   61.79   37.70
  19  -1   9   29.00   32.50
 -19   1  -9   39.90   21.80
  19   1   9   47.90   43.10
  21  -1   9   40.70   45.40
 -21  -1  -9   15.60   24.30
 -21   1  -9   23.50   21.90
  21   1   9  -29.60   39.50
 -26  -2   9   17.80   19.30
  26  -2  -9  -26.70   23.60
 -26   2   9   11.90   18.00
  26   2  -9   34.90   40.50
 -24  -2   9   14.80   16.60
  24  -2  -9   31.60   29.90
 -24   2   9  -11.70   14.40
  24   2  -9   24.60   32.40
 -22  -2   9  109.09   24.20
  22  -2  -9   49.50   30.50
 -22   2   9   76.49   23.90
  22   2  -9  106.79   45.40
 -20  -2   9   39.90   24.80
  20  -2  -9  -11.60   19.00
 -20  -2   9    7.70   14.40
  20   2  -9   -2.80   13.60
 -20   2   9   48.40   22.20
  20   2  -9    8.70   29.20
 -20   2   9   -3.10   13.90
  18  -2  -9  127.79   23.20
  18  -2  -9   88.19   27.50
 -18  -2   9   98.69   22.30
 -18  -2   9  129.09   31.60
 -18   2   9  140.09   25.50
  18   2  -9   55.59   30.80
  18   2  -9  151.18   24.70
 -18   2   9  166.78   32.80
  16  -2  -9   14.20   18.20
  16  -2  -9   18.40   11.50
 -16  -2   9   38.80   15.20
 -16  -2   9    9.60   17.10
 -16   2   9    4.30   13.10
 -16   2   9   -6.90    9.70
  16   2  -9  -10.40   15.90
  16   2  -9   24.20   11.70
 -14  -2   9  120.49   27.10
  14  -2  -9  107.19   28.70
  14  -2  -9  104.89   18.80
 -14  -2   9   99.09   18.40
 -14   2   9  117.09   24.20
 -14   2   9   72.39   17.20
  14   2  -9   87.29   27.90
  14   2  -9  103.79   18.80
 -12  -2   9  262.07   23.60
  12  -2  -9  236.48   30.70
 -12  -2   9  280.57   31.20
  12  -2  -9  246.38   22.60
 -12   2   9  253.67   24.30
 -12   2   9  215.68   28.10
  12   2  -9  240.08   34.70
  12   2  -9  251.67   22.20
  10  -2  -9 1178.68   73.09
  10  -2  -9 1163.48   56.29
 -10  -2   9 1185.28   67.19
  10   2  -9 1190.18   78.89
 -10   2   9 1146.99   64.49
  10   2  -9 1181.98   57.09
 -10   2   9 1139.29   56.99
  -8  -2   9  319.67   33.90
  -8  -2   9  248.58   21.20
   8  -2  -9  252.17   19.90
   8  -2  -9  256.67   27.40
  -8   2   9  325.57   29.10
   8   2  -9  279.67   31.20
  -8   2   9  247.28   20.30
   8   2  -9  260.67   20.60
  -6  -2   9  143.99   20.10
   6  -2  -9  150.78   21.40
  -6  -2   9  147.19   16.00
   6  -2  -9  153.98   13.40
  -6   2   9  161.08   21.50
   6   2  -9  152.58   15.50
   6   2  -9  152.28   24.60
  -6   2   9  123.09   14.00
  -4  -2   9 1729.73   78.19
  -4  -2   9 1705.53   74.59
   4  -2  -9 1722.23   81.79
   4  -2  -9 1683.53   70.29
   4   2  -9 1679.43   79.99
  -4   2   9 1677.83   81.69
   4   2  -9 1681.73   74.19
  -4   2   9 1730.13   70.89
   2  -2  -9 1289.57   65.99
  -2  -2   9 1342.07   60.39
  -2  -2   9 1355.26   60.19
   2  -2  -9 1366.26   54.59
  -2   2   9 1310.17   54.59
   2   2  -9 1360.26   62.49
  -2   2   9 1240.38   66.49
   2   2  -9 1333.07   59.79
   0  -2   9  171.68   16.10
   0  -2  -9  119.99   19.50
   0  -2   9  142.99   12.60
   0   2   9  134.39    9.00
   0   2  -9  124.29   13.80
   0   2  -9  141.99   14.50
  -2  -2  -9   78.59   23.80
   2  -2   9   75.29   13.30
   2   2   9   93.69    8.10
  -2   2  -9   90.39    8.50
   4  -2   9   86.89   14.50
  -4  -2  -9   42.00   22.00
   4   2   9   89.79   10.40
   4   2   9  111.69   10.00
   6   2   9  169.38   14.70
  -8  -2  -9   17.20   20.20
  -8   2  -9    9.00    6.20
   8   2   9   -5.40    7.10
  10  -2   9   10.40   12.10
 -10  -2  -9   23.00   20.20
 -10   2  -9   24.90    9.30
  10   2   9    9.10    9.20
  12  -2   9   10.90   13.90
 -12  -2  -9   50.89   24.60
 -12   2  -9   55.29   13.50
  12   2   9  -17.90   26.80
  12   2   9   37.10   13.30
  14  -2   9   61.59   24.70
 -14  -2  -9   49.20   26.10
  14  -2   9   53.89   18.30
 -14   2  -9   46.40   14.60
  14   2   9   54.39   17.70
  14   2   9   -5.30   30.60
 -16  -2  -9   29.20   26.60
  16  -2   9   89.99   29.20
  16   2   9   57.79   37.90
 -16   2  -9   39.70   16.20
  16   2   9   24.40   16.30
 -18  -2  -9   31.00   27.40
  18  -2   9   23.10   29.90
  18   2   9   19.20   17.30
  18   2   9    3.40   38.00
 -18   2  -9   -0.60   16.00
  20  -2   9   -0.50   32.10
  20   2   9   10.70   44.40
 -20   2  -9   34.90   19.10
  27  -3  -9   17.40   32.70
 -27  -3   9   59.19   23.10
  27   3  -9  105.19   51.19
 -25  -3   9   28.50   18.80
  25  -3  -9   51.19   33.20
 -25   3   9   -7.00   19.70
  25   3  -9   11.60   34.10
 -23  -3   9   -7.50   14.80
 -23   3   9    0.00   15.00
  23   3  -9   39.60   34.60
 -21  -3   9  121.19   25.00
  21  -3  -9  134.89   36.20
  21   3  -9  137.29   58.49
 -21   3   9  181.28   37.90
 -21   3   9  223.38   31.50
 -19  -3   9   51.39   28.30
  19  -3  -9  153.38   26.60
  19  -3  -9  212.38   41.50
 -19  -3   9  153.18   27.20
 -19   3   9  113.19   24.90
  19   3  -9  180.08   46.00
 -19   3   9  184.38   36.90
  19   3  -9  177.28   26.00
  17  -3  -9   34.10   14.00
 -17  -3   9   53.19   22.90
 -17  -3   9   58.39   17.60
  17  -3  -9   92.59   30.70
 -17   3   9   70.09   25.20
 -17   3   9   35.10   16.20
  17   3  -9  106.99   38.10
  15  -3  -9 1515.25   86.69
 -15  -3   9 1436.96   74.29
  15  -3  -9 1553.84   75.19
 -15  -3   9 1380.76   87.09
  15   3  -9 1515.95   73.89
  15   3  -9 1467.55   97.39
 -15   3   9 1423.36   74.99
 -15   3   9 1503.45   82.99
  13  -3  -9   57.49   14.90
 -13  -3   9  115.29   19.40
 -13  -3   9   83.19   23.10
  13  -3  -9   85.29   24.50
 -13   3   9   75.69   21.10
  13   3  -9   78.69   27.90
  13   3  -9  101.09   18.50
 -13   3   9   88.49   17.30
  11  -3  -9   10.60    8.90
  11  -3  -9   -1.50   12.60
 -11  -3   9    6.90   14.40
 -11  -3   9  -10.00    8.40
  11   3  -9    9.80    8.60
 -11   3   9  -11.60   11.90
  11   3  -9    3.60   15.50
 -11   3   9    8.10    9.40
  -9  -3   9  517.25   35.50
  -9  -3   9  517.15   40.60
   9   3  -9  496.05   45.00
  -9   3   9  436.86   29.40
  -9   3   9  479.85   38.20
   9   3  -9  427.06   29.40
  -7  -3   9   -4.60   12.30
   7  -3  -9   16.80   15.30
  -7  -3   9   14.10    9.70
   7  -3  -9   26.10    8.90
  -7   3   9   18.80    8.30
   7   3  -9  -17.60   13.60
   7   3  -9    2.60    8.10
  -7   3   9    5.30   12.10
  -5  -3   9   10.40   11.80
  -5  -3   9   40.20   11.50
   5  -3  -9   46.40    8.40
   5  -3  -9   56.49   16.90
   5   3  -9   60.99   19.40
   5   3  -9   43.50   10.30
  -5   3   9   43.30   15.90
  -5   3   9   31.20    8.40
   3  -3  -9   19.70    5.60
  -3  -3   9   40.60   11.90
   3  -3  -9   -0.70   12.60
  -3  -3   9   20.30   10.10
  -3   3   9   18.70    6.30
   3   3  -9   23.00   13.30
  -1  -3   9    6.30    8.00
   1  -3  -9   14.70   13.20
  -1  -3   9    7.20    9.00
  -1   3   9    2.40    3.10
   1   3  -9    2.80   10.40
   1   3  -9    7.80    7.70
  -1  -3  -9  947.41   55.39
   1  -3   9  912.31   39.90
   1  -3   9  917.11   46.80
  -1   3  -9  926.81   42.90
  -3  -3  -9  298.37   40.40
  -5  -3  -9  864.41   65.99
   5  -3   9  927.11   48.30
   5   3   9  907.61   39.00
  -7  -3  -9   36.90   22.60
   7   3   9   39.70    8.60
  -9  -3  -9  614.74   56.99
   9   3   9  657.93   34.20
 -11  -3  -9  -31.30   16.90
  11  -3   9   -4.40   11.90
  11   3   9  -11.40    8.90
 -13  -3  -9  109.69   32.90
  13  -3   9  118.39   24.70
  13   3   9  159.18   21.30
 -13   3  -9  126.99   15.80
  13   3   9  129.19   46.10
  15   3   9   74.69   40.60
 -15   3  -9   55.69   15.50
  15   3   9   73.99   18.60
 -17  -3  -9   18.20   26.60
  17   3   9   65.59   19.80
  17   3   9    1.70   34.50
 -17   3  -9   17.60   14.40
 -19   3  -9   37.20   18.70
  19   3   9  114.99   62.59
  19   3   9   42.80   19.80
 -26  -4   9   14.20   19.90
  26  -4  -9   94.49   36.70
  26   4  -9   53.19   44.50
 -24  -4   9   48.00   21.80
  24  -4  -9   10.70   23.60
  24   4  -9   19.90   35.40
  22  -4  -9   14.90   22.50
 -22  -4   9   10.80   17.20
  22   4  -9    1.60   32.50
 -20  -4   9   -8.20   12.40
  20  -4  -9    7.30   19.90
 -20   4   9   14.60   19.20
  18  -4  -9   29.60   22.10
 -18  -4   9   11.00   18.80
 -18  -4   9   12.70   15.00
  18  -4  -9   13.60   13.50
 -18   4   9    0.10   14.60
  18   4  -9  -12.00   23.90
 -18   4   9    7.90   20.00
  18   4  -9   -1.50   11.70
 -16  -4   9  175.48   38.70
 -16  -4   9  122.09   21.70
  16  -4  -9   57.49   25.90
 -16   4   9  110.79   28.20
 -16   4   9  123.59   22.40
  16   4  -9  135.89   22.10
  16   4  -9  153.88   41.40
 -14  -4   9   23.70   13.10
  14  -4  -9    4.00   14.60
 -14  -4   9    8.90   16.30
  14  -4  -9   19.10   11.60
  14   4  -9  -14.50   18.40
 -14   4   9   24.80   17.10
  14   4  -9   -9.70    8.70
 -14   4   9    0.60   10.50
 -12  -4   9  200.68   22.10
  12  -4  -9  197.18   20.70
  12  -4  -9  144.69   27.80
 -12  -4   9  197.28   34.10
 -12   4   9  168.68   21.50
  12   4  -9  252.17   43.70
  12   4  -9  194.88   20.50
 -12   4   9  159.28   25.70
 -10  -4   9   10.30   10.40
  10  -4  -9   -4.20   11.60
 -10  -4   9   -9.70   12.40
  10  -4  -9   -0.90    8.80
 -10   4   9    5.90   11.00
  10   4  -9    5.20    9.20
  10   4  -9   13.10   19.50
 -10   4   9    2.90   12.00
   8  -4  -9   22.20   15.40
   8  -4  -9    8.40    8.50
  -8  -4   9    1.90    8.10
  -8  -4   9   16.70   15.40
   8   4  -9   -3.70    7.70
  -8   4   9   -2.20    8.20
   8   4  -9   18.70   19.80
  -8   4   9    1.20   11.30
   6  -4  -9  210.28   34.50
  -6  -4   9  229.58   34.90
   6  -4  -9  158.88   15.50
  -6  -4   9  223.28   30.00
  -6   4   9  202.48   17.70
  -6   4   9  188.98   26.10
   6   4  -9  206.48   19.00
   6   4  -9  265.07   33.70
  -4  -4   9  307.17   27.40
  -4  -4   9  322.67   28.70
   4  -4  -9  327.47   35.90
   4  -4  -9  244.08   17.20
   4   4  -9  341.37   34.60
   4   4  -9  313.17   23.10
  -2  -4   9   87.99   17.50
  -2  -4   9   58.29   15.20
   2  -4  -9   86.19   21.40
   2  -4  -9   51.09    7.00
   2   4  -9   64.89   12.40
   2   4  -9  102.69   21.30
   0  -4   9  384.26   27.70
   0  -4   9  367.56   24.40
   0   4  -9  333.27   25.30
   0   4  -9  357.76   29.40
  -2  -4  -9   28.40   22.80
   2  -4   9   50.39   14.30
   2  -4   9   53.79    8.00
  -4  -4  -9  175.18   38.70
   4  -4   9  240.68   23.30
   6  -4   9   12.60   11.90
  -6  -4  -9    5.20   20.90
   6   4   9   33.70    5.80
  -8  -4  -9   54.39   29.90
   8  -4   9   70.49   19.00
   8   4   9   92.59   11.10
 -10  -4  -9   13.20   23.80
  10   4   9   26.00    9.40
  12  -4   9   18.50   17.50
 -12  -4  -9   10.30   25.30
  12   4   9   12.40   10.00
 -14  -4  -9   32.60   31.20
  14   4   9   28.40   12.90
  16   4   9    2.60   13.30
  16   4   9   11.00   39.10
  18   4   9   23.90   16.60
  18   4   9    7.60   42.90
  20   4   9  -29.70   46.00
  20   4   9  -14.50   14.80
 -25  -5   9   97.59   27.70
  25  -5  -9   95.99   38.70
  25   5  -9   35.40   43.50
 -23  -5   9    4.20   15.20
  23  -5  -9   17.10   22.80
  23   5  -9  -27.60   28.50
  21  -5  -9  163.68   37.50
 -21  -5   9  171.78   30.00
  21   5  -9   55.89   38.90
  19  -5  -9   62.69   27.90
 -19  -5   9    0.60   15.20
 -19   5   9   27.50   22.80
  19   5  -9   11.60   41.20
 -17  -5   9  336.17   31.90
  17  -5  -9  256.97   30.10
 -17  -5   9  231.48   44.50
  17  -5  -9  270.27   39.10
  17   5  -9  271.87   29.00
  17   5  -9  260.47   55.89
 -15  -5   9  158.48   35.10
 -15  -5   9  175.88   26.30
  15  -5  -9  159.48   22.90
  15  -5  -9  153.08   30.90
  15   5  -9  146.39   43.80
  15   5  -9  112.09   20.60
 -15   5   9  150.08   29.90
 -13  -5   9  192.08   37.30
 -13  -5   9  156.78   22.10
  13  -5  -9  181.88   21.80
  13  -5  -9  182.48   31.70
 -13   5   9  188.68   29.20
  13   5  -9  177.48   21.30
  13   5  -9  213.48   45.90
  11  -5  -9  660.43   49.00
  11  -5  -9  597.94   38.10
 -11  -5   9  644.04   40.00
 -11  -5   9  512.85   49.30
 -11   5   9  586.64   47.50
  11   5  -9  677.93   62.49
  11   5  -9  683.43   39.30
  -9  -5   9   95.19   18.50
  -9  -5   9   51.29   21.30
   9  -5  -9   90.09   15.30
   9  -5  -9  123.39   24.70
   9   5  -9   98.99   29.80
   9   5  -9   85.69   15.90
  -9   5   9   77.79   21.50
  -7  -5   9  673.23   50.29
  -7  -5   9  708.53   41.20
   7  -5  -9  722.63   50.09
   7  -5  -9  666.33   36.60
   7   5  -9  726.33   40.10
  -7   5   9  626.64   48.50
  -5  -5   9  265.37   32.60
   5  -5  -9  239.08   29.70
  -5  -5   9  213.48   21.70
   5  -5  -9  222.58   16.90
   5   5  -9  203.68   20.50
   5   5  -9  257.57   40.40
   3  -5  -9   42.30   18.30
  -3  -5   9   19.50   11.90
  -3  -5   9   12.40   13.60
   3  -5  -9   14.70    6.10
   3   5  -9   -8.60   15.30
   3   5  -9   14.80    9.80
  -1  -5   9  562.64   38.30
   1  -5  -9  616.04   26.20
   1  -5  -9  568.94   46.00
  -1  -5   9  629.64   38.10
   1  -5  -9  624.14   26.30
   1   5  -9  619.04   37.00
   1   5  -9  770.32   48.20
   1  -5   9  464.15   31.30
   1  -5   9  427.46   28.50
  -1  -5  -9  394.66   50.09
   3  -5   9   25.30   12.80
   3  -5   9    0.90    6.60
  -3  -5  -9   23.00   25.80
   3  -5   9   18.30    7.70
  -5  -5  -9  669.03   65.99
   5  -5   9  782.02   45.60
  -7  -5  -9  207.68   44.70
   7  -5   9  191.48   25.20
   7   5   9  245.98   13.30
   9  -5   9  170.58   27.30
  -9  -5  -9   94.99   33.00
   9   5   9  171.18   14.30
 -11  -5  -9   29.50   29.10
  11   5   9    9.80    8.50
 -13  -5  -9    1.20   27.10
  13   5   9   15.50   10.90
  15   5   9   24.20   12.30
  17   5   9    8.80   13.00
 -24  -6   9   -0.40   17.10
  24  -6  -9  -19.90   21.20
  24   6  -9    7.80   44.10
 -22  -6   9   15.30   17.60
  22  -6  -9    8.90   24.30
  22   6  -9  108.79   49.70
  20  -6  -9   72.89   28.00
 -20  -6   9   45.90   19.60
  20   6  -9    4.10   34.40
  18  -6  -9   20.70   21.90
 -18  -6   9   36.60   16.30
  18   6  -9  -18.10   30.60
 -18   6   9   -7.90   20.60
 -16  -6   9  230.38   28.20
  16  -6  -9  195.18   36.20
  16  -6  -9  142.99   24.90
  16   6  -9  111.19   46.00
 -16   6   9  149.88   38.40
  16   6  -9  126.39   23.90
 -14  -6   9    9.60   21.90
 -14  -6   9   31.70   15.80
  14  -6  -9   10.90   16.70
  14  -6  -9   30.60   14.10
 -14   6   9   34.10   22.60
  14   6  -9   38.40   19.60
  14   6  -9   53.09   32.80
  12  -6  -9  287.77   36.00
  12  -6  -9  380.96   30.50
 -12  -6   9  404.26   31.90
 -12  -6   9  399.26   45.20
  12   6  -9  351.46   29.80
 -12   6   9  322.87   39.00
  12   6  -9  374.56   55.29
 -10  -6   9  145.79   33.70
  10  -6  -9  181.08   33.00
  10  -6  -9  110.29   18.60
 -10  -6   9  165.98   21.10
  10   6  -9  159.38   41.40
  10   6  -9  132.19   20.80
 -10   6   9  157.48   32.60
  -8  -6   9  154.28   30.90
   8  -6  -9  178.18   32.50
  -8  -6   9  133.29   19.90
   8  -6  -9  140.49   17.30
   8   6  -9  199.98   42.30
   8   6  -9  104.19   17.50
  -6  -6   9  188.48   21.60
   6  -6  -9  161.68   16.20
  -6  -6   9  147.09   28.90
   6  -6  -9  156.28   27.70
   6   6  -9  197.98   39.00
   6   6  -9  148.19   18.70
   4  -6  -9  175.28   28.90
  -4  -6   9  231.38   23.30
  -4  -6   9  233.08   29.20
   4  -6  -9  238.78   17.00
   4   6  -9  202.88   21.40
   4   6  -9  249.18   40.80
   2  -6  -9   -2.50    4.70
   2  -6  -9   20.80   17.30
  -2  -6   9   -1.20    9.20
   2  -6  -9    6.80    5.40
  -2  -6   9    0.40   12.20
   2   6  -9    8.60    8.90
   2   6  -9   29.80   18.50
   0  -6   9  450.35   32.20
   0  -6   9  401.66   32.90
   0  -6  -9  328.17   50.79
   0  -6  -9  410.46   41.50
   2  -6   9   44.40   13.40
   2  -6   9   26.70   13.10
  -2  -6  -9   41.80   29.30
  -4  -6  -9  266.97   50.99
   4  -6   9  383.76   31.20
   4  -6   9  330.47   20.80
   4  -6   9  340.97   22.90
  -6  -6  -9  262.97   51.59
   6  -6   9  228.58   26.60
  -8  -6  -9   31.90   30.70
   8  -6   9   43.70   18.20
   8   6   9   71.79    8.20
 -10  -6  -9  118.09   40.30
  10  -6   9   99.99   23.10
  10   6   9  132.79   13.60
  12  -6   9    1.80   18.90
  12   6   9    7.50    8.50
  14   6   9   -9.60    9.90
  16   6   9   10.00   12.20
  18   6   9    7.90   13.80
  23  -7  -9   16.20   23.60
 -23  -7   9    1.80   16.00
  23   7  -9  -15.20   33.60
 -21  -7   9   67.19   20.60
  21  -7  -9   56.79   32.70
  21   7  -9  156.88   59.59
 -19  -7   9   25.80   15.90
  19  -7  -9   37.90   26.20
  19   7  -9   22.70   34.40
 -17  -7   9   92.89   21.90
  17  -7  -9   73.89   25.80
  17   7  -9   24.90   33.40
 -17   7   9    1.70   22.20
 -15  -7   9   29.50   16.20
  15  -7  -9   14.60   13.60
  15  -7  -9   28.70   20.80
  15   7  -9   29.80   34.80
  15   7  -9   10.50   13.30
 -15   7   9   14.80   22.50
  13  -7  -9   23.50   14.30
 -13  -7   9   12.50   13.90
 -13  -7   9   41.20   25.00
  13  -7  -9   33.00   19.20
  13   7  -9    1.10   11.30
  13   7  -9   -4.60   25.10
 -13   7   9  -15.40   17.90
 -11  -7   9   15.60   12.70
  11  -7  -9   11.60   16.60
  11  -7  -9   11.80   11.00
  11   7  -9    0.80   11.60
  11   7  -9   -2.30   24.10
   9  -7  -9   67.99   15.70
  -9  -7   9   62.99   16.70
  -9  -7   9   88.39   27.60
   9  -7  -9   48.00   22.00
   9   7  -9  114.09   19.40
   9   7  -9   73.49   34.00
  -7  -7   9   35.30   22.90
   7  -7  -9   37.80   19.50
  -7  -7   9   28.60   13.20
   7  -7  -9   42.30   11.60
   7   7  -9   31.50   11.70
   7   7  -9   66.99   30.00
  -5  -7   9  940.71   54.29
   5  -7  -9  993.60   66.09
   5  -7  -9 1004.20   48.10
  -5  -7   9  977.80   65.69
   5   7  -9  899.11   72.99
   5   7  -9  948.11   53.29
   3  -7  -9   17.40    7.80
   3  -7  -9    1.60    6.20
   3  -7  -9  -12.90   16.80
  -3  -7   9   15.80   16.80
  -3  -7   9    9.10   12.50
   3   7  -9   -7.90    9.00
   3   7  -9  -10.10   18.90
  -1  -7   9   92.59   19.80
   1  -7  -9   70.09    9.90
   1  -7  -9  111.69   29.10
   1  -7  -9  103.49   34.80
   1  -7  -9   98.49   10.40
   1   7  -9  146.59   22.30
   1  -7   9   35.60   15.90
  -1  -7  -9   19.90   26.70
   1  -7   9   20.40   12.50
   3  -7   9  115.79   18.70
  -3  -7  -9  118.09   41.50
   3  -7   9   89.49   19.80
   3  -7   9  105.49   19.90
   5  -7   9   54.29   11.90
   5  -7   9   26.40   15.40
  -5  -7  -9   16.40   27.70
   5  -7   9   40.20   12.80
  -7  -7  -9  -26.00   24.60
   7  -7   9   -6.80   12.60
   9  -7   9   98.29   24.50
  11  -7   9   59.39   21.90
  11   7   9   59.39   10.10
  13  -7   9   87.79   24.60
  13   7   9  118.99   16.40
  15  -7   9   40.10   23.60
  15   7   9   61.79   14.90
  17  -7   9   43.20   25.10
  17   7   9   -4.70   12.40
  22  -8  -9   65.89   32.20
 -22  -8   9   -4.60   15.00
  22   8  -9  -20.80   36.80
  20  -8  -9   23.80   23.70
 -20  -8   9   13.70   16.20
  20   8  -9   38.10   37.80
 -18  -8   9   20.40   16.70
  18  -8  -9   -3.30   19.40
  18   8  -9   26.30   35.10
 -16  -8   9  176.38   28.50
  16  -8  -9   75.89   26.50
  16   8  -9   59.29   42.00
 -14  -8   9    9.50   14.40
  14  -8  -9   -5.30   12.00
  14  -8  -9    1.00   20.00
  14   8  -9  -13.20   32.80
  14   8  -9   10.20   13.70
  12  -8  -9   97.39   28.90
  12  -8  -9  109.09   21.10
 -12  -8   9   72.49   30.80
 -12  -8   9   98.19   21.30
  12   8  -9   89.29   19.30
  12   8  -9   94.99   42.00
 -10  -8   9  207.18   26.50
  10  -8  -9  195.38   24.50
  10  -8  -9  166.18   35.10
 -10  -8   9  261.37   47.10
  10   8  -9  178.88   47.60
  10   8  -9  221.28   25.60
  -8  -8   9   94.69   20.70
   8  -8  -9  115.99   30.40
   8  -8  -9  121.49   18.70
  -8  -8   9   94.99   29.40
   8   8  -9   19.70   28.90
   6  -8  -9  227.38   34.30
  -6  -8   9  108.69   31.90
  -6  -8   9  159.48   25.60
   6  -8  -9  158.88   19.20
   6   8  -9  166.08   28.00
   6   8  -9  172.78   42.90
   4  -8  -9   41.10   11.00
   4  -8  -9   54.09   11.70
  -4  -8   9   46.90   16.00
  -4  -8   9   32.30   21.70
   4  -8  -9   54.19   25.40
   4   8  -9   27.50   27.30
   4   8  -9   36.10   17.90
   2  -8  -9   22.30   29.30
  -2  -8   9  103.59   21.20
   2  -8  -9   81.79   12.20
  -2  -8   9   34.30   22.20
   2  -8  -9   52.09   24.40
   2  -8  -9   74.39   11.80
   2   8  -9   72.49   21.90
   0  -8   9   71.99   18.60
   0  -8  -9   57.79    9.70
   0  -8   9   56.79   22.20
   0  -8  -9   32.20   24.90
   0  -8  -9   60.79    9.90
   0  -8  -9   51.09   34.00
   2  -8   9   14.20   17.60
  -2  -8  -9   10.60    5.00
  -2  -8  -9   13.90    5.00
   2  -8   9  -12.00   11.20
  -2  -8  -9    0.30   25.20
   4  -8   9   12.70   15.60
   4  -8   9  -11.30   12.80
  -4  -8  -9  -28.20   23.80
   4  -8   9    5.50   11.60
   6  -8   9   81.39   21.60
   6  -8   9  141.79   22.10
   6  -8   9  101.29   16.30
   8  -8   9   -0.50   16.10
  10  -8   9   28.50   18.70
  12  -8   9    3.50   17.30
  12   8   9   19.90    7.40
  14  -8   9   17.10   20.00
  14   8   9   12.10    8.70
  16  -8   9   31.50   24.40
  21  -9  -9   16.70   25.40
 -21  -9   9    0.60   16.20
  21   9  -9   26.90   50.29
 -19  -9   9   31.90   19.40
  19  -9  -9   38.30   27.90
  19   9  -9   46.00   44.50
 -17  -9   9  -22.60   13.90
  17  -9  -9  -14.60   17.80
  17   9  -9   20.90   39.90
 -15  -9   9  196.18   46.60
  15  -9  -9  236.68   48.20
  15   9  -9  167.88   54.89
  13  -9  -9    5.70   13.80
 -13  -9   9   38.50   17.50
  13  -9  -9   62.89   28.50
  13   9  -9   -3.20   34.20
  11  -9  -9    9.40   21.10
 -11  -9   9   19.10   15.30
  11   9  -9   -6.90   12.60
  11   9  -9   48.10   39.30
   9  -9  -9   -1.50   18.80
  -9  -9   9   25.10   23.90
  -9  -9   9    6.10   14.80
   9  -9  -9   -6.00    9.20
   9   9  -9    9.60   29.70
   9   9  -9    6.40   14.10
  -7  -9   9   29.30   17.30
   7  -9  -9    2.10   11.10
   7  -9  -9  -25.40   18.00
  -7  -9   9   53.19   28.70
   7  -9  -9   -3.00    9.40
   7   9  -9   -8.40   12.30
   7   9  -9   70.79   39.30
   5  -9  -9  119.99   19.30
   5  -9  -9  140.89   18.50
  -5  -9   9  149.29   24.90
  -5  -9   9  115.69   35.20
   5  -9  -9  160.68   35.10
   5   9  -9  157.78   25.40
   5   9  -9  157.18   46.20
  -3  -9   9   35.30   22.60
   3  -9  -9   -4.30   14.80
   3  -9  -9   20.70   23.70
   3  -9  -9   -2.00   26.20
   3  -9  -9    5.00    8.70
  -3  -9   9   29.20   15.30
   3   9  -9   -1.20   11.80
  -1  -9   9   37.80   17.40
   1  -9  -9   77.59   12.20
  -1  -9   9   50.19   26.70
   1  -9  -9   52.09   25.50
   1  -9  -9   76.39   12.60
  -1  -9  -9   95.29   12.80
  -1  -9  -9   83.39   10.70
   1  -9   9  109.49   28.00
   1  -9   9   78.49   19.60
  -1  -9  -9   65.59   30.80
   3  -9   9  201.98   28.80
   3  -9   9  208.58   33.20
   3  -9   9  194.98   29.50
  -3  -9  -9  235.58   13.90
   5  -9   9    7.10   16.70
   5  -9   9  -15.00   13.50
   5  -9   9    0.40   13.20
   7  -9   9    5.40   15.30
   7  -9   9   -2.90   11.40
   7  -9   9    3.00   17.20
   9  -9   9   54.89   14.50
   9  -9   9   38.70   23.70
   9  -9   9   33.80   11.50
  11  -9   9   63.99   22.50
  13  -9   9  -39.80   15.50
 -18 -10   9   -3.70   15.20
  18 -10  -9   35.70   25.10
  18  10  -9    1.80   43.40
  16 -10  -9   28.70   24.20
 -16 -10   9   64.29   21.90
  16  10  -9   52.69   50.99
 -14 -10   9   33.40   19.10
  14 -10  -9   36.30   21.80
  14  10  -9   62.79   47.50
  12 -10  -9   58.89   19.30
  12 -10  -9   39.20   25.80
  12  10  -9    9.00   36.80
 -10 -10   9   80.59   21.70
  10 -10  -9   31.30   14.70
   8 -10  -9   16.30   14.00
  -8 -10   9   16.00   15.30
   8 -10  -9    5.50   12.00
   8  10  -9    1.70   33.80
   6 -10  -9  194.08   23.90
  -6 -10   9  289.37   51.09
  -6 -10   9  285.77   32.00
   6 -10  -9  224.08   24.30
   6  10  -9  214.98   58.19
   4 -10  -9    0.30    9.60
  -4 -10   9   10.30   15.60
   4 -10  -9   -7.70    9.70
  -2 -10   9    6.60   15.10
   2 -10  -9  -28.30   17.40
   2 -10  -9   10.10   12.10
  -2 -10   9   -1.40   20.40
   2 -10  -9   -4.10    9.00
   0 -10  -9   80.09   12.80
   0 -10   9   80.69   29.20
   0 -10  -9  105.59   15.80
   0 -10  -9   89.99   33.50
   2 -10   9   24.10   17.70
  -2 -10  -9    7.40    8.30
   2 -10   9   -0.90   14.70
  -2 -10  -9   13.10    7.70
   2 -10   9    8.60   21.70
   4 -10   9   32.60   16.50
   4 -10   9   15.90   16.50
   4 -10   9   38.90   23.30
   6 -10   9   25.30   15.40
   6 -10   9    9.20   17.10
   8 -10   9   33.00   15.30
   8 -10   9   17.00   20.20
   8 -10   9   13.60   18.70
  10 -10   9   50.19   25.00
  12 -10   9   42.50   22.40
 -15 -11   9   -3.50   16.90
  15 -11  -9   31.00   27.00
  15  11  -9   86.19   51.89
 -13 -11   9   22.50   15.40
  13 -11  -9   -7.10   20.50
  13  11  -9   70.59   46.30
  11 -11  -9   -7.90   18.80
  11 -11  -9   12.00   14.30
 -11 -11   9    9.30   15.30
  11  11  -9  -11.40   37.80
  -9 -11   9   -0.80   13.80
   9 -11  -9    4.40   14.10
   9 -11  -9    1.00   12.40
   9 -11  -9   -8.50   21.00
   9  11  -9    7.10   39.10
   7 -11  -9   15.70   26.60
   7 -11  -9   19.50   13.70
   7 -11  -9   35.10   14.30
  -7 -11   9    2.40   15.30
   7  11  -9   12.20   39.20
   5 -11  -9   -0.30   10.50
   5 -11  -9   19.40   27.30
   5 -11  -9   10.40   11.50
  -5 -11   9    0.20   14.60
  -5 -11   9   -2.00   25.30
   3 -11  -9  -11.90   19.20
   3 -11  -9  -12.70    9.50
   3 -11  -9   18.10   11.40
  -3 -11   9    0.20   15.70
  -3 -11   9    4.60   24.00
  -1 -11   9   51.99   35.00
   1 -11  -9   53.79   30.90
  -1 -11   9   78.19   21.50
   1 -11  -9   39.60   13.90
   1 -11  -9   37.30   12.10
  -1 -11  -9   -8.20    9.60
  -1 -11  -9  -51.59   22.80
  -1 -11  -9   -2.50    8.40
   1 -11   9    7.90   23.90
   1 -11   9   -5.90   15.30
   3 -11   9  -23.10   14.20
  -3 -11  -9   -0.10    7.70
   3 -11   9   17.80   20.40
  -3 -11  -9    4.90    8.10
   3 -11   9  -12.70   21.50
   5 -11   9  -45.60   20.70
   5 -11   9   16.00   20.20
   5 -11   9   12.60   18.70
   7 -11   9   22.10   24.60
   7 -11   9   35.50   26.60
   7 -11   9   17.90   19.70
   9 -11   9   12.60   14.80
   9 -11   9   28.60   22.20
   9 -11   9    9.50   20.30
  12 -12  -9   19.50   24.70
  12 -12  -9   23.00   18.40
 -12 -12   9  -18.90   13.20
  12  12  -9    9.10   44.60
  10 -12  -9   39.70   26.90
 -10 -12   9   69.89   22.00
  10 -12  -9   69.49   21.10
  10  12  -9   21.20   44.70
   8 -12  -9  -33.60   16.80
   8 -12  -9   -8.20   11.70
   8 -12  -9    6.70   14.80
  -8 -12   9    4.90   16.00
  -6 -12   9   41.80   22.00
   6 -12  -9   59.49   17.40
   6 -12  -9   62.79   31.40
   6 -12  -9   24.40   13.80
   4 -12  -9   84.79   17.60
   4 -12  -9   59.39   16.30
   4 -12  -9   70.19   32.10
  -4 -12   9   49.70   19.60
   2 -12  -9   24.00   13.70
   2 -12  -9   66.39   36.60
   2 -12  -9   19.00   12.50
  -2 -12   9   22.00   16.80
  -2 -12   9   69.39   47.00
   0 -12  -9   33.90   14.50
   0 -12   9   41.50   32.30
   0 -12  -9   12.70   11.50
   0 -12  -9  -18.90   24.20
   0 -12   9   12.20   18.40
   2 -12   9    4.30   17.90
   2 -12   9  -22.80   19.30
  -2 -12  -9  -26.30   24.60
  -2 -12  -9    6.60   10.20
  -2 -12  -9    5.70    8.40
  -4 -12  -9    3.40    7.50
  -4 -12  -9   15.60    8.00
   4 -12   9   30.60   31.30
   4 -12   9    4.20   18.00
   4 -12   9   27.90   23.10
   6 -12   9   23.80   20.90
   6 -12   9   60.39   23.20
   6 -12   9   59.39   30.70
   7 -13  -9   57.99   33.70
   7 -13  -9    3.90   12.50
  -7 -13   9   10.90   17.20
   7 -13  -9   17.20   16.40
   5 -13  -9   -1.10   11.50
   5 -13  -9   28.00   17.90
  -5 -13   9   39.70   20.80
   5 -13  -9   54.19   32.60
   3 -13  -9    9.70   13.20
   3 -13  -9  -11.00   24.40
  -3 -13   9   -3.80   16.90
   3 -13  -9   -3.00   12.20
  -1 -13   9   -1.60   16.40
   1 -13  -9  -11.50   11.20
   1 -13  -9   25.60   13.70
   1 -13  -9   -6.00   30.60
   1 -13   9   30.70   19.90
 -28   0  10   18.70   22.70
  26   0 -10  -34.20   23.70
 -26   0  10   -3.20   17.60
 -24   0  10   41.20   19.90
  24   0 -10   43.80   33.30
  22   0 -10  351.76   53.99
 -22   0  10  237.38   35.50
  20   0 -10    6.80   14.30
  20   0 -10    0.50   21.50
 -20   0  10   14.90   16.90
 -20   0  10   -5.00   11.80
  18   0 -10  181.68   40.30
 -18   0  10  181.38   26.20
  18   0 -10  203.98   25.00
 -16   0  10   -3.10   10.80
  16   0 -10   -8.20   16.70
  16   0 -10   17.80   11.40
 -16   0  10   14.60   15.20
  14   0 -10  126.89   18.10
 -14   0  10  136.79   22.20
  14   0 -10  132.79   29.70
 -14   0  10  185.38   33.10
  12   0 -10   43.40   11.80
  12   0 -10  122.19   25.80
 -12   0  10  111.39   17.60
 -12   0  10   78.79   21.20
  10   0 -10 1348.07   64.69
  10   0 -10 1340.77   75.59
 -10   0  10 1469.75   66.39
 -10   0  10 1396.06   74.09
  -8   0  10  321.77   23.50
   8   0 -10  346.37   31.50
   8   0 -10  346.97   23.00
  -6   0  10   36.70   14.20
  -6   0  10   17.80    8.20
   6   0 -10   34.30    8.80
   6   0 -10   22.30   13.40
  -4   0  10   38.40   12.60
   4   0 -10   51.79    9.30
   4   0 -10   67.19   15.60
  -4   0  10   57.39   10.00
  -2   0  10   51.09    9.00
   2   0 -10   39.50    8.30
  -2   0  10   25.90   11.00
   2   0 -10   14.40   10.00
   0   0 -10  212.68   19.40
   0   0 -10  188.08   14.40
   0   0  10  183.88   15.00
   0   0  10  173.18   18.80
   2   0  10 3934.61  153.98
  -2   0 -10 3756.12  156.68
  -4   0 -10 1091.09   60.69
   4   0  10 1065.49   49.90
  -4   0 -10 1059.69   52.59
  -6   0 -10   15.30   14.20
   8   0  10  735.03   41.80
  -8   0 -10  764.72   48.20
 -10   0 -10   43.70   17.40
  10   0  10   75.99   15.80
  12   0  10  106.69   19.70
 -12   0 -10   90.29   27.00
  14   0  10  109.89   22.20
 -14   0 -10   73.69   22.20
  16   0  10   32.00   16.60
 -16   0 -10    1.90   18.80
 -18   0 -10   30.20   21.80
 -20   0 -10   14.60   21.80
  27  -1 -10    1.80   33.00
 -27  -1  10   18.60   22.30
 -27   1  10    4.60   19.30
  27   1 -10    0.70   35.20
 -25  -1  10  -11.10   13.90
  25  -1 -10  -30.90   23.00
 -25   1  10   24.30   17.80
  25   1 -10   35.90   39.50
  23  -1 -10   81.99   38.40
 -23  -1  10   32.80   19.90
  23   1 -10   26.80   31.50
 -23   1  10    8.70   16.10
 -21  -1  10   31.10   18.70
  21  -1 -10    2.30   23.60
  21   1 -10   55.39   31.10
 -21   1  10   29.70   17.90
 -21   1  10   45.60   23.70
  19  -1 -10  197.08   39.70
  19  -1 -10  113.79   22.50
 -19  -1  10   81.49   26.80
 -19  -1  10  176.98   26.20
  19   1 -10  199.28   25.00
  19   1 -10   69.29   29.20
 -19   1  10  181.58   35.00
 -19   1  10  158.68   27.50
 -17  -1  10    1.20   11.80
 -17  -1  10    8.50   17.70
  17  -1 -10   53.99   21.90
  17  -1 -10    3.70   10.90
  17   1 -10    0.10   10.50
 -17   1  10   -6.50   11.20
 -17   1  10   24.50   19.20
  17   1 -10   21.00   21.10
  15  -1 -10  278.87   26.00
  15  -1 -10  326.67   38.60
 -15  -1  10  301.87   35.00
 -15  -1  10  314.77   28.10
  15   1 -10  310.77   26.50
  15   1 -10  304.07   40.10
 -15   1  10  302.97   33.40
 -15   1  10  333.07   28.90
  13  -1 -10  211.88   21.90
 -13  -1  10  280.17   24.80
 -13  -1  10  280.47   31.50
  13  -1 -10  221.68   31.30
  13   1 -10  243.68   33.50
  13   1 -10  252.47   22.70
 -13   1  10  267.57   30.40
 -13   1  10  267.17   24.50
 -11  -1  10   -3.80   11.80
 -11  -1  10   18.40   11.20
  11  -1 -10    3.50   15.20
  11  -1 -10   -1.90    8.10
 -11   1  10  -11.00   10.80
  11   1 -10   28.00   16.60
  11   1 -10   -3.10    7.90
   9  -1 -10  159.48   20.70
   9  -1 -10  188.48   28.90
  -9  -1  10  145.19   22.40
  -9  -1  10  156.58   17.80
  -9   1  10  163.18   25.30
   9   1 -10  168.58   25.60
  -9   1  10  144.49   18.70
   9   1 -10  110.19   15.10
  -7  -1  10  201.48   18.00
   7  -1 -10  196.18   16.10
  -7  -1  10  204.68   22.70
   7  -1 -10  145.89   22.60
  -7   1  10  208.28   17.50
   7   1 -10  190.18   24.10
   7   1 -10  203.28   17.60
  -7   1  10  206.28   23.40
   5  -1 -10  470.35   24.80
  -5  -1  10  440.86   30.70
   5  -1 -10  413.46   32.30
  -5  -1  10  460.45   26.80
  -5   1  10  417.96   32.10
  -5   1  10  490.95   25.50
   5   1 -10  432.96   32.10
   5   1 -10  463.45   26.30
  -3  -1  10    4.40    7.70
  -3  -1  10   -1.80    7.60
   3  -1 -10   11.40   10.40
   3  -1 -10    0.70    5.20
   3   1 -10   -1.80    5.80
  -3   1  10   -8.50    9.00
  -3   1  10    6.70    5.90
   3   1 -10   -3.50    9.60
  -1  -1  10   81.29   13.60
  -1  -1  10   71.89   11.70
   1  -1 -10   59.99    8.50
   1  -1 -10  102.99   17.60
   1   1 -10   63.99   10.70
  -1   1  10   80.89   16.00
  -1   1  10   65.09    8.90
   1   1 -10   78.29   13.40
   1  -1  10  596.04   31.90
  -1  -1 -10  608.94   36.70
  -1   1 -10  585.54   30.80
   1   1  10  584.34   28.50
  -3  -1 -10   17.70   17.40
   3  -1  10   11.30    8.10
  -3  -1 -10    9.00   12.40
  -3   1 -10   11.10    7.70
  -3   1 -10   11.30   11.50
   3   1  10   18.20    7.10
   5  -1  10  477.65   30.70
  -5  -1 -10  437.36   42.90
   5   1  10  548.55   28.20
  -5   1 -10  480.05   31.60
  -5   1 -10  534.75   28.20
  -7  -1 -10  141.39   27.50
   7   1  10  147.89   16.10
  -7   1 -10  140.79   17.80
  -9  -1 -10   16.20   18.90
   9  -1  10   21.50   12.70
  -9   1 -10   14.20   10.30
   9   1  10   13.40    9.90
 -11  -1 -10   -3.80   16.50
  11  -1  10   -1.00   10.90
  11   1  10    0.40   11.10
 -11   1 -10   -8.60   11.60
 -13  -1 -10   21.20   21.60
  13  -1  10   36.20   17.50
 -13   1 -10   29.30   14.30
  13   1  10   13.50   13.80
  15  -1  10   10.00   14.50
 -15  -1 -10   18.70   21.50
 -15   1 -10   25.70   17.50
  15   1  10   27.90   16.90
 -17  -1 -10   33.70   22.90
  17   1  10   24.40   17.20
 -17   1 -10    4.90   17.10
 -19   1 -10   36.10   20.80
 -26  -2  10   15.20   18.60
  26  -2 -10  109.89   43.60
  26   2 -10   53.19   40.90
 -26   2  10   16.80   18.60
 -24  -2  10   88.79   26.90
  24  -2 -10   98.29   39.90
  24   2 -10   84.59   45.50
 -24   2  10   92.69   27.10
 -22  -2  10  177.28   31.00
  22  -2 -10  188.18   44.90
  22   2 -10  145.39   44.60
 -22   2  10  214.68   31.30
 -20  -2  10  106.19   24.70
  20  -2 -10  104.89   34.50
 -20   2  10   97.19   29.20
 -20   2  10   83.99   22.40
  20   2 -10   69.79   31.90
 -18  -2  10  705.83   48.00
  18  -2 -10  724.13   61.29
 -18  -2  10  692.03   58.49
  18  -2 -10  727.43   47.40
  18   2 -10  654.93   65.29
 -18   2  10  734.53   49.10
  18   2 -10  726.73   46.90
  16  -2 -10  -25.50   12.80
 -16  -2  10    1.30   15.40
  16  -2 -10   -3.30   10.30
 -16  -2  10   21.80   13.20
 -16   2  10   23.20   12.70
  16   2 -10   23.90   21.90
  16   2 -10   27.60   11.80
 -16   2  10   -8.20   11.70
 -14  -2  10  714.93   43.40
  14  -2 -10  660.23   41.60
  14  -2 -10  660.83   52.69
 -14  -2  10  713.73   53.19
  14   2 -10  666.43   57.59
  14   2 -10  735.33   42.30
 -14   2  10  696.83   43.30
 -14   2  10  667.33   49.70
  12  -2 -10  357.46   26.60
  12  -2 -10  425.76   38.00
 -12  -2  10  449.16   38.60
 -12  -2  10  355.36   28.20
  12   2 -10  330.57   26.80
 -12   2  10  314.57   27.30
  12   2 -10  430.36   43.10
 -12   2  10  376.16   34.60
 -10  -2  10  296.97   24.60
  10  -2 -10  302.17   31.70
  10  -2 -10  296.17   23.20
 -10  -2  10  285.87   31.10
 -10   2  10  330.67   31.40
  10   2 -10  318.07   24.10
 -10   2  10  272.67   23.60
  -8  -2  10 2259.37   96.79
  -8  -2  10 2166.08  110.19
   8  -2 -10 2149.88  104.89
   8  -2 -10 2204.48   94.39
   8   2 -10 2301.17  109.29
  -8   2  10 2214.88  104.79
   8   2 -10 2239.48   96.19
  -8   2  10 2201.88   95.09
  -6  -2  10  894.41   46.40
  -6  -2  10  917.51   51.79
   6  -2 -10  935.01   43.30
   6  -2 -10  963.10   54.69
  -6   2  10  967.30   44.50
   6   2 -10  940.21   54.89
  -4  -2  10 1326.27   59.79
   4  -2 -10 1306.47   55.09
   4  -2 -10 1299.47   66.89
  -4  -2  10 1296.87   62.69
   4   2 -10 1180.58   58.39
  -4   2  10 1282.97   66.99
  -4   2  10 1304.67   55.49
   4   2 -10 1335.37   65.39
   2  -2 -10   13.50    5.20
  -2  -2  10    0.70    7.60
  -2  -2  10    0.30    7.80
   2  -2 -10    9.30   11.10
   2   2 -10    5.70    7.30
   2   2 -10   -6.10    8.60
  -2   2  10  -11.10   10.10
  -2   2  10   20.50    5.60
   0  -2  10  496.85   30.00
   0  -2 -10  539.25   36.40
   0  -2  10  524.25   27.40
   0   2 -10  501.95   29.50
   0   2  10  513.05   23.50
   0   2 -10  528.25   28.30
   2  -2  10  854.51   44.00
  -2  -2 -10  860.31   51.19
   2   2  10  914.81   37.40
  -2   2 -10  841.12   37.60
   4  -2  10    6.50    8.50
  -4  -2 -10  -10.20   17.10
   4   2  10    2.70    5.20
   4   2  10    3.90    5.50
   6  -2  10  990.70   50.19
  -6  -2 -10  835.12   62.89
   6   2  10  965.30   44.10
  -8  -2 -10  308.97   39.90
   8   2  10  344.57   23.20
  10  -2  10   34.20   14.80
 -10  -2 -10   30.80   24.20
  10   2  10   83.89   14.20
 -10   2 -10   50.29   10.60
  12  -2  10  115.99   25.90
 -12  -2 -10  163.88   36.10
  12   2  10  177.98   22.60
 -12   2 -10  167.58   18.70
  14  -2  10   58.79   20.40
 -14  -2 -10   29.40   25.30
 -14   2 -10   63.69   15.80
  14   2  10   87.49   18.70
 -16  -2 -10  102.79   34.00
 -16   2 -10  113.49   20.70
  16   2  10   90.59   22.20
 -18  -2 -10   28.10   27.10
  18   2  10   45.70   20.10
 -20   2 -10   15.10   18.00
  27  -3 -10   12.80   33.00
 -27  -3  10   14.20   19.30
  27   3 -10   25.10   43.00
  25  -3 -10  -25.10   24.50
 -25  -3  10  -13.20   14.60
 -25   3  10   15.30   18.50
  25   3 -10   31.70   34.00
  23  -3 -10   58.99   33.00
 -23  -3  10   96.89   24.70
 -23   3  10   54.19   23.40
  23   3 -10   22.10   35.90
 -21  -3  10   44.90   26.20
  21  -3 -10   56.89   30.60
  21   3 -10   71.79   42.10
 -21   3  10   51.19   21.20
 -21   3  10   76.69   31.70
  19  -3 -10  -30.10   17.50
 -19  -3  10    0.60   13.40
 -19  -3  10   23.40   24.30
  19  -3 -10    3.80   11.90
  19   3 -10    4.20   11.90
  19   3 -10    2.50   25.90
 -19   3  10   14.80   16.70
 -19   3  10   27.00   20.30
 -17  -3  10   10.00   19.80
  17  -3 -10   15.70   12.50
  17  -3 -10   -5.80   17.40
 -17  -3  10   35.40   15.60
  17   3 -10    2.00   25.30
 -17   3  10   12.50   12.70
  17   3 -10   -2.20   10.90
 -17   3  10    2.70   15.90
  15  -3 -10  214.08   33.00
  15  -3 -10  207.18   23.90
 -15  -3  10  212.58   37.70
 -15  -3  10  207.68   24.70
  15   3 -10  206.38   43.00
 -15   3  10  199.48   24.90
  15   3 -10  207.18   23.30
 -15   3  10  248.78   31.80
 -13  -3  10   72.89   16.80
  13  -3 -10   79.89   21.70
 -13  -3  10   57.19   20.90
  13  -3 -10   47.50   14.30
 -13   3  10   95.19   24.80
  13   3 -10   54.89   24.40
  13   3 -10   88.09   17.50
 -13   3  10   71.29   16.10
  11  -3 -10  132.89   16.90
 -11  -3  10  143.39   28.60
 -11  -3  10  122.79   18.40
  11  -3 -10  130.19   27.10
  11   3 -10  125.79   17.00
  11   3 -10  173.88   34.40
 -11   3  10  124.59   18.20
 -11   3  10  113.99   24.20
  -9  -3  10  620.84   37.10
  -9  -3  10  651.23   46.10
   9  -3 -10  645.54   45.60
  -9   3  10  629.04   35.70
   9   3 -10  607.14   54.89
  -9   3  10  602.74   44.20
   9   3 -10  592.74   36.00
   7  -3 -10  202.18   16.80
  -7  -3  10  179.48   19.20
   7  -3 -10  209.78   29.80
  -7  -3  10  167.28   41.60
  -7   3  10  181.08   17.60
   7   3 -10  223.78   28.60
   7   3 -10  181.08   18.50
  -7   3  10  195.88   25.90
   5  -3 -10  166.28   13.70
  -5  -3  10  149.49   18.00
  -5  -3  10  153.88   21.30
   5  -3 -10  150.58   23.30
   5   3 -10  193.98   28.40
  -5   3  10  159.38   23.60
  -5   3  10  168.38   14.40
   5   3 -10  183.18   17.30
  -3  -3  10  432.56   28.30
   3  -3 -10  410.66   21.20
   3  -3 -10  418.56   34.80
  -3  -3  10  444.16   30.00
   3   3 -10  494.65   33.90
   3   3 -10  436.66   27.70
  -3   3  10  454.25   22.00
   1  -3 -10   46.60    5.50
   1  -3 -10   61.89   17.40
  -1  -3  10   64.29   11.70
  -1  -3  10   58.59   13.30
  -1   3  10   55.39    6.10
   1   3 -10   68.19   15.10
   1   3 -10   58.69   12.90
   1  -3  10  788.52   42.40
   1  -3  10  782.52   34.90
  -1  -3 -10  833.02   51.09
  -1   3 -10  761.92   37.90
   3  -3  10   50.09   13.90
  -3  -3 -10   -7.30   20.30
  -5  -3 -10  -12.80   17.30
   5  -3  10   19.90   11.50
   5   3  10    7.00    4.90
   5   3  10    0.80    5.00
  -7  -3 -10   38.80   24.80
   7  -3  10   27.10   13.10
   7   3  10   52.39    9.10
  -9  -3 -10   -2.10   21.30
   9   3  10   10.00    8.40
 -11  -3 -10   50.89   28.50
  11  -3  10   -3.00   13.60
  11   3  10   22.30   11.00
 -13  -3 -10   73.99   32.40
  13  -3  10   46.10   19.00
  13   3  10   77.79   16.20
 -15  -3 -10   33.00   27.30
  15   3  10    9.60   13.90
 -15   3 -10    3.40    9.50
 -17  -3 -10   49.40   30.90
  17   3  10   10.00   15.00
 -17   3 -10   11.40   12.40
 -19   3 -10   15.50   14.30
  19   3  10   19.60   19.00
  26  -4 -10   -9.00   23.00
 -26  -4  10    3.20   17.80
  26   4 -10  -10.50   36.90
  24  -4 -10  135.99   40.90
 -24  -4  10   82.19   24.50
  24   4 -10   85.29   45.90
 -22  -4  10   73.29   22.60
  22  -4 -10   81.89   36.80
 -22   4  10   74.39   24.30
  22   4 -10   54.29   36.30
 -20  -4  10   20.30   15.80
  20  -4 -10   13.40   22.80
  20   4 -10  -14.10   32.70
 -20   4  10   35.20   25.50
  18  -4 -10    5.50   13.60
 -18  -4  10   21.00   15.30
 -18  -4  10   31.50   25.50
  18  -4 -10   73.99   26.80
 -18   4  10   37.70   17.90
  18   4 -10   43.20   15.60
  18   4 -10   19.00   26.10
 -18   4  10   20.90   20.30
 -16  -4  10   27.20   19.60
 -16  -4  10   48.30   17.30
  16  -4 -10   57.79   23.50
  16  -4 -10   23.60   23.20
 -16   4  10   32.00   21.10
  16   4 -10   56.79   29.10
 -16   4  10   30.50   15.50
  14  -4 -10  197.98   23.20
 -14  -4  10  245.58   24.90
  14  -4 -10  191.98   31.20
 -14  -4  10  200.78   32.90
  14   4 -10  179.08   42.60
  14   4 -10  184.58   22.10
 -14   4  10  207.58   24.90
 -14   4  10  264.17   33.00
 -12  -4  10  229.08   32.50
 -12  -4  10  222.58   24.20
  12  -4 -10  239.38   22.90
  12  -4 -10  266.67   31.90
  12   4 -10  320.27   44.10
  12   4 -10  235.68   23.30
 -12   4  10  316.97   33.10
 -12   4  10  234.28   24.10
  10  -4 -10  213.28   20.30
 -10  -4  10  210.58   21.90
  10  -4 -10  238.58   30.10
 -10  -4  10  177.08   28.30
 -10   4  10  234.68   22.10
  10   4 -10  278.07   44.70
 -10   4  10  225.08   28.40
  10   4 -10  244.88   22.10
  -8  -4  10  569.44   44.30
   8  -4 -10  577.44   33.40
   8  -4 -10  521.15   42.90
  -8  -4  10  594.64   36.90
  -8   4  10  734.33   47.90
  -8   4  10  601.74   34.60
   8   4 -10  645.74   59.29
   8   4 -10  624.44   36.20
   6  -4 -10    1.40    6.50
   6  -4 -10   18.30   16.00
  -6  -4  10   10.60   10.40
   6   4 -10    4.10   16.50
  -6   4  10   13.80    8.20
  -6   4  10   -9.00   10.80
   6   4 -10   12.70    8.40
  -4  -4  10 1153.08   57.89
   4  -4 -10 1167.48   50.49
   4  -4 -10 1205.18   67.49
  -4  -4  10 1172.58   61.99
   4   4 -10 1174.78   67.09
   4   4 -10 1160.68   57.19
  -2  -4  10   11.00   10.60
   2  -4 -10   10.10    4.10
   2  -4 -10   10.10   15.10
  -2  -4  10    5.70    9.70
   2   4 -10   30.90   11.00
   2   4 -10    4.10   12.30
   0  -4  10  166.68   16.30
   0  -4  10  171.58   20.40
   0  -4 -10  189.68   29.80
   0   4 -10  184.68   21.40
   0   4 -10  171.78   18.30
   2  -4  10  731.93   42.30
  -2  -4 -10  754.82   64.39
   4  -4  10   40.30   13.40
  -4  -4 -10   63.99   28.10
   6  -4  10  305.17   28.20
  -6  -4 -10  261.07   46.60
   6   4  10  308.47   15.70
   8  -4  10  822.52   49.80
  -8  -4 -10  752.22   69.19
   8   4  10  826.22   37.90
 -10  -4 -10   29.70   27.60
  10   4  10   36.00   10.20
  12  -4  10  256.87   33.30
  12   4  10  284.47   24.30
 -14  -4 -10   29.10   30.20
  14   4  10    3.00   12.00
  16   4  10   23.20   15.40
  18   4  10   32.50   16.90
  25  -5 -10   10.40   23.30
 -25  -5  10   42.70   22.80
  25   5 -10   -0.70   41.30
  23  -5 -10   -7.40   23.40
 -23  -5  10   -3.30   17.50
  23   5 -10   22.30   36.30
  21  -5 -10  -21.60   19.80
 -21  -5  10   19.00   16.20
  21   5 -10    7.00   34.50
  19  -5 -10  100.19   32.40
 -19  -5  10  104.99   25.20
  19   5 -10   54.39   39.10
 -19   5  10   63.09   27.10
 -17  -5  10   67.09   32.10
 -17  -5  10   64.99   19.50
  17  -5 -10   98.29   21.50
  17  -5 -10   74.59   28.30
 -17   5  10   74.29   26.50
  17   5 -10   86.79   20.40
  17   5 -10   10.50   26.50
 -15  -5  10   62.69   17.70
  15  -5 -10   90.39   26.40
  15  -5 -10   82.89   18.50
 -15  -5  10   77.49   27.90
  15   5 -10  110.89   42.00
 -15   5  10   64.79   24.20
  13  -5 -10  137.89   29.70
 -13  -5  10  146.09   21.40
  13  -5 -10  142.19   20.40
 -13  -5  10  199.48   36.20
 -13   5  10  119.99   27.40
  13   5 -10  165.78   21.40
  13   5 -10  253.57   49.99
 -11  -5  10   35.50   18.90
 -11  -5  10   43.40   14.70
  11  -5 -10   69.59   22.10
  11  -5 -10   28.20   12.90
  11   5 -10   52.69   13.30
  11   5 -10   33.90   25.60
 -11   5  10   34.70   17.80
   9  -5 -10  175.78   18.70
  -9  -5  10  171.38   20.90
  -9  -5  10  200.38   29.10
   9  -5 -10  210.88   29.10
   9   5 -10  232.08   41.90
  -9   5  10  248.78   38.50
   9   5 -10  168.58   19.70
  -7  -5  10  125.79   26.00
   7  -5 -10  174.08   31.30
   7  -5 -10  116.19   14.20
  -7  -5  10  137.69   20.00
   7   5 -10  123.79   19.10
  -7   5  10  151.88   28.00
  -5  -5  10   87.09   17.60
   5  -5 -10   70.49   11.10
   5  -5 -10   89.09   22.30
  -5  -5  10  101.59   24.70
   5   5 -10  119.99   29.20
   5   5 -10   89.19   16.20
   3  -5 -10   73.89   24.10
   3  -5 -10   56.99    8.10
  -3  -5  10   45.50   12.80
  -3  -5  10   65.29   17.30
   3   5 -10   46.20   19.60
   3   5 -10   36.00   11.30
  -1  -5  10   -9.40    9.90
  -1  -5  10    9.90   10.30
   1  -5 -10   -9.20   13.60
   1   5 -10    1.90    8.10
   1   5 -10    1.40   14.80
  -1  -5 -10  268.77   33.40
   1  -5  10  210.58   18.70
   1  -5  10  207.08   22.70
  -1  -5 -10  190.08   42.50
   3  -5  10   -1.50   10.10
  -3  -5 -10   23.30   24.50
   5  -5  10  -19.00    9.70
  -5  -5 -10  -21.20   18.60
  -7  -5 -10   28.40   26.20
   7  -5  10   47.50   16.60
   9  -5  10   11.80   16.30
  -9  -5 -10   -8.00   26.00
   9   5  10   29.20    7.90
 -11  -5 -10  -15.30   25.00
  11  -5  10    9.80   17.60
  11   5  10    6.30    8.20
 -13  -5 -10   29.50   32.10
  13   5  10  107.19   18.20
  15   5  10   30.70   13.10
  17   5  10   27.30   14.40
 -24  -6  10   16.40   17.90
  24  -6 -10    2.20   23.40
  24   6 -10   37.90   43.20
  22  -6 -10  -10.00   20.20
 -22  -6  10   25.70   18.30
  22   6 -10  -23.70   31.90
 -20  -6  10   60.89   20.80
  20  -6 -10   55.29   27.70
  20   6 -10   46.80   42.40
 -18  -6  10   93.29   23.40
  18  -6 -10   39.50   24.90
 -18   6  10   44.70   28.20
  18   6 -10   79.39   42.60
  16  -6 -10  141.29   32.50
 -16  -6  10  130.89   24.40
  16  -6 -10  149.79   25.00
  16   6 -10   59.79   35.40
 -16   6  10  131.19   33.00
  16   6 -10  162.08   25.80
  14  -6 -10   56.19   16.80
 -14  -6  10   75.49   19.10
 -14  -6  10   64.29   28.50
  14  -6 -10   79.79   25.20
  14   6 -10   63.29   17.50
  14   6 -10   44.20   32.60
 -12  -6  10   91.79   18.50
 -12  -6  10   69.09   26.30
  12  -6 -10  123.69   20.70
  12  -6 -10   82.49   26.20
 -12   6  10  110.59   30.80
  12   6 -10   64.89   32.50
  12   6 -10  141.29   21.60
 -10  -6  10   59.39   17.20
 -10  -6  10   82.99   25.30
  10  -6 -10   82.79   15.10
  10  -6 -10   65.79   21.30
 -10   6  10  132.89   31.50
  10   6 -10   93.89   34.30
  10   6 -10   96.49   17.90
  -8  -6  10  880.01   62.89
   8  -6 -10  895.51   47.20
   8  -6 -10 1062.39   64.39
  -8  -6  10  915.71   52.09
   8   6 -10  942.21   72.69
   8   6 -10  865.81   49.80
   6  -6 -10    3.00    7.30
   6  -6 -10   13.30   14.60
  -6  -6  10   11.10   14.50
  -6  -6  10   21.60   13.60
   6   6 -10    8.00    9.60
   6   6 -10   -4.60   17.60
   4  -6 -10  900.51   41.00
  -4  -6  10  872.51   56.09
   4  -6 -10  882.01   60.09
  -4  -6  10  779.92   48.40
   4   6 -10  876.41   48.80
   4   6 -10  901.01   64.39
   2  -6 -10   34.40    6.30
  -2  -6  10   47.80   17.30
   2  -6 -10   18.10   16.80
   2  -6 -10   34.50    6.80
  -2  -6  10   53.89   14.60
   2   6 -10   46.20   15.70
   2   6 -10    6.70   17.50
   0  -6 -10  318.87   38.50
   0  -6 -10  318.27   51.49
   0  -6  10  320.37   28.20
   0  -6  10  310.37   28.30
  -2  -6 -10  148.89   40.00
   2  -6  10  232.98   20.80
   2  -6  10  201.88   23.80
   4  -6  10    3.10    6.30
  -4  -6 -10   15.10   23.90
   4  -6  10   -3.30   12.40
   6  -6  10   68.19   18.20
  -8  -6 -10  246.48   51.79
   8  -6  10  128.19   23.50
 -10  -6 -10   16.30   28.40
  10  -6  10  -16.20   12.70
  10   6  10   11.40    6.50
  12  -6  10   17.80   19.70
  12   6  10   25.50   10.20
  14  -6  10    6.10   20.40
  16  -6  10  -14.30   19.40
  16   6  10    0.00   12.60
  18   6  10   18.70   15.10
 -23  -7  10   52.59   21.20
  23  -7 -10   34.70   27.10
  23   7 -10   52.79   45.80
 -21  -7  10    2.20   15.70
  21  -7 -10   17.70   21.10
  21   7 -10   54.29   48.10
 -19  -7  10   93.99   23.40
  19  -7 -10   86.19   32.90
  19   7 -10   83.69   48.30
 -17  -7  10   28.60   16.60
  17  -7 -10   20.30   21.40
 -17   7  10  -10.60   26.70
  17   7 -10   41.40   35.10
 -15  -7  10   96.99   21.90
  15  -7 -10  135.29   32.50
  15  -7 -10  118.79   22.10
 -15   7  10  176.68   36.60
  15   7 -10   76.19   19.40
  15   7 -10   74.29   38.60
 -13  -7  10  308.67   45.10
  13  -7 -10  296.07   39.80
 -13  -7  10  353.26   32.70
  13  -7 -10  317.77   30.40
 -13   7  10  309.77   44.30
  13   7 -10  356.46   65.29
  13   7 -10  400.56   32.60
 -11  -7  10   15.00   13.30
  11  -7 -10   -7.70   17.10
  11  -7 -10   16.40   11.60
  11   7 -10  -36.50   22.80
   9  -7 -10   96.39   16.40
  -9  -7  10   93.39   28.80
  -9  -7  10   89.49   18.30
   9  -7 -10   64.39   23.00
   9   7 -10  103.09   19.30
   9   7 -10   42.80   31.60
   7  -7 -10    5.40    8.80
   7  -7 -10  -14.90   14.50
  -7  -7  10   14.90   17.90
  -7  -7  10   -5.60   11.20
   7   7 -10   26.10   22.70
   7   7 -10    9.50   11.30
   5  -7 -10   60.79   23.70
  -5  -7  10   51.69   17.50
  -5  -7  10   -0.80   14.00
   5  -7 -10   20.00    9.10
   5   7 -10   24.50   22.30
   5   7 -10    6.10   10.60
   3  -7 -10   -0.80    6.10
  -3  -7  10   20.40   16.00
   3  -7 -10   -1.50    6.10
   3  -7 -10   33.60   23.20
  -3  -7  10   20.20   12.30
   3   7 -10   21.20   21.00
   3   7 -10   11.30   10.00
   1  -7 -10    1.30   16.80
   1  -7 -10    8.50    5.00
  -1  -7  10  -24.50    9.10
   1  -7 -10   32.90   26.70
  -1  -7  10    6.90   15.60
   1  -7 -10   -5.40    4.50
   1   7 -10   16.20   21.70
  -1  -7 -10   60.49   25.60
   1  -7  10   60.19   17.20
   1  -7  10  110.39   21.50
  -3  -7 -10  154.48   43.70
   3  -7  10  144.99   24.80
   3  -7  10  157.38   20.40
   3  -7  10  198.88   22.20
   5  -7  10   -9.50    7.50
  -5  -7 -10   23.30   28.60
   5  -7  10    5.00    7.40
   5  -7  10   -4.90   13.30
   7  -7  10   45.00   18.60
  -7  -7 -10   31.00   37.80
   9  -7  10   65.19   21.40
  11  -7  10   92.69   27.40
  11   7  10   50.49    7.70
  13  -7  10   78.99   24.70
  13   7  10   62.69   11.00
  15  -7  10   -8.30   20.90
  15   7  10    8.20   13.80
  17  -7  10   44.80   25.30
  17   7  10   26.20   13.80
 -22  -8  10    6.30   15.30
  22  -8 -10   31.70   26.40
  22   8 -10   20.20   45.30
 -20  -8  10   -1.70   15.10
  20  -8 -10   -6.60   20.20
  20   8 -10   -6.20   36.50
 -18  -8  10  244.98   32.90
  18  -8 -10  254.07   52.09
  18   8 -10  331.77   72.09
  16  -8 -10  -16.30   17.20
 -16  -8  10   -6.60   14.50
  16   8 -10   28.60   34.80
  14  -8 -10  216.78   28.10
 -14  -8  10  221.38   30.90
  14  -8 -10  231.28   41.00
  14   8 -10  164.68   55.19
 -12  -8  10   89.89   31.70
 -12  -8  10   67.99   20.20
  12  -8 -10   43.80   16.60
  12  -8 -10   20.50   21.10
  12   8 -10   76.09   40.80
  12   8 -10   72.89   18.70
 -10  -8  10   26.70   15.70
  10  -8 -10    9.40   13.00
  10  -8 -10   49.10   24.40
 -10  -8  10    9.10   19.80
  10   8 -10   49.60   17.40
  10   8 -10   66.79   33.20
  -8  -8  10  780.02   64.29
  -8  -8  10  759.22   50.89
   8  -8 -10  859.11   46.80
   8  -8 -10  835.22   64.09
   8   8 -10  826.32   78.09
   8   8 -10  823.32   49.99
  -6  -8  10  -15.70   11.90
   6  -8 -10   19.10    9.80
   6  -8 -10   -9.70   16.80
  -6  -8  10   14.20   18.30
   6   8 -10   -7.60   12.20
   6   8 -10  -22.80   24.60
   4  -8 -10   39.10   11.20
   4  -8 -10   47.00   23.70
  -4  -8  10    3.30   12.50
   4  -8 -10   42.40   10.60
  -4  -8  10   41.40   23.10
   4   8 -10   89.19   34.70
   4   8 -10   22.00   14.60
   2  -8 -10  403.66   60.59
   2  -8 -10  393.86   23.50
  -2  -8  10  336.67   39.50
  -2  -8  10  454.25   35.70
   2  -8 -10  378.96   46.50
   2  -8 -10  408.46   22.80
   2   8 -10  377.16   50.39
   2   8 -10  433.16   35.70
   0  -8  10   41.80   19.60
   0  -8 -10   62.79    8.50
   0  -8 -10   17.10   30.20
   0  -8 -10  109.29   33.80
   0  -8  10   81.09   20.20
   0  -8 -10   60.99    7.90
   2  -8  10   -3.90   14.20
   2  -8  10   26.20   16.40
  -2  -8 -10   19.20   29.80
   4  -8  10    3.00   13.40
   4  -8  10   15.30   14.40
   4  -8  10    5.60   11.10
   6  -8  10  316.77   21.40
   6  -8  10  311.47   24.10
   8  -8  10   23.00   18.20
  10  -8  10   26.40   19.10
  12  -8  10   10.80   20.30
  14  -8  10   20.30   20.20
  14   8  10    4.80    7.40
  21  -9 -10   21.60   23.80
 -21  -9  10    2.50   16.80
  21   9 -10   29.90   49.00
  19  -9 -10  135.89   36.90
 -19  -9  10   30.60   18.80
  19   9 -10   49.70   48.90
 -17  -9  10   14.80   16.80
  17  -9 -10   16.10   24.00
  17   9 -10   21.60   37.40
  15  -9 -10  114.89   38.20
 -15  -9  10  133.59   27.20
  15   9 -10  205.48   64.59
 -13  -9  10    5.30   16.20
  13  -9 -10    2.50   13.40
  13  -9 -10   28.80   22.70
  13   9 -10   -1.70   33.80
  11  -9 -10   -1.40   12.50
  11  -9 -10   12.10   19.70
 -11  -9  10    5.60   13.10
  11   9 -10   -6.40   29.00
  -9  -9  10   67.59   19.10
   9  -9 -10   20.20   21.50
  -9  -9  10   26.20   26.20
   9  -9 -10   47.20   16.00
   9   9 -10   46.40   36.10
   9   9 -10   56.69   18.10
   7  -9 -10    1.50   10.60
  -7  -9  10   49.90   18.40
   7  -9 -10   34.00   22.70
   7   9 -10   60.89   18.40
   7   9 -10  -22.80   28.60
  -5  -9  10   -6.40   18.70
   5  -9 -10   -8.50    9.80
  -5  -9  10  -17.30   12.30
   5  -9 -10   21.80   10.20
   5  -9 -10    9.30   19.80
   5   9 -10   12.10   29.50
   5   9 -10   -5.50   11.70
   3  -9 -10  250.77   44.40
  -3  -9  10  251.27   39.20
   3  -9 -10  242.18   20.10
  -3  -9  10  216.38   28.40
   3  -9 -10  231.48   19.20
   3   9 -10  251.07   31.10
  -1  -9  10   -3.00   16.10
   1  -9 -10   -6.00   18.70
   1  -9 -10   -0.30    6.40
  -1  -9  10    2.90   14.10
   1  -9 -10  -14.60    6.90
  -1  -9 -10   32.20    6.60
  -1  -9 -10   36.20    6.70
   1  -9  10   17.00   16.70
   1  -9  10   14.10   21.90
  -1  -9 -10   25.60   25.70
   3  -9  10   96.19   22.60
   5  -9  10   12.80   16.00
   5  -9  10   14.80   23.40
   5  -9  10   19.30   12.70
   7  -9  10  205.68   34.20
   7  -9  10  156.48   18.00
   7  -9  10  166.98   22.10
   9  -9  10   20.20   18.30
  11  -9  10   -4.40   16.50
  13  -9  10   15.00   20.70
  18 -10 -10   23.10   23.50
 -18 -10  10  -12.40   13.50
  18  10 -10    2.40   38.60
  16 -10 -10   50.99   26.40
 -16 -10  10    7.10   16.50
  16  10 -10  -47.70   32.70
 -14 -10  10   58.89   20.50
  14 -10 -10  111.09   32.70
  14  10 -10  125.99   54.89
  12 -10 -10   -8.90   18.80
  12 -10 -10  -11.50   12.50
 -12 -10  10  -18.10   12.70
  12  10 -10   20.10   37.70
  10 -10 -10    1.20   22.60
  10  10 -10   31.00   55.79
  -8 -10  10   86.69   36.80
   8 -10 -10   86.29   18.80
  -8 -10  10   90.89   26.10
   8 -10 -10  106.29   30.50
   8 -10 -10   76.79   17.30
   8  10 -10  102.49   46.20
  -6 -10  10   37.30   18.60
  -6 -10  10  116.59   35.10
   6 -10 -10   86.69   16.60
   6 -10 -10   64.49   31.30
   6 -10 -10   60.09   15.00
   6  10 -10  107.49   45.90
   4 -10 -10   31.90   11.80
  -4 -10  10   59.49   23.30
  -4 -10  10   50.69   28.90
   4 -10 -10   71.19   28.10
   2 -10 -10   48.20   28.90
   2 -10 -10   80.09   13.80
  -2 -10  10   31.80   29.40
   2 -10 -10   62.59   12.20
  -2 -10  10   85.99   29.00
   0 -10 -10   -9.30    6.90
   0 -10 -10   20.30   23.60
   0 -10 -10    6.10    6.90
   0 -10  10   10.20   15.90
   0 -10  10   13.20   21.20
  -2 -10 -10   63.39   35.70
   2 -10  10   48.80   18.90
   2 -10  10   57.59   20.60
   2 -10  10   75.19   26.30
   4 -10  10  -15.60   15.80
   4 -10  10   -2.30   19.80
   4 -10  10    0.90   15.40
   6 -10  10   19.20   19.70
   6 -10  10   11.70   13.10
   6 -10  10   -7.10   16.00
   8 -10  10   -4.80   17.00
   8 -10  10    3.60   14.70
   8 -10  10   11.30   11.80
  10 -10  10    3.70   20.20
  12 -10  10   -3.50   22.20
 -15 -11  10   40.00   18.10
  15 -11 -10   49.20   27.70
  15  11 -10   50.19   50.89
 -13 -11  10   -4.50   15.70
  13 -11 -10   -2.40   23.70
  13  11 -10   -2.10   38.20
  11 -11 -10  -18.10   11.70
  11 -11 -10    7.80   15.30
  11 -11 -10   12.80   22.60
 -11 -11  10   -3.40   15.20
  11  11 -10  -30.40   34.80
   9 -11 -10    2.10   13.80
   9 -11 -10    7.10   23.10
  -9 -11  10   -7.80   15.00
   9 -11 -10    3.10   12.50
   9  11 -10   25.10   41.80
   7 -11 -10    2.90   13.00
   7 -11 -10    9.50   12.10
  -7 -11  10   48.70   19.90
   7 -11 -10   -1.10   22.10
   7  11 -10  -17.60   33.30
   5 -11 -10   16.00   11.30
  -5 -11  10    5.80   24.60
   5 -11 -10   48.30   29.70
  -5 -11  10  -14.20   14.80
   5 -11 -10   -1.60    9.80
  -3 -11  10   22.60   18.40
   3 -11 -10   67.79   17.90
   3 -11 -10   78.39   15.50
   3 -11 -10   54.59   30.00
  -3 -11  10   72.49   33.00
  -1 -11  10  104.09   33.20
  -1 -11  10   89.39   24.00
   1 -11 -10   47.60   12.50
   1 -11 -10   80.89   32.60
   1 -11 -10   59.29   12.10
  -1 -11 -10   50.79   32.30
   1 -11  10   38.30   25.80
  -1 -11 -10   10.40    7.80
  -1 -11 -10   31.90    9.50
   1 -11  10    9.40   17.00
   3 -11  10    5.10   19.80
   3 -11  10   47.10   21.00
  -3 -11 -10   29.50   30.90
   3 -11  10   29.30   24.00
   5 -11  10   38.30   19.20
   5 -11  10  114.09   30.10
   5 -11  10   40.30   20.60
   7 -11  10   -8.70   16.40
   7 -11  10   20.50   14.80
   7 -11  10   41.90   26.90
   9 -11  10   23.50   15.30
   9 -11  10   24.30   21.60
  12 -12 -10    6.00   15.00
 -12 -12  10   -3.80   13.40
  12 -12 -10   40.20   30.10
  12  12 -10  -14.40   39.00
  10 -12 -10   16.60   15.80
  10 -12 -10  -24.60   20.90
 -10 -12  10   30.50   17.70
  10  12 -10   -0.80   36.40
   8 -12 -10   33.00   15.30
   8 -12 -10   10.70   26.40
  -8 -12  10   65.79   22.40
   8 -12 -10   41.70   16.20
   6 -12 -10   29.40   28.00
   6 -12 -10    9.50   13.40
   6 -12 -10   -0.50   11.20
  -6 -12  10  -24.80   14.10
   4 -12 -10   32.40   14.30
  -4 -12  10    2.70   16.60
   4 -12 -10    7.10   11.60
   4 -12 -10   28.00   30.50
   2 -12 -10   14.50   25.90
   2 -12 -10    7.30   10.60
  -2 -12  10    1.90   16.60
   2 -12 -10   -5.20    9.50
  -2 -12  10   43.40   31.30
   0 -12 -10   -3.80   10.10
   0 -12 -10  -24.70   22.00
   0 -12  10   -8.10   23.70
   0 -12 -10   15.10   10.10
   0 -12  10    1.60   16.80
  -2 -12 -10   21.30    8.40
   2 -12  10   13.50   18.60
  -2 -12 -10   -2.30   30.20
   2 -12  10   37.70   24.60
   2 -12  10   -4.70   23.80
  -2 -12 -10    3.40    7.80
   4 -12  10   -3.50   16.50
   4 -12  10   15.70   28.50
  -4 -12 -10  -48.50   24.50
   4 -12  10   10.50   20.50
   6 -12  10  -23.40   17.70
   6 -12  10   22.80   19.00
   5 -13 -10   -9.20   12.10
   5 -13 -10   10.50   29.90
   5 -13 -10    7.60   13.80
  -5 -13  10    4.30   18.00
   3 -13 -10   43.60   15.00
  -3 -13  10   79.29   24.70
   3 -13 -10   39.20   15.60
   3 -13 -10   25.40   30.90
 -28   0  11   22.60   21.00
  28   0 -11   84.59   47.30
 -26   0  11  -12.50   15.60
  26   0 -11   10.70   33.20
  24   0 -11  -26.00   20.70
 -24   0  11   29.00   19.40
  22   0 -11   -3.80   28.20
 -22   0  11  -18.40   12.30
 -20   0  11  -20.80   14.00
 -20   0  11    7.20   15.40
  20   0 -11  -20.00   18.40
  18   0 -11    8.10   12.10
  18   0 -11  -13.40   17.40
 -18   0  11  -12.90   12.80
 -18   0  11   13.50   14.30
  16   0 -11  -20.50   14.30
 -16   0  11   -4.90   10.20
 -16   0  11   -7.10   13.60
  16   0 -11   -1.00    9.60
  14   0 -11    2.80   15.50
  14   0 -11   -8.00    7.50
 -14   0  11    4.60   14.10
 -14   0  11   -0.60    9.20
  12   0 -11    0.10   12.30
 -12   0  11   -8.80    7.70
  12   0 -11    1.00    8.80
 -12   0  11   -5.50   10.50
 -10   0  11    0.90    9.60
  10   0 -11  -14.40    6.70
 -10   0  11   19.20   11.00
  -8   0  11   10.30    8.50
   8   0 -11   -2.70    8.30
  -8   0  11   13.30   13.00
   8   0 -11   -1.90   11.60
   6   0 -11    7.10    6.70
  -6   0  11   -4.30    6.90
  -6   0  11    3.60   10.20
   6   0 -11   14.30   11.50
   4   0 -11  -10.40    8.80
  -4   0  11    1.20   10.90
   4   0 -11    6.90    6.60
  -4   0  11   -5.90    6.30
   2   0 -11   -0.60    9.10
  -2   0  11    8.60    9.10
   2   0 -11    1.60    5.70
  -2   0  11   -2.40    6.70
   0   0  11   10.60    7.20
   0   0 -11    6.90    6.90
   0   0 -11   -2.60    9.10
   2   0  11    5.40    7.30
  -2   0 -11   -2.70    9.10
   4   0  11   -7.30    7.10
  -4   0 -11   11.30   10.40
  -4   0 -11   -3.00   14.40
   6   0  11    7.00    8.20
  -6   0 -11   13.50   15.10
  -8   0 -11  -10.70   13.10
   8   0  11   37.90   13.70
  10   0  11    0.60   10.10
 -10   0 -11   -0.90   14.80
 -12   0 -11   22.20   18.30
  12   0  11    5.80   14.00
  14   0  11   19.20   18.40
 -14   0 -11   33.30   20.40
 -16   0 -11   23.40   18.90
  16   0  11   22.70   18.30
 -18   0 -11  -11.90   18.30
 -20   0 -11   16.70   22.30
  27  -1 -11    7.00   30.10
 -27  -1  11   48.60   25.00
  27   1 -11   86.29   49.00
 -27   1  11   75.29   28.60
 -25  -1  11   16.00   19.30
  25  -1 -11   12.10   33.80
 -25   1  11   13.70   19.30
  25   1 -11   31.00   31.60
  23  -1 -11   -7.80   23.70
 -23  -1  11   -7.20   15.10
  23   1 -11   -8.30   23.50
 -23   1  11   -9.30   13.90
  21  -1 -11  164.98   40.80
 -21  -1  11  210.78   32.00
 -21   1  11  235.68   32.40
  21   1 -11  215.38   47.00
 -19  -1  11  104.69   28.90
 -19  -1  11   84.19   21.70
  19  -1 -11  112.39   21.40
  19  -1 -11  126.59   35.90
 -19   1  11   81.09   20.60
  19   1 -11  144.49   40.90
  19   1 -11  120.99   23.50
 -19   1  11   66.19   24.40
  17  -1 -11  549.74   53.59
 -17  -1  11  609.94   43.60
  17  -1 -11  708.43   45.20
 -17  -1  11  696.63   56.49
  17   1 -11  551.44   48.50
 -17   1  11  602.04   50.39
 -17   1  11  626.24   43.10
  17   1 -11  628.14   59.09
  15  -1 -11  396.86   42.40
 -15  -1  11  403.96   39.60
  15  -1 -11  332.47   29.00
 -15  -1  11  432.86   32.10
  15   1 -11  389.96   43.80
 -15   1  11  376.26   31.50
  15   1 -11  393.36   30.20
 -15   1  11  375.36   37.60
 -13  -1  11  359.16   35.50
  13  -1 -11  384.56   27.90
  13  -1 -11  380.56   38.40
 -13  -1  11  301.67   27.20
  13   1 -11  375.56   39.60
 -13   1  11  296.57   32.90
 -13   1  11  371.86   28.70
  13   1 -11  356.26   27.20
 -11  -1  11  375.66   27.90
  11  -1 -11  334.57   35.00
  11  -1 -11  383.06   26.60
 -11  -1  11  300.27   32.10
  11   1 -11  412.56   39.00
 -11   1  11  345.57   30.20
  11   1 -11  357.96   26.10
 -11   1  11  395.46   34.50
  -9  -1  11  206.08   19.90
   9  -1 -11  134.09   18.00
  -9  -1  11  185.48   25.00
   9  -1 -11  197.98   26.40
  -9   1  11  179.38   18.50
  -9   1  11  178.08   24.70
   9   1 -11  130.69   16.70
   9   1 -11  211.48   31.40
  -7  -1  11 2197.38   94.99
   7  -1 -11 2153.68  103.39
  -7  -1  11 2283.97  102.49
   7  -1 -11 2251.67   93.19
  -7   1  11 2168.88  108.29
  -7   1  11 2154.98   93.49
   7   1 -11 2201.68  104.19
   5  -1 -11   72.29   10.40
   5  -1 -11   44.20   16.30
  -5  -1  11   70.49   16.30
  -5  -1  11   64.69   12.10
  -5   1  11   92.39   18.80
  -5   1  11   77.49   11.70
   5   1 -11   68.59   11.80
   5   1 -11   81.99   18.20
  -3  -1  11  403.66   27.00
   3  -1 -11  390.16   21.60
  -3  -1  11  386.56   24.60
   3  -1 -11  355.56   29.00
   3   1 -11  376.86   28.20
  -3   1  11  386.96   21.90
  -3   1  11  409.96   31.00
   3   1 -11  399.46   24.10
   1  -1 -11  379.76   19.90
  -1  -1  11  329.67   22.70
   1  -1 -11  378.56   29.20
  -1  -1  11  324.27   23.80
   1   1 -11  314.47   24.00
   1   1 -11  361.36   22.60
  -1   1  11  342.87   28.50
  -1   1  11  370.46   20.50
   1  -1  11  120.09   14.90
  -1  -1 -11   87.59   16.80
   1   1  11   89.59   11.50
  -1   1 -11  108.09   14.20
  -3  -1 -11   35.80   13.80
  -3  -1 -11   46.80   20.70
   3  -1  11   31.00   10.10
  -3   1 -11   26.60   13.40
  -3   1 -11   31.20   10.10
   3   1  11   33.90    8.40
  -5  -1 -11 1479.55   84.39
   5  -1  11 1505.45   69.89
   5   1  11 1550.84   66.79
  -5   1 -11 1546.45   66.29
  -5   1 -11 1515.95   70.89
  -7  -1 -11   -6.70   16.80
   7  -1  11    7.00   10.90
   7   1  11   13.20    9.10
  -7   1 -11    1.20   10.20
  -7   1 -11    8.80    8.70
  -9  -1 -11  576.74   47.40
   9  -1  11  588.94   38.50
  -9   1 -11  510.05   34.50
   9   1  11  575.54   34.50
 -11  -1 -11    1.70   20.20
  11  -1  11   28.30   16.60
  11   1  11    3.40   11.10
 -11   1 -11    1.40   11.00
 -13  -1 -11   66.79   25.10
  13   1  11  114.99   20.50
 -13   1 -11  160.58   23.20
 -15  -1 -11   30.80   24.10
  15  -1  11    9.50   16.00
  15   1  11   27.40   16.00
 -17  -1 -11   -2.20   21.80
 -17   1 -11    5.40   17.10
  17   1  11   20.50   17.80
 -19   1 -11   14.10   19.70
  26  -2 -11   42.70   33.00
 -26  -2  11   24.10   18.30
  26   2 -11   36.60   35.70
 -26   2  11   29.00   19.60
  24  -2 -11   25.20   26.40
 -24  -2  11  -22.70   14.20
 -24   2  11   18.50   19.70
  24   2 -11   53.89   35.80
 -22  -2  11  -12.30   13.30
  22  -2 -11   13.00   24.00
 -22   2  11   19.60   17.50
  22   2 -11   33.80   32.00
 -20  -2  11  138.89   25.80
  20  -2 -11  192.58   43.20
 -20   2  11  110.89   24.60
 -20   2  11  170.08   36.70
  20   2 -11  152.38   43.60
 -18  -2  11  195.08   26.30
  18  -2 -11  165.78   24.70
 -18  -2  11  200.58   39.90
  18  -2 -11  217.18   38.80
  18   2 -11  175.68   45.60
  18   2 -11  190.28   24.20
 -18   2  11  166.08   31.30
 -18   2  11  182.28   28.30
  16  -2 -11  119.59   21.20
  16  -2 -11   85.59   27.90
 -16  -2  11  117.69   28.90
 -16  -2  11   99.29   20.60
 -16   2  11   96.19   20.90
  16   2 -11   83.89   18.10
 -16   2  11  131.69   27.10
  16   2 -11  122.89   37.10
  14  -2 -11   45.10   21.70
  14  -2 -11   24.50   11.70
 -14  -2  11   21.50   12.10
 -14  -2  11    7.40   14.10
  14   2 -11   29.30   12.90
  14   2 -11   39.90   23.10
 -14   2  11   18.90   11.30
 -14   2  11   29.80   16.50
  12  -2 -11  121.79   26.70
 -12  -2  11  126.79   28.00
  12  -2 -11  105.69   16.60
 -12  -2  11   90.89   17.50
  12   2 -11  104.09   18.20
 -12   2  11  114.59   26.50
  12   2 -11   88.29   25.50
 -12   2  11  134.79   19.40
  10  -2 -11 1126.39   64.69
 -10  -2  11 1111.39   55.29
  10  -2 -11 1033.50   52.49
 -10  -2  11 1056.49   63.39
 -10   2  11 1092.99   53.89
 -10   2  11 1134.99   63.79
  10   2 -11 1080.39   68.29
  10   2 -11  963.20   53.09
  -8  -2  11   10.60    9.40
   8  -2 -11   -7.60   12.90
   8  -2 -11    1.20    7.10
  -8  -2  11   -1.10   12.00
  -8   2  11    5.20   13.40
   8   2 -11   26.10   10.00
   8   2 -11   -4.60   11.70
  -8   2  11   -4.90    8.10
   6  -2 -11  328.97   20.20
  -6  -2  11  325.67   28.20
  -6  -2  11  301.37   23.00
   6  -2 -11  307.17   30.30
  -6   2  11  291.57   28.80
   6   2 -11  314.07   30.20
   6   2 -11  327.87   23.10
  -6   2  11  278.67   20.60
  -4  -2  11  413.86   28.20
   4  -2 -11  364.26   20.60
  -4  -2  11  376.06   25.60
   4  -2 -11  357.46   31.30
  -4   2  11  348.67   21.10
   4   2 -11  368.36   29.30
   2  -2 -11   47.20    7.40
  -2  -2  11   71.19   13.30
  -2  -2  11   32.50   10.50
   2  -2 -11   47.30   14.50
   2   2 -11   53.19   13.30
  -2   2  11   47.80    7.80
  -2   2  11   41.50   16.10
   0  -2  11  129.99   16.20
   0  -2 -11  148.59   22.40
   0  -2  11  132.89   14.10
   0   2 -11  137.89   17.70
   0   2  11  111.59   10.30
   0   2 -11  130.89   14.80
   2  -2  11  119.59   16.80
  -2  -2 -11  160.48   24.90
  -2   2 -11  120.99   11.40
   2   2  11  132.99   11.00
  -4  -2 -11  259.97   45.10
   4  -2  11  240.78   26.00
   4   2  11  267.37   16.70
   4   2  11  267.77   17.40
   6  -2  11   82.89   16.40
  -6  -2 -11  102.39   28.30
   6   2  11  134.59   13.90
   6   2  11  109.99   12.90
  -8  -2 -11   48.00   23.80
   8  -2  11    7.20   11.90
   8   2  11   18.80    8.70
  10  -2  11    4.50   12.80
 -10  -2 -11   12.90   19.90
  10   2  11   16.90   12.00
 -10   2 -11    4.80    7.90
  12  -2  11   14.60   15.80
 -12  -2 -11   32.70   24.20
 -12   2 -11   57.79   12.40
  12   2  11   42.30   15.00
 -14  -2 -11   30.40   26.10
  14  -2  11   17.60   16.30
  14   2  11    7.50   13.40
 -14   2 -11   22.40   13.50
 -16  -2 -11   -4.70   25.00
  16   2  11  -13.80   14.40
 -16   2 -11    2.10   12.40
 -18  -2 -11   32.40   26.70
  18   2  11    0.80   16.50
 -18   2 -11    6.40   14.40
 -27  -3  11  129.89   32.60
  27  -3 -11  131.99   47.30
  27   3 -11    8.20   35.00
 -27   3  11  169.68   37.10
  25  -3 -11   20.50   27.40
 -25  -3  11    2.00   18.10
  25   3 -11  -36.80   24.30
 -25   3  11    5.40   18.80
 -23  -3  11   33.90   17.90
  23  -3 -11   17.60   24.60
  23   3 -11   -4.40   27.90
 -23   3  11  -24.20   13.60
  21  -3 -11  589.94   59.59
  21   3 -11  576.14   71.59
 -21   3  11  601.64   49.40
  19  -3 -11   12.00   13.40
 -19  -3  11    1.30   13.00
  19  -3 -11   29.10   21.80
  19   3 -11  -12.20   25.40
  19   3 -11  -19.60    9.40
 -19   3  11   18.40   19.10
 -19   3  11   -6.20   12.80
 -17  -3  11  229.58   35.10
  17  -3 -11  246.08   37.10
 -17  -3  11  185.68   25.70
  17  -3 -11  191.78   25.00
 -17   3  11  247.98   50.59
  17   3 -11  169.78   24.10
 -17   3  11  222.28   27.80
  17   3 -11  242.48   50.49
  15  -3 -11  264.57   36.20
 -15  -3  11  315.47   28.90
  15  -3 -11  263.17   26.10
 -15  -3  11  269.67   35.90
  15   3 -11  288.17   44.10
 -15   3  11  263.57   27.30
  15   3 -11  261.37   26.20
 -15   3  11  312.27   35.10
  13  -3 -11   76.09   16.30
  13  -3 -11  101.59   24.90
 -13  -3  11  137.79   30.20
 -13  -3  11  172.98   24.50
  13   3 -11  176.68   39.40
 -13   3  11  121.59   29.00
 -13   3  11  142.19   21.90
  13   3 -11  118.69   19.70
 -11  -3  11 1934.51   90.99
  11  -3 -11 2057.99   89.49
  11  -3 -11 1910.31  100.99
 -11  -3  11 1989.60  102.69
  11   3 -11 1900.51   89.59
 -11   3  11 2037.00   90.79
  11   3 -11 2037.80  109.39
 -11   3  11 2010.90  101.29
   9  -3 -11  442.76   37.70
  -9  -3  11  435.66   37.30
  -9  -3  11  437.26   30.20
  -9   3  11  432.66   28.40
  -9   3  11  404.26   36.90
   9   3 -11  406.16   29.10
  -7  -3  11  263.87   22.80
   7  -3 -11  243.18   29.10
   7  -3 -11  253.87   18.70
   7   3 -11  257.87   21.70
  -7   3  11  214.48   28.30
  -7   3  11  257.27   19.80
   7   3 -11  303.57   33.20
   5  -3 -11 2283.57  105.09
   5  -3 -11 2131.39   87.99
  -5  -3  11 2033.70   97.59
  -5  -3  11 2208.58   98.29
  -5   3  11 2172.38   88.79
   5   3 -11 1998.70  101.29
   5   3 -11 2155.88   93.99
  -5   3  11 2106.89  103.69
  -3  -3  11  649.83   39.60
   3  -3 -11  726.53   32.10
  -3  -3  11  731.83   40.30
   3  -3 -11  673.53   46.40
  -3   3  11  732.83   32.60
   3   3 -11  655.53   38.30
   3   3 -11  824.62   45.20
   1  -3 -11 1215.68   49.00
  -1  -3  11 1306.97   63.59
   1  -3 -11 1286.37   68.19
  -1  -3  11 1153.28   55.39
   1   3 -11 1180.08   58.39
  -1   3  11 1231.98   49.20
   1   3 -11 1202.68   59.09
   1  -3  11  275.67   16.20
  -1  -3 -11  266.77   29.20
   1  -3  11  274.27   22.70
  -1   3 -11  229.38   18.80
  -3  -3 -11   33.40   22.50
   3  -3  11   13.00   10.30
   3   3  11   41.30    6.10
   3   3  11   42.70    5.30
  -5  -3 -11  407.66   47.50
   5  -3  11  407.06   30.30
   5   3  11  427.86   21.80
   5   3  11  417.06   21.00
   7  -3  11  154.78   21.60
  -7  -3 -11   61.99   29.40
   7   3  11  119.69   13.00
  -9  -3 -11   62.89   26.80
   9  -3  11  121.29   21.40
   9   3  11   98.09   14.40
  11  -3  11   26.50   17.10
 -11  -3 -11   13.20   26.30
  11   3  11   53.29   14.00
 -13  -3 -11    5.60   26.60
  13  -3  11   16.30   19.90
  13   3  11   57.39   14.50
 -15  -3 -11  120.39   40.50
  15   3  11   78.29   19.40
 -17  -3 -11   30.10   31.40
  17   3  11  -10.20   15.00
  19   3  11   72.79   23.20
  26  -4 -11  -30.90   23.20
 -26  -4  11   11.90   19.10
  26   4 -11   13.90   40.80
  24  -4 -11   38.40   31.60
 -24  -4  11   51.69   20.50
 -24   4  11   33.30   21.00
  24   4 -11   79.99   43.90
 -22  -4  11   42.50   20.70
  22   4 -11   -6.00   27.80
 -22   4  11   21.00   16.60
  20  -4 -11  249.68   44.90
 -20  -4  11  166.08   27.80
 -20   4  11  253.37   52.39
  20   4 -11  138.89   47.00
 -20   4  11  135.49   45.00
 -18  -4  11   77.99   36.90
  18  -4 -11   73.59   19.30
  18  -4 -11   33.60   21.40
 -18  -4  11   82.19   21.20
  18   4 -11   44.80   33.50
 -18   4  11   79.39   27.50
 -18   4  11   39.00   17.00
  18   4 -11   78.79   19.90
 -16  -4  11  150.28   26.00
  16  -4 -11  132.79   35.00
  16  -4 -11  130.79   24.70
 -16  -4  11  114.79   29.60
 -16   4  11  125.59   33.80
 -16   4  11  154.58   25.70
  16   4 -11  173.48   25.00
  16   4 -11  149.79   44.60
  14  -4 -11   18.30   11.60
 -14  -4  11   24.80   19.80
 -14  -4  11   36.00   15.50
  14  -4 -11   30.60   18.70
  14   4 -11   80.79   32.40
 -14   4  11   61.79   15.60
  14   4 -11   60.49   15.20
 -14   4  11   46.10   18.90
  12  -4 -11  563.14   46.70
 -12  -4  11  568.94   37.70
  12  -4 -11  598.04   36.10
 -12  -4  11  574.64   47.80
 -12   4  11  535.75   44.80
 -12   4  11  511.35   35.40
  12   4 -11  473.15   52.89
  12   4 -11  507.75   35.20
 -10  -4  11    7.70    9.40
  10  -4 -11   -9.30    7.50
 -10  -4  11   -8.60   12.00
  10  -4 -11   13.00   14.10
  10   4 -11  -22.50   17.00
  10   4 -11    7.70    8.90
 -10   4  11   -2.60   11.30
 -10   4  11    6.80    9.30
   8  -4 -11  141.09   27.90
  -8  -4  11   89.69   22.50
  -8  -4  11  121.29   19.20
   8  -4 -11   99.69   14.60
   8   4 -11  132.29   19.60
  -8   4  11  124.69   27.30
  -8   4  11  101.59   14.90
   6  -4 -11  108.09   25.50
   6  -4 -11   84.29   11.70
  -6  -4  11   80.99   16.50
  -6   4  11  101.19   13.10
   6   4 -11   78.59   14.50
  -6   4  11  122.79   25.70
   6   4 -11  161.38   29.90
   4  -4 -11   29.00    7.10
  -4  -4  11   45.60   15.10
   4  -4 -11   37.60   17.40
  -4  -4  11   51.79   14.30
   4   4 -11   31.90   10.60
   4   4 -11   56.39   19.10
  -4   4  11   30.70    7.40
   2  -4 -11  180.98   26.90
   2  -4 -11  166.88    9.90
  -2  -4  11  165.38   19.20
  -2  -4  11  201.78   20.70
   2   4 -11  176.18   24.40
   2   4 -11  205.88   19.70
   0  -4  11  136.59   19.40
   0  -4 -11  122.29   26.60
   0  -4  11  160.18   15.50
   0   4 -11  123.09   18.70
   0   4 -11  150.68   18.00
  -2  -4 -11  164.48   38.70
  -2  -4 -11  157.18   29.60
   2  -4  11  131.79   20.20
   4  -4  11  355.36   29.80
  -4  -4 -11  359.36   48.50
  -6  -4 -11   10.20   24.10
   6  -4  11   19.60   13.80
   6   4  11   10.60    4.20
   6   4  11    6.10    4.70
  -8  -4 -11   83.09   35.30
   8  -4  11  112.19   22.00
   8   4  11  134.99   12.90
  10  -4  11   13.20   17.20
 -10  -4 -11   43.90   29.30
  10   4  11   41.20   10.60
 -12  -4 -11   44.20   32.70
  12   4  11   37.30   12.70
 -14  -4 -11   69.19   34.40
  14   4  11   -0.70   11.00
  16   4  11   -1.00   12.70
  18   4  11    0.00   15.60
 -25  -5  11  101.19   27.10
  25  -5 -11  152.68   42.80
  25   5 -11    8.80   40.00
  23  -5 -11   87.99   33.90
 -23  -5  11   84.59   23.30
  23   5 -11  112.79   51.29
 -21  -5  11   27.80   17.00
  21  -5 -11   52.59   35.00
  21   5 -11   73.39   45.50
 -19  -5  11   18.30   15.90
  19  -5 -11   44.40   25.80
 -19   5  11   29.10   23.50
  19   5 -11    3.30   28.90
 -17  -5  11  195.48   31.30
  17  -5 -11  169.78   26.20
  17  -5 -11  211.28   39.80
 -17   5  11  203.28   38.30
  17   5 -11  227.48   49.40
  17   5 -11  210.38   30.50
 -17   5  11  192.58   29.80
  15  -5 -11   88.79   25.50
  15  -5 -11   97.19   20.60
 -15  -5  11   75.59   27.30
 -15  -5  11  107.89   21.50
  15   5 -11   69.39   17.60
  15   5 -11   73.99   34.60
 -15   5  11   84.09   20.10
  13  -5 -11   21.90   12.60
  13  -5 -11   24.50   17.10
 -13  -5  11   -4.10   13.80
 -13  -5  11   24.00   13.50
 -13   5  11   39.70   21.40
 -13   5  11   26.80   13.30
  13   5 -11   37.10   27.00
  13   5 -11   22.30   11.00
 -11  -5  11    9.40   11.10
  11  -5 -11   14.30    9.50
  11  -5 -11  106.29   26.90
 -11  -5  11   18.80   16.70
 -11   5  11   38.90   18.40
  11   5 -11   28.70   12.10
  11   5 -11  -13.90   18.80
 -11   5  11   36.60   12.90
  -9  -5  11   53.09   15.20
   9  -5 -11  128.59   29.00
  -9  -5  11  102.99   24.90
   9  -5 -11   77.59   13.60
   9   5 -11   99.79   28.70
   9   5 -11   50.89   14.10
  -9   5  11   44.30   21.00
  -7  -5  11 1294.57   64.59
   7  -5 -11 1215.58   57.99
  -7  -5  11 1250.97   72.79
   7  -5 -11 1249.57   74.29
  -7   5  11 1230.28   75.09
   7   5 -11 1394.56   92.29
   7   5 -11 1315.77   63.69
   5  -5 -11  467.65   25.50
  -5  -5  11  454.05   32.90
   5  -5 -11  412.96   39.60
  -5  -5  11  513.55   43.30
   5   5 -11  479.45   44.20
   5   5 -11  521.45   33.00
  -3  -5  11   -3.10    9.90
   3  -5 -11  -10.30   11.00
  -3  -5  11    9.80   11.60
   3  -5 -11   -2.50    4.50
   3   5 -11    2.10   13.50
   3   5 -11   21.80   10.20
   1  -5 -11  999.90   64.79
  -1  -5  11 1000.10   54.19
  -1  -5  11 1018.40   52.19
   1   5 -11 1020.50   53.59
   1   5 -11  996.00   58.79
  -1  -5 -11  158.68   30.40
   1  -5  11  162.48   15.60
   1  -5  11  175.88   21.40
  -1  -5 -11  164.38   42.60
  -3  -5 -11    7.00   24.70
   3  -5  11   69.29   16.90
  -5  -5 -11   17.50   29.70
   5  -5  11    6.60   13.10
   7  -5  11   -5.00   13.70
  -7  -5 -11    4.30   28.40
   9  -5  11   -9.50   15.30
  -9  -5 -11   23.30   32.60
   9   5  11   -2.70    6.90
  11  -5  11   83.69   23.40
 -11  -5 -11   51.29   34.90
  11   5  11   75.19   12.10
  13  -5  11   28.10   21.00
  15  -5  11  106.69   28.60
  15   5  11   79.49   16.00
  17   5  11   39.10   15.20
 -24  -6  11    1.40   17.90
  24  -6 -11  -11.40   22.50
  24   6 -11  -35.40   31.30
 -22  -6  11    8.60   16.20
  22  -6 -11   37.50   26.30
  22   6 -11   23.60   40.10
 -20  -6  11   -2.00   14.30
  20  -6 -11  -51.89   29.70
  20   6 -11   -5.50   31.70
  18  -6 -11   -4.50   18.40
 -18  -6  11  -18.70   13.00
  18   6 -11  -18.40   23.80
 -18   6  11   62.59   38.60
  16  -6 -11   79.09   26.80
  16  -6 -11   78.99   20.50
 -16  -6  11   49.40   17.50
  16   6 -11   55.19   17.70
 -16   6  11   61.89   30.20
  16   6 -11  133.99   43.20
 -14  -6  11   -0.10   13.30
  14  -6 -11   18.40   14.60
  14  -6 -11   19.10   19.50
 -14  -6  11   25.30   22.30
  14   6 -11   27.90   13.90
 -14   6  11   -7.10   19.10
  14   6 -11   26.20   29.30
 -12  -6  11   56.39   25.40
 -12  -6  11   65.19   19.30
  12  -6 -11   71.89   17.70
  12  -6 -11   87.59   25.50
  12   6 -11  116.49   23.20
  12   6 -11  119.59   38.00
 -12   6  11   78.39   27.50
 -10  -6  11   82.79   18.20
  10  -6 -11   86.19   16.00
 -10  -6  11   50.79   22.20
  10  -6 -11  111.99   26.30
  10   6 -11   88.39   31.90
 -10   6  11  112.49   28.00
  10   6 -11   79.99   17.60
  -8  -6  11    4.50   11.00
  -8  -6  11   10.50   14.10
   8  -6 -11    2.70    8.00
   8  -6 -11   10.70   16.70
   8   6 -11    2.50   10.20
   8   6 -11    1.20   20.00
   6  -6 -11   17.20   15.70
  -6  -6  11   21.60   12.10
  -6  -6  11   30.40   18.20
   6  -6 -11    3.40    7.00
   6   6 -11   -5.30    9.40
   6   6 -11   81.39   28.90
  -4  -6  11   27.30   15.70
   4  -6 -11   80.59   24.60
  -4  -6  11   57.69   16.50
   4  -6 -11   56.59    9.30
   4   6 -11   43.90   13.60
   4   6 -11   54.69   24.00
  -2  -6  11  266.77   26.40
   2  -6 -11  282.47   36.40
   2  -6 -11  275.07   14.50
  -2  -6  11  292.57   28.40
   2  -6 -11  290.57   14.70
   2   6 -11  266.67   35.60
   2   6 -11  279.27   26.10
   0  -6 -11  169.38   30.30
   0  -6 -11  133.09   38.00
   0  -6  11  167.88   20.80
   0  -6  11  176.08   23.00
   2  -6  11  219.68   25.30
   2  -6  11  222.28   18.80
  -2  -6 -11  195.68   44.20
  -4  -6 -11   32.40   32.00
   4  -6  11   33.10   15.80
  -6  -6 -11   22.70   32.80
   6  -6  11   36.40   17.30
   8  -6  11   29.40   16.40
  -8  -6 -11   37.80   31.60
  10  -6  11   53.59   31.70
  12  -6  11  -20.00   14.70
  12   6  11    5.00    8.20
  14  -6  11   61.09   25.70
  14   6  11   70.89   14.60
  16  -6  11   48.30   24.20
  16   6  11    7.80   12.20
 -23  -7  11    4.90   17.80
  23  -7 -11   -4.30   20.30
  23   7 -11   21.30   36.80
 -21  -7  11   46.50   19.80
  21  -7 -11   22.50   24.90
  21   7 -11   43.70   40.60
 -19  -7  11   67.69   20.30
  19  -7 -11    8.10   24.70
  19   7 -11   40.10   36.20
 -17  -7  11  153.98   26.90
  17  -7 -11  276.57   40.50
  17   7 -11  248.08   64.59
  15  -7 -11  214.08   37.70
  15  -7 -11  173.48   27.50
 -15  -7  11  183.68   27.30
 -15   7  11  162.68   41.20
  15   7 -11  164.58   49.80
  15   7 -11  176.68   26.20
  13  -7 -11   -3.30   18.00
  13  -7 -11    9.40   11.80
 -13  -7  11   19.00   14.70
 -13  -7  11   27.40   21.70
 -13   7  11    1.70   21.60
  13   7 -11   22.90   28.60
  13   7 -11   18.60   13.60
  11  -7 -11  274.27   38.10
  11  -7 -11  226.88   23.90
 -11  -7  11  184.88   26.00
  11   7 -11  233.18   52.09
  11   7 -11  148.59   24.10
   9  -7 -11   19.00   18.30
  -9  -7  11   26.20   19.60
  -9  -7  11   15.40   14.10
   9  -7 -11   27.70   11.20
   9   7 -11   40.40   28.90
  -7  -7  11   78.09   26.20
   7  -7 -11   61.89   12.90
   7  -7 -11   78.69   25.40
  -7  -7  11   32.20   16.10
   7   7 -11   75.09   29.80
   7   7 -11   69.69   18.40
   5  -7 -11  601.04   50.29
  -5  -7  11  622.54   48.80
  -5  -7  11  524.25   39.50
   5  -7 -11  563.84   31.10
   5   7 -11  591.74   57.79
   5   7 -11  522.25   38.90
   3  -7 -11  134.89   30.80
   3  -7 -11  124.59   12.30
   3  -7 -11  132.59   12.30
  -3  -7  11  170.38   29.00
  -3  -7  11  129.39   24.40
   3   7 -11  101.29   20.10
   3   7 -11   97.59   29.50
  -1  -7  11   64.99   17.20
   1  -7 -11   97.89   30.50
   1  -7 -11  -26.70   46.70
  -1  -7  11   27.60   16.10
   1   7 -11   38.10   23.40
   1  -7  11   79.29   19.70
  -1  -7 -11   73.49   27.60
   1  -7  11   91.09   19.70
  -1  -7 -11   40.40   36.30
   3  -7  11   97.49   21.90
   3  -7  11  128.79   17.60
   3  -7  11  140.79   17.90
  -3  -7 -11   58.19   33.70
  -5  -7 -11   78.99   42.40
   5  -7  11   88.29   21.00
   7  -7  11   19.00   16.90
   9  -7  11  285.17   34.80
  11  -7  11   -3.30   15.00
  13  -7  11   80.69   26.60
  13   7  11   97.99   12.50
  15  -7  11   25.70   23.80
  15   7  11   16.80   10.10
  22  -8 -11   22.00   22.50
 -22  -8  11  -12.70   15.30
  22   8 -11    0.30   37.70
 -20  -8  11   59.19   21.10
  20  -8 -11   63.49   29.20
  20   8 -11   32.80   42.60
 -18  -8  11   57.99   20.30
  18  -8 -11   82.59   29.60
  18   8 -11   83.69   46.30
  16  -8 -11  151.68   43.90
 -16  -8  11  146.39   34.50
  16   8 -11  116.49   45.10
  14  -8 -11  143.69   34.20
 -14  -8  11  110.99   24.50
  14  -8 -11   81.69   19.60
  14   8 -11   75.29   43.50
  12  -8 -11   -4.20   10.90
  12  -8 -11  -18.10   18.30
 -12  -8  11   32.80   16.30
 -12  -8  11   37.20   23.20
  12   8 -11  -22.40   26.30
  12   8 -11   36.80   15.90
 -10  -8  11   31.50   16.50
 -10  -8  11   24.30   19.50
  10  -8 -11   28.70   21.90
  10  -8 -11    4.00   12.30
  10   8 -11    2.50   11.70
  10   8 -11   -0.80   26.20
  -8  -8  11    6.20   19.20
   8  -8 -11   -4.30   20.50
   8  -8 -11   -1.60    9.50
  -8  -8  11   41.50   17.70
   8   8 -11   -0.90   10.00
   8   8 -11   -5.90   24.60
  -6  -8  11  420.46   36.60
   6  -8 -11  352.06   26.30
  -6  -8  11  425.96   44.80
   6  -8 -11  283.97   41.80
   6   8 -11  343.87   33.40
   6   8 -11  435.86   56.89
   4  -8 -11    0.00    7.40
   4  -8 -11    1.90    8.20
  -4  -8  11    2.10   12.60
   4  -8 -11    6.60   19.40
  -4  -8  11   19.90   19.70
   4   8 -11  -14.00   20.80
   4   8 -11  -10.00   11.00
   2  -8 -11   11.50   20.00
   2  -8 -11   24.10    7.50
  -2  -8  11   30.10   15.50
  -2  -8  11   18.40   17.50
   2  -8 -11   21.70    7.30
   2  -8 -11    9.40   29.00
   2   8 -11   13.60   13.60
   2   8 -11    5.00   27.50
   0  -8 -11   28.20   29.90
   0  -8 -11   53.39   25.50
   0  -8  11   57.59   22.50
   0  -8  11   32.30   17.50
   2  -8  11   39.30   16.10
   2  -8  11   55.89   18.80
  -2  -8 -11   22.00   26.40
   4  -8  11   57.29   13.70
   4  -8  11   40.50   14.50
   4  -8  11   43.30   17.80
   6  -8  11   32.80   20.80
   8  -8  11   30.30   19.40
  10  -8  11  111.69   28.20
  12  -8  11    8.20   19.60
  14  -8  11   19.60   23.40
  21  -9 -11   46.80   29.40
 -21  -9  11   -0.30   16.80
  21   9 -11   43.00   51.09
  19  -9 -11   91.39   34.00
 -19  -9  11   96.89   24.90
  19   9 -11   25.80   46.00
  17  -9 -11   37.10   29.10
 -17  -9  11    8.60   16.10
  17   9 -11   39.90   42.00
  15  -9 -11  267.57   43.20
 -15  -9  11  217.38   30.80
  15   9 -11  304.87   70.49
  13  -9 -11   22.00   29.10
  13  -9 -11  -10.60   11.10
  13   9 -11   -2.10   31.60
 -11  -9  11  103.09   23.30
  11  -9 -11  154.68   24.20
  11  -9 -11  148.59   36.20
  11   9 -11  209.68   56.19
  -9  -9  11  355.16   35.10
   9  -9 -11  289.17   43.40
  -9  -9  11  387.86   48.50
   9  -9 -11  319.47   28.80
   9   9 -11  395.26   69.49
   7  -9 -11   13.50   22.10
   7  -9 -11   16.30    9.80
  -7  -9  11   27.80   18.00
   7   9 -11    1.00   29.50
   5  -9 -11   14.80    9.70
  -5  -9  11   15.50   15.30
   5  -9 -11    9.30    9.90
  -5  -9  11    6.20   19.70
   5  -9 -11  -12.40   20.50
   5   9 -11   15.40   29.10
  -3  -9  11    0.00   15.90
   3  -9 -11    7.90    7.90
   3  -9 -11    1.30    7.50
   3  -9 -11   19.00   22.50
  -3  -9  11  -13.60   12.90
  -1  -9  11   34.70   21.70
   1  -9 -11   75.69   10.20
   1  -9 -11   43.80   28.00
  -1  -9  11   57.29   21.10
   1  -9 -11   76.69   10.30
   1  -9  11   33.50   21.20
  -1  -9 -11   90.29   48.30
   3  -9  11   79.79   21.50
   3  -9  11   56.79   19.70
   3  -9  11  130.59   23.70
   5  -9  11   71.89   22.10
   5  -9  11   70.79   15.20
   5  -9  11   30.10   15.50
   7  -9  11  158.58   30.90
   9  -9  11   32.80   20.30
  11  -9  11   -9.70   17.40
  13  -9  11  -10.20   18.20
 -18 -10  11   -0.80   15.80
  18 -10 -11   51.19   27.30
  18  10 -11   23.20   45.50
 -16 -10  11   28.50   19.50
  16 -10 -11   35.80   25.70
  16  10 -11   10.40   42.80
 -14 -10  11   44.90   17.70
  14 -10 -11   31.10   26.60
  14  10 -11   14.20   38.10
  12 -10 -11  206.68   41.40
 -12 -10  11  164.48   28.30
  12 -10 -11  101.99   21.70
  12  10 -11  286.87   67.59
  10 -10 -11    4.20   12.30
  10 -10 -11   24.60   25.20
 -10 -10  11   -2.60   14.20
  10  10 -11    0.10   39.10
  -8 -10  11   15.70   24.00
   8 -10 -11   70.29   16.80
   8 -10 -11   63.89   30.80
   8 -10 -11   58.49   14.80
  -8 -10  11   37.80   17.90
   8  10 -11    3.50   34.20
   6 -10 -11   30.20   12.60
   6 -10 -11   47.50   26.40
   6 -10 -11   28.50   12.40
  -6 -10  11   31.10   19.00
  -6 -10  11   40.70   26.20
   6  10 -11   62.09   35.70
   4 -10 -11  -10.40    8.30
   4 -10 -11    6.10   10.00
  -4 -10  11   21.00   15.70
   4 -10 -11   28.90   27.00
  -4 -10  11   13.30   20.70
  -2 -10  11   36.90   23.80
   2 -10 -11   29.40    9.00
   2 -10 -11   25.10   26.90
  -2 -10  11   10.50   15.50
   2 -10 -11   10.10    8.70
   0 -10  11  165.18   34.00
   0 -10 -11   75.99   10.30
   0 -10 -11  109.09   34.50
   0 -10  11   85.39   23.90
   0 -10 -11   75.39   10.90
   2 -10  11    8.80   16.10
  -2 -10 -11  -11.70   20.80
   2 -10  11  -26.60   14.60
   2 -10  11    2.40   19.10
   4 -10  11   94.89   24.60
   4 -10  11  158.58   25.00
   6 -10  11   13.10   16.60
   6 -10  11   19.60   13.30
   6 -10  11   12.70   17.60
   8 -10  11   16.10   19.60
  10 -10  11   47.70   24.50
  15 -11 -11    6.80   23.50
 -15 -11  11   22.50   18.50
  15  11 -11   17.00   45.90
 -13 -11  11   -7.30   13.00
  13 -11 -11   41.70   27.60
  13  11 -11   43.30   47.10
  11 -11 -11   25.10   16.20
 -11 -11  11    1.80   15.80
  11 -11 -11    8.80   13.20
  11 -11 -11   34.20   24.40
  11  11 -11   54.29   41.80
   9 -11 -11  -21.90   19.80
  -9 -11  11   13.50   16.10
   9 -11 -11   18.50   14.00
   9 -11 -11   17.10   15.20
   9  11 -11  -20.00   31.40
  -7 -11  11   49.40   21.40
   7 -11 -11   28.80   14.00
   7 -11 -11   71.89   17.30
   7 -11 -11  102.89   35.50
   7  11 -11   11.70   36.50
  -5 -11  11   15.00   25.50
   5 -11 -11    2.60   10.70
  -5 -11  11    0.60   16.40
   5 -11 -11  -24.00   22.00
   5 -11 -11   22.30   12.40
   3 -11 -11    2.00    8.80
   3 -11 -11   20.40   11.30
  -3 -11  11    3.50   15.50
  -3 -11  11   44.80   26.60
   3 -11 -11    0.20   24.70
  -1 -11  11   41.00   19.80
   1 -11 -11   47.60   30.30
  -1 -11  11   44.50   28.90
   1 -11 -11   59.49   10.70
   1 -11 -11   33.70   10.60
  -1 -11 -11   18.20   26.90
   1 -11  11    8.10   22.80
   1 -11  11    6.70   16.70
   3 -11  11   19.60   24.30
  -3 -11 -11   36.90   32.60
   3 -11  11   -3.20   18.30
   3 -11  11   42.80   21.80
   5 -11  11   20.20   17.00
   5 -11  11  -15.40   15.00
   5 -11  11    0.40   21.60
   7 -11  11   22.30   19.30
   7 -11  11   32.90   14.10
   7 -11  11   37.60   17.90
  12 -12 -11   -4.90   24.10
  12 -12 -11   10.20   15.10
 -12 -12  11   18.10   18.60
  12  12 -11  -23.30   37.00
  10 -12 -11   21.00   17.10
  10 -12 -11   40.40   28.10
 -10 -12  11    5.80   16.40
  10 -12 -11   52.19   17.80
  10  12 -11   58.89   55.39
   8 -12 -11   25.30   26.00
  -8 -12  11    8.10   17.50
   8 -12 -11   23.00   16.20
   8 -12 -11   52.89   16.80
  -6 -12  11   -2.40   17.80
   6 -12 -11   32.70   14.50
   6 -12 -11   13.00   12.60
   6 -12 -11   39.00   35.20
   4 -12 -11    0.20   10.60
  -4 -12  11  -15.00   13.70
   4 -12 -11    8.90   10.80
   4 -12 -11  -12.30   22.20
  -2 -12  11   17.80   18.30
   2 -12 -11    0.50   29.70
  -2 -12  11   19.40   28.60
   2 -12 -11   10.70   10.40
   0 -12  11   34.90   20.10
   0 -12  11   28.40   32.60
   0 -12 -11   37.20   10.20
   0 -12 -11   88.49   38.00
   0 -12 -11   23.90    8.70
  -2 -12 -11   45.60   34.70
   2 -12  11   38.10   26.70
   2 -12  11   34.10   23.30
   2 -12  11    3.90   17.10
   4 -12  11   12.70   19.00
  -4 -12 -11  -26.70   24.90
   4 -12  11   50.69   28.10
   4 -12  11   -6.60   18.50
 -28   0  12  264.57   42.90
  28   0 -12  190.28   57.69
 -26   0  12   13.60   15.80
  26   0 -12   22.60   35.30
  24   0 -12  341.27   60.99
 -24   0  12  278.17   36.90
 -22   0  12   -7.30   14.90
 -20   0  12  103.19   27.40
 -20   0  12  113.49   23.70
  20   0 -12   64.29   31.10
 -18   0  12  345.07   33.20
 -18   0  12  309.77   38.60
  18   0 -12  364.96   31.50
  18   0 -12  373.96   47.30
  16   0 -12   30.90   13.90
  16   0 -12    5.70   19.20
 -16   0  12    6.10   12.00
 -16   0  12   10.60   17.50
 -14   0  12   -4.20    9.50
 -14   0  12   -1.80   12.10
  14   0 -12    0.80   14.30
  14   0 -12   -6.40    7.60
  12   0 -12  494.95   32.60
 -12   0  12  481.75   40.50
 -12   0  12  521.25   34.40
  12   0 -12  573.44   46.40
  10   0 -12 2461.55  104.49
  10   0 -12 2369.96  116.79
 -10   0  12 2379.76  114.09
  -8   0  12  973.50   49.40
   8   0 -12 1041.80   51.79
  -8   0  12 1008.10   57.29
   8   0 -12  959.60   58.99
   6   0 -12  105.19   21.10
  -6   0  12  142.09   22.40
  -6   0  12  100.99   14.80
   6   0 -12  105.89   14.50
  -4   0  12 8581.84  336.67
   4   0 -12 8826.62  344.77
   4   0 -12 8584.44  336.37
  -4   0  12 8485.95  343.97
   2   0 -12  133.69   19.00
  -2   0  12  137.99   19.60
   2   0 -12  158.48   14.20
  -2   0  12  110.59   14.60
   0   0 -12 2124.59   92.29
   0   0  12 2253.97   92.89
   0   0 -12 2276.17   97.69
  -2   0 -12 1800.12   82.19
   2   0  12 1851.51   78.59
  -4   0 -12   89.69   22.00
   4   0  12  126.09   15.80
  -4   0 -12  209.38   20.70
   6   0  12  711.83   37.30
  -6   0 -12  606.74   39.30
  -6   0 -12  626.74   45.70
   8   0  12  244.08   23.70
   8   0  12  284.67   24.10
  -8   0 -12  167.78   27.10
  10   0  12   52.39   15.80
 -10   0 -12   58.19   20.60
  12   0  12  200.28   26.40
 -12   0 -12  186.18   29.80
  14   0  12   22.30   17.20
 -14   0 -12   25.90   19.50
 -16   0 -12   30.10   20.30
  16   0  12   22.20   17.70
 -18   0 -12   53.99   23.70
 -27  -1  12   -0.80   15.60
  27  -1 -12   30.80   33.00
  27   1 -12    7.10   31.00
 -27   1  12  -17.10   16.60
 -25  -1  12  117.59   28.60
  25  -1 -12  162.78   44.10
 -25   1  12  122.59   29.90
  25   1 -12   97.19   41.10
  23  -1 -12   14.40   25.40
 -23  -1  12   35.80   18.90
 -23   1  12   14.60   16.50
  23   1 -12   21.10   26.50
 -21  -1  12    6.20   14.70
  21  -1 -12   60.69   28.80
  21   1 -12   17.90   24.50
 -21   1  12   -2.20   14.80
 -19  -1  12  185.88   29.00
  19  -1 -12  196.38   28.60
 -19  -1  12  197.58   38.50
  19  -1 -12  180.18   41.00
 -19   1  12  230.28   39.10
 -19   1  12  234.08   29.50
  19   1 -12  200.48   26.30
  19   1 -12  198.58   46.30
  17  -1 -12   49.50   22.90
  17  -1 -12  148.69   35.70
 -17  -1  12  132.49   23.50
  17   1 -12  100.99   29.40
 -17   1  12   82.29   27.00
 -17   1  12   79.79   20.20
 -15  -1  12  370.86   31.10
  15  -1 -12  353.06   29.30
 -15  -1  12  405.06   39.40
  15  -1 -12  263.17   37.50
  15   1 -12  345.47   41.70
 -15   1  12  376.66   31.20
 -15   1  12  386.86   38.20
  15   1 -12  404.66   30.10
  13  -1 -12  138.29   18.50
 -13  -1  12  179.88   27.20
 -13  -1  12  181.38   21.50
  13  -1 -12  201.38   34.90
  13   1 -12  163.08   19.10
 -13   1  12  199.28   22.10
  13   1 -12  224.18   38.90
 -13   1  12  166.38   26.30
 -11  -1  12   67.19   14.60
  11  -1 -12   40.20   11.30
 -11  -1  12   31.30   16.90
  11  -1 -12   73.99   23.40
  11   1 -12   38.60   11.30
  11   1 -12   32.10   18.30
 -11   1  12   34.90   12.20
 -11   1  12   19.70   15.00
  -9  -1  12  589.24   40.00
  -9  -1  12  452.45   34.80
   9  -1 -12  574.54   47.90
   9  -1 -12  482.15   30.00
  -9   1  12  504.15   31.50
  -9   1  12  501.65   39.10
   9   1 -12  502.45   41.60
   9   1 -12  522.95   31.60
   7  -1 -12   -4.60   13.00
  -7  -1  12   25.40   10.80
   7  -1 -12   12.90    8.10
  -7   1  12   37.50   15.50
   7   1 -12   34.30   16.40
  -7   1  12   47.00   10.90
   7   1 -12   26.20   10.30
   5  -1 -12   -4.50    6.20
  -5  -1  12    2.60    8.10
  -5  -1  12   -8.10    8.10
   5  -1 -12   15.90   13.00
   5   1 -12   -6.00   11.20
  -5   1  12   -8.30    6.50
   5   1 -12    1.50    7.30
  -5   1  12   20.80   13.90
   3  -1 -12   87.39   18.20
  -3  -1  12   78.19   15.30
   3  -1 -12   84.99   11.10
  -3  -1  12   93.99   14.10
  -3   1  12   86.69   18.90
  -3   1  12   83.59   11.40
   3   1 -12  111.89   18.10
   3   1 -12  102.29   14.00
   1  -1 -12  893.21   50.39
   1  -1 -12  918.61   41.10
  -1  -1  12  901.31   44.40
  -1  -1  12  861.71   45.90
   1   1 -12  862.61   45.80
  -1   1  12  875.11   41.10
   1   1 -12  960.70   44.60
  -1  -1 -12   91.19   17.80
   1  -1  12   85.79   14.60
   1   1  12   90.59   12.00
  -1   1 -12  101.39   14.60
   3  -1  12  269.47   22.20
  -3  -1 -12  242.48   35.10
  -3  -1 -12  278.27   26.30
  -3   1 -12  243.38   26.30
  -3   1 -12  273.87   20.10
   3   1  12  248.98   18.50
   5  -1  12    8.10   12.10
  -5  -1 -12   22.50   12.10
  -5  -1 -12    6.20   17.90
  -5   1 -12   19.00   12.50
  -5   1 -12    2.30    8.50
   5   1  12   11.30    7.60
  -7  -1 -12   16.50   19.30
   7  -1  12   14.20   10.70
   7   1  12    9.30    9.10
  -7   1 -12   -7.50   10.60
  -7   1 -12   -0.40    8.40
  -9  -1 -12   67.49   25.40
   9  -1  12   77.69   18.10
  -9   1 -12   40.90   14.30
   9   1  12   73.49   15.10
 -11  -1 -12   48.10   23.00
  11  -1  12   45.00   17.60
  11   1  12   43.90   15.80
 -11   1 -12   71.39   16.50
 -13  -1 -12   21.40   21.70
  13  -1  12   28.00   16.00
  13   1  12   47.20   18.10
 -13   1 -12   54.09   17.00
  15  -1  12   27.50   19.50
 -15  -1 -12   35.70   23.90
 -15   1 -12   27.40   21.00
 -17  -1 -12   34.70   25.00
 -17   1 -12    9.50   17.50
  17   1  12   17.20   18.20
 -19   1 -12    9.80   19.20
  26  -2 -12   37.60   31.80
 -26  -2  12  -12.90   15.30
  26   2 -12   42.60   36.40
 -26   2  12   16.90   17.30
 -24  -2  12  339.97   37.90
  24  -2 -12  339.77   60.19
  24   2 -12  203.68   54.99
 -24   2  12  278.77   36.70
 -22  -2  12   24.00   18.10
 -22   2  12    7.00   15.90
  22   2 -12   13.20   28.50
 -20  -2  12   86.69   23.40
  20  -2 -12  -13.20   20.50
 -20   2  12   52.19   20.00
  20   2 -12   24.30   23.00
 -20   2  12   16.30   22.90
 -18  -2  12   70.39   24.90
  18  -2 -12   49.00   26.20
 -18  -2  12   68.29   19.20
  18  -2 -12   58.89   17.90
  18   2 -12   75.09   31.80
 -18   2  12   54.69   23.00
  18   2 -12   42.00   16.30
 -18   2  12   79.09   21.00
  16  -2 -12  172.38   24.70
  16  -2 -12  171.88   34.20
 -16  -2  12  101.49   20.30
 -16  -2  12  143.09   31.90
  16   2 -12  116.79   20.20
  16   2 -12  155.58   38.50
 -16   2  12  138.79   30.40
 -16   2  12  158.98   24.70
  14  -2 -12  408.46   42.10
 -14  -2  12  409.36   32.60
  14  -2 -12  410.26   31.30
 -14  -2  12  427.36   41.00
 -14   2  12  445.36   32.80
  14   2 -12  467.45   48.50
  14   2 -12  438.16   31.90
 -14   2  12  420.76   39.60
  12  -2 -12  190.28   28.90
  12  -2 -12  213.78   20.00
 -12  -2  12  153.68   20.80
 -12  -2  12  185.18   32.40
 -12   2  12  135.19   19.20
  12   2 -12  175.38   19.80
  12   2 -12  130.69   29.70
 -12   2  12  192.58   26.80
  10  -2 -12   67.19   13.40
 -10  -2  12   85.69   16.10
  10  -2 -12   87.99   22.90
 -10  -2  12   59.29   19.60
 -10   2  12   59.29   18.30
  10   2 -12   92.59   15.60
 -10   2  12   56.89   13.60
  10   2 -12   98.69   27.50
  -8  -2  12 2026.10   97.19
   8  -2 -12 1940.41   99.09
   8  -2 -12 2008.20   86.59
  -8  -2  12 2102.39   95.19
  -8   2  12 2058.49   87.79
   8   2 -12 1926.71   88.89
   8   2 -12 2039.70  101.19
  -8   2  12 1966.10   98.89
   6  -2 -12   39.10   17.10
  -6  -2  12   14.00   11.90
   6  -2 -12   26.90    8.50
  -6  -2  12   41.40   12.00
  -6   2  12   31.30   15.00
  -6   2  12   18.10    8.50
   6   2 -12   23.90   10.60
   6   2 -12   17.70   14.10
   4  -2 -12  657.43   32.00
  -4  -2  12  697.33   37.90
  -4  -2  12  658.83   39.10
   4  -2 -12  570.04   42.80
   4   2 -12  709.33   42.00
   4   2 -12  680.63   36.80
  -4   2  12  686.73   32.90
  -4   2  12  642.74   44.20
  -2  -2  12   -4.50    9.30
   2  -2 -12  -17.10   10.40
  -2  -2  12   16.90    9.80
   2  -2 -12    2.40    5.60
   2   2 -12   -5.80    7.30
   2   2 -12   13.90   10.80
  -2   2  12   -1.90    5.40
   0  -2 -12  670.03   42.70
   0  -2  12  626.54   35.80
   0  -2  12  602.04   32.60
   0   2  12  622.34   28.90
   0   2 -12  593.04   34.70
   0   2 -12  634.94   34.00
  -2  -2 -12  950.60   55.79
   2  -2  12  885.11   52.19
  -2   2 -12  942.61   42.30
   2   2  12  947.41   41.10
   4  -2  12  137.79   19.10
  -4  -2 -12  163.78   27.10
  -4  -2 -12  138.69   31.60
   4   2  12  150.68   13.60
   4   2  12  107.09   12.10
   6  -2  12  567.54   37.30
  -6  -2 -12  503.35   51.59
   6   2  12  639.84   31.60
   6   2  12  617.14   32.00
   8  -2  12  122.29   20.60
  -8  -2 -12   88.29   29.00
   8   2  12   91.89   14.40
  10  -2  12  153.48   25.80
  10  -2  12  207.88   27.70
 -10  -2 -12  168.28   37.10
  10   2  12  204.88   21.60
  12  -2  12   11.70   16.90
 -12  -2 -12   34.10   26.00
 -12   2 -12   39.70   11.00
  12   2  12   45.60   15.10
 -14  -2 -12    3.40   23.80
 -14   2 -12   10.30   10.50
  14   2  12   28.00   16.10
 -16  -2 -12   76.69   36.60
 -16   2 -12   81.79   16.60
 -18  -2 -12   20.90   30.00
  18   2  12   18.30   18.90
 -18   2 -12   10.20   13.50
  27  -3 -12   -7.50   28.10
 -27  -3  12   18.60   20.90
  27   3 -12    0.00   35.80
 -27   3  12   32.40   21.50
  25  -3 -12   -8.30   22.80
 -25  -3  12   15.40   17.70
 -25   3  12   23.10   19.50
  25   3 -12   27.30   35.70
 -23  -3  12    3.70   16.00
  23  -3 -12   -2.20   22.00
 -23   3  12   -0.90   15.40
  23   3 -12   42.60   37.70
  21  -3 -12   21.20   23.00
 -21  -3  12   41.90   19.80
  21   3 -12   86.99   39.30
 -21   3  12   79.49   21.40
  19  -3 -12  184.38   42.20
 -19  -3  12  155.48   27.00
  19  -3 -12  105.89   22.80
  19   3 -12   77.89   22.00
  19   3 -12  138.39   42.60
 -19   3  12  122.29   32.10
 -19   3  12  157.58   26.50
  17  -3 -12   41.70   14.90
 -17  -3  12    8.30   17.10
 -17  -3  12    3.10   12.00
  17  -3 -12   12.80   18.80
 -17   3  12   10.50   16.10
  17   3 -12   32.60   27.60
  17   3 -12   31.20   14.60
 -17   3  12    8.50   12.90
  15  -3 -12   -3.20   15.80
 -15  -3  12   50.99   21.50
  15  -3 -12   13.90   10.40
 -15  -3  12  -15.60   10.00
  15   3 -12    2.50   10.40
  15   3 -12   58.69   27.30
 -15   3  12    2.90   12.10
 -15   3  12   -7.20   14.50
 -13  -3  12    5.80   14.80
 -13  -3  12   -5.50    9.30
  13  -3 -12  -10.50   14.40
  13  -3 -12    4.90    9.50
  13   3 -12  -24.00   16.80
 -13   3  12   -5.50    9.00
  13   3 -12   16.90    9.50
 -13   3  12   -5.50   12.90
 -11  -3  12  136.49   19.60
 -11  -3  12  160.38   26.20
  11  -3 -12  149.69   17.70
  11  -3 -12  161.78   30.60
 -11   3  12  178.88   20.40
  11   3 -12  186.88   34.90
 -11   3  12  255.17   38.30
  11   3 -12  162.18   19.30
  -9  -3  12  790.92   46.10
  -9  -3  12  789.92   53.79
   9  -3 -12  868.71   46.90
   9  -3 -12  842.82   55.49
  -9   3  12  857.41   55.39
   9   3 -12  845.42   59.39
  -9   3  12  874.51   44.30
   9   3 -12  830.92   45.60
  -7  -3  12   12.60   10.40
   7  -3 -12   22.10    8.60
  -7  -3  12   26.00   14.30
   7  -3 -12   25.80   15.70
   7   3 -12   16.20   14.80
   7   3 -12   20.50    9.80
  -7   3  12    5.50   14.40
  -7   3  12   25.40    9.20
  -5  -3  12 1195.48   60.09
  -5  -3  12 1230.48   63.49
   5  -3 -12 1210.58   53.59
   5  -3 -12 1244.48   70.09
   5   3 -12 1260.87   59.69
   5   3 -12 1284.97   68.39
  -5   3  12 1168.58   69.09
  -5   3  12 1247.18   54.49
   3  -3 -12    4.50    5.30
  -3  -3  12    4.30    9.10
  -3  -3  12    9.20    8.70
   3   3 -12    3.40    7.70
   3   3 -12    3.70   10.50
  -3   3  12   -3.30    5.40
  -1  -3  12  331.77   25.30
  -1  -3  12  325.17   22.20
   1  -3 -12  323.17   15.60
   1  -3 -12  319.67   49.70
   1   3 -12  271.97   23.30
  -1   3  12  318.47   15.80
   1   3 -12  282.37   24.20
   1  -3  12   28.60    7.60
   1  -3  12   51.49   13.20
  -1   3 -12   19.50    8.90
  -3  -3 -12   43.60   19.10
   3  -3  12   29.10   11.90
  -3  -3 -12   51.69   26.10
   3   3  12   46.00    6.00
   3   3  12   44.40    6.10
   5  -3  12   12.00   10.70
  -5  -3 -12   30.90   22.90
   5   3  12   14.00    6.20
   5   3  12   12.10    5.80
   7  -3  12    7.50   12.20
  -7  -3 -12   17.80   25.90
   7   3  12    0.30    6.90
   7   3  12   -6.30    6.90
   9  -3  12   23.80   15.10
  -9  -3 -12   -6.30   22.00
   9   3  12   22.50   10.50
 -11  -3 -12   -2.50   23.20
  11  -3  12   -0.80   15.70
  11  -3  12    4.60   15.40
  11   3  12   -5.80   10.60
 -13  -3 -12   60.39   32.80
  13   3  12   87.39   17.90
 -15  -3 -12   -7.70   26.60
  15   3  12    3.80   15.30
 -17  -3 -12   51.29   43.70
 -26  -4  12    8.90   17.40
  26  -4 -12  -14.10   24.40
  26   4 -12  -31.30   27.90
  24  -4 -12   74.99   34.10
 -24  -4  12    9.80   20.10
  24   4 -12   59.39   43.10
 -24   4  12   29.00   21.50
 -22  -4  12  116.89   25.50
  22  -4 -12   95.99   34.50
 -22   4  12   54.39   22.30
  22   4 -12   50.49   37.00
  20  -4 -12   14.00   23.50
 -20   4  12    2.10   20.20
  20   4 -12  -19.40   22.60
  18  -4 -12  320.37   43.70
  18  -4 -12  350.36   33.60
 -18  -4  12  420.46   36.20
  18   4 -12  311.87   31.70
 -18   4  12  462.85   47.50
  18   4 -12  366.56   57.19
 -18   4  12  274.67   33.30
  16  -4 -12   81.19   27.30
 -16  -4  12   -9.20   15.50
 -16  -4  12   36.80   16.30
  16  -4 -12   21.00   14.20
  16   4 -12   17.90   24.80
 -16   4  12   35.20   15.90
 -16   4  12   11.90   22.30
  16   4 -12   43.50   16.20
  14  -4 -12  694.03   43.50
 -14  -4  12  718.83   45.60
 -14  -4  12  738.73   56.99
  14  -4 -12  721.33   55.69
 -14   4  12  686.13   44.80
 -14   4  12  714.23   54.79
  14   4 -12  731.63   66.49
  14   4 -12  674.33   43.60
 -12  -4  12   30.20   17.70
  12  -4 -12   37.20   12.60
  12  -4 -12   28.40   18.20
 -12  -4  12   44.80   15.30
 -12   4  12   29.00   18.50
  12   4 -12   90.19   29.80
  12   4 -12   24.90   13.10
 -12   4  12   61.59   15.80
 -10  -4  12  178.98   21.50
 -10  -4  12  219.18   29.10
  10  -4 -12  173.98   18.40
  10  -4 -12  175.18   28.30
 -10   4  12  210.68   35.90
 -10   4  12  191.38   19.80
  10   4 -12  167.38   20.10
  10   4 -12  229.88   40.70
   8  -4 -12  135.19   15.00
   8  -4 -12  159.78   27.80
  -8  -4  12  161.38   28.20
  -8  -4  12  150.68   19.40
  -8   4  12   90.89   22.20
  -8   4  12  137.99   16.30
   8   4 -12  165.28   38.60
   8   4 -12  133.69   17.50
   6  -4 -12   23.10    7.80
  -6  -4  12   18.20   13.90
  -6  -4  12   15.50   11.80
   6  -4 -12   34.10   17.60
  -6   4  12   22.40   15.40
   6   4 -12   13.00   18.90
   6   4 -12   21.30   10.50
  -6   4  12    1.70    7.10
  -4  -4  12  507.05   35.50
   4  -4 -12  491.95   25.30
  -4  -4  12  519.05   34.10
   4  -4 -12  573.44   43.60
   4   4 -12  543.15   33.60
  -4   4  12  507.35   25.80
   4   4 -12  528.15   41.20
   2  -4 -12  205.18   28.80
  -2  -4  12  222.68   20.90
  -2  -4  12  213.58   22.50
   2  -4 -12  224.38   11.60
   2   4 -12  223.38   21.60
   2   4 -12  213.68   25.90
   0  -4 -12  644.14   47.10
   0  -4  12  593.74   30.70
   0  -4  12  606.64   37.50
   0   4 -12  569.24   36.40
   0   4 -12  540.25   34.90
  -2  -4 -12  964.80   77.99
   2  -4  12 1008.10   53.89
  -2  -4 -12 1018.30   64.39
  -4  -4 -12  166.48   40.80
   4  -4  12  163.48   22.50
  -6  -4 -12  510.45   61.39
   6  -4  12  631.04   42.10
   6   4  12  633.54   27.00
   6   4  12  620.74   27.10
   8  -4  12   18.70   14.60
  -8  -4 -12  -23.10   22.90
   8   4  12    1.20    6.60
   8   4  12    7.20    6.90
  10  -4  12  168.18   29.10
 -10  -4 -12  179.68   44.70
  10   4  12  174.38   17.80
 -12  -4 -12   14.80   28.80
  12  -4  12   28.80   19.50
  12   4  12  -10.30   11.90
  14  -4  12   15.10   19.90
 -14  -4 -12    6.20   30.40
  14   4  12   16.30   12.60
  16   4  12    1.40   13.20
  18   4  12   36.50   23.90
 -25  -5  12   -5.90   16.50
  25  -5 -12   37.50   30.70
  25   5 -12   69.49   47.30
 -23  -5  12    6.00   14.40
  23  -5 -12   -0.80   22.90
  23   5 -12   31.00   34.10
 -21  -5  12  -11.70   12.40
  21  -5 -12    9.40   19.80
  21   5 -12   23.80   35.20
 -19  -5  12   59.49   20.60
  19  -5 -12   22.50   22.10
  19   5 -12    7.10   25.80
 -19   5  12   14.80   16.50
  17  -5 -12   42.60   25.50
  17  -5 -12   16.70   14.00
 -17  -5  12   41.40   18.70
 -17   5  12   15.10   14.80
  17   5 -12   16.70   14.30
  17   5 -12   41.30   32.70
 -17   5  12   29.20   23.00
  15  -5 -12  532.55   48.80
 -15  -5  12  497.55   49.60
 -15  -5  12  438.96   37.10
  15  -5 -12  482.45   36.20
 -15   5  12  481.25   38.70
  15   5 -12  454.75   36.10
  15   5 -12  431.36   59.59
 -15   5  12  503.85   48.10
 -13  -5  12    8.70   11.50
  13  -5 -12    6.20   10.70
 -13  -5  12   10.20   18.10
  13  -5 -12   -0.10   15.30
 -13   5  12   17.00   17.30
 -13   5  12   -4.00   11.20
  13   5 -12    3.80    9.90
  13   5 -12  -10.10   21.20
  11  -5 -12  171.38   31.90
  11  -5 -12  199.08   20.80
 -11  -5  12  165.88   22.00
 -11  -5  12  228.48   32.20
  11   5 -12  273.57   42.60
 -11   5  12  187.78   33.30
 -11   5  12  176.68   21.30
  11   5 -12  169.78   21.90
  -9  -5  12  145.19   28.30
   9  -5 -12  105.09   15.20
   9  -5 -12  175.38   32.30
  -9  -5  12  110.09   20.80
   9   5 -12  135.79   32.90
  -9   5  12  109.59   28.20
  -9   5  12  113.39   17.50
   9   5 -12  111.59   19.80
   7  -5 -12   18.60   15.60
   7  -5 -12   13.90    8.30
  -7  -5  12   -0.10    9.80
  -7  -5  12   25.00   14.80
   7   5 -12    3.90    9.30
   7   5 -12   28.50   22.80
  -7   5  12   29.50   19.30
   5  -5 -12   -8.20   13.20
  -5  -5  12  -11.60    9.00
  -5  -5  12   11.20   14.10
   5  -5 -12    5.90    6.70
   5   5 -12  -14.30    7.10
   5   5 -12  -12.40   15.90
  -3  -5  12  204.88   23.90
   3  -5 -12  229.28   13.00
   3  -5 -12  210.78   30.70
  -3  -5  12  191.98   22.80
   3   5 -12  226.98   22.50
   3   5 -12  185.48   29.30
  -1  -5  12   77.19   14.80
   1  -5 -12   50.99   21.50
  -1  -5  12   43.40   13.90
   1   5 -12   44.70   13.50
   1   5 -12   53.59   18.30
   1  -5  12  787.92   46.50
  -1  -5 -12  677.73   68.49
  -1  -5 -12  754.42   56.79
   1  -5  12  802.02   37.60
   3  -5  12   18.90   13.30
  -3  -5 -12  -18.80   20.90
   5  -5  12   22.70   15.30
  -5  -5 -12   51.99   30.60
   7  -5  12   23.80   14.90
  -7  -5 -12  -17.10   23.80
  -9  -5 -12   81.99   38.20
   9  -5  12   87.39   22.30
   9   5  12   88.69   10.60
 -11  -5 -12  -27.70   25.30
  11   5  12   -5.00    7.60
  13  -5  12   25.20   21.60
  13   5  12   44.80   13.80
  15  -5  12   53.59   24.40
  15   5  12   18.50   11.90
  17  -5  12   -8.40   22.80
  17   5  12   17.20   14.60
 -24  -6  12   59.19   24.20
  24  -6 -12   33.30   30.90
  24   6 -12   77.19   50.39
 -22  -6  12   19.20   17.30
  22  -6 -12   -3.40   21.90
  22   6 -12   70.29   42.00
  20  -6 -12   70.49   29.50
 -20  -6  12   72.99   20.70
  20   6 -12   93.39   42.40
  18  -6 -12   35.20   23.90
 -18  -6  12   58.89   22.10
  18   6 -12   48.90   38.80
  16  -6 -12   33.20   22.50
  16  -6 -12   15.20   14.20
 -16  -6  12   41.70   18.50
  16   6 -12    2.20   28.00
  16   6 -12    7.50   13.70
 -16   6  12   -2.00   21.80
 -14  -6  12   54.59   17.20
  14  -6 -12    7.60   13.00
 -14  -6  12   57.09   24.70
  14  -6 -12   11.30   18.90
 -14   6  12   11.40   24.30
  14   6 -12   43.30   32.80
  14   6 -12   46.50   16.70
 -12  -6  12  164.58   24.90
  12  -6 -12  143.09   21.50
 -12  -6  12  163.28   34.50
  12  -6 -12  135.29   32.70
  12   6 -12  114.89   40.20
 -12   6  12  206.38   44.40
  12   6 -12  100.39   20.40
 -10  -6  12  171.38   24.70
  10  -6 -12  133.09   18.80
 -10  -6  12  223.88   33.60
  10  -6 -12  150.58   29.70
  10   6 -12  150.68   40.50
  10   6 -12  156.98   24.10
 -10   6  12  202.48   40.50
   8  -6 -12  146.99   17.40
   8  -6 -12  246.18   37.70
  -8  -6  12  147.69   22.50
  -8  -6  12  187.88   33.80
   8   6 -12  192.78   42.10
   8   6 -12  167.48   21.40
  -6  -6  12   18.40   16.70
  -6  -6  12  -11.10   10.10
   6  -6 -12   -1.30    6.50
   6  -6 -12   10.30   16.90
   6   6 -12  -24.00   15.30
   6   6 -12   -2.20   10.20
  -4  -6  12  692.63   42.50
   4  -6 -12  643.54   30.30
   4  -6 -12  566.84   49.80
  -4  -6  12  647.34   45.50
   4   6 -12  538.45   39.30
   4   6 -12  650.13   52.59
  -2  -6  12   -9.20   10.00
   2  -6 -12    9.70   19.00
  -2  -6  12   22.70   12.60
   2   6 -12   -0.30   16.90
   2   6 -12   24.60   12.80
   0  -6 -12  161.48   45.20
   0  -6  12  193.58   21.00
   0  -6  12  246.08   26.70
   0  -6 -12  289.37   36.50
   0   6 -12  259.57   31.10
  -2  -6 -12  244.98   53.69
   2  -6  12  265.27   18.70
  -2  -6 -12  271.37   39.90
   2  -6  12  253.07   28.30
  -4  -6 -12   22.10   31.90
   4  -6  12    8.40   13.10
   6  -6  12  365.66   35.80
  -6  -6 -12  462.65   64.29
   8  -6  12   16.40   17.60
  -8  -6 -12   25.80   33.10
  10  -6  12   24.40   18.20
  12  -6  12   22.90   19.40
  12   6  12   30.60    9.00
  14  -6  12   -0.10   19.20
  14   6  12   -5.00    9.00
  16  -6  12   31.70   25.20
  16   6  12    5.70   11.70
 -23  -7  12    2.50   17.20
  23  -7 -12  -20.00   22.60
  23   7 -12   36.90   44.00
  21  -7 -12  -13.80   19.80
 -21  -7  12   -0.50   15.10
  21   7 -12   60.29   41.20
 -19  -7  12  131.69   25.60
  19  -7 -12   93.29   34.20
  19   7 -12  166.58   60.19
  17  -7 -12   13.30   21.80
  17   7 -12   -9.70   27.40
 -15  -7  12   60.19   19.00
  15  -7 -12   47.90   17.00
  15  -7 -12   57.79   27.00
  15   7 -12  -22.10   25.00
 -15   7  12   -0.80   44.90
  13  -7 -12  167.08   36.20
  13  -7 -12  140.89   23.30
 -13  -7  12  160.38   37.60
 -13  -7  12  143.59   26.20
  13   7 -12  183.28   50.99
  13   7 -12  159.08   25.40
 -13   7  12  163.98   41.00
 -11  -7  12  185.28   26.10
  11  -7 -12  189.38   22.50
  11  -7 -12  211.68   40.40
  11   7 -12  259.37   50.79
  11   7 -12  189.58   25.60
  -9  -7  12  344.47   41.30
   9  -7 -12  338.47   26.60
   9  -7 -12  346.37   41.80
  -9  -7  12  346.97   32.20
   9   7 -12  313.37   47.90
   9   7 -12  330.27   30.20
  -7  -7  12   48.30   16.20
  -7  -7  12   27.90   18.60
   7  -7 -12   61.99   24.20
   7   7 -12    7.10   13.60
   7   7 -12   61.09   30.50
  -5  -7  12    0.10   12.60
   5  -7 -12    1.40    6.40
  -5  -7  12   25.10   15.80
   5  -7 -12   -1.60   15.10
   5   7 -12    6.50   16.00
   5   7 -12   13.50   23.00
   3  -7 -12  443.06   22.10
  -3  -7  12  347.27   36.70
  -3  -7  12  435.96   35.20
   3  -7 -12  430.76   22.00
   3  -7 -12  331.27   42.30
   3   7 -12  418.36   47.40
   3   7 -12  467.85   36.20
   1  -7 -12  -10.20   17.30
   1  -7 -12  -20.30   24.80
  -1  -7  12    0.40   12.20
  -1  -7  12   19.30   14.00
   1   7 -12   41.70   22.30
   1  -7  12  179.08   27.20
  -1  -7 -12  200.48   48.50
   1  -7  12  183.78   22.00
  -1  -7 -12  204.48   40.00
   3  -7  12  253.17   29.00
   3  -7  12  170.78   16.80
  -3  -7 -12  165.38   48.70
   3  -7  12  182.88   16.70
   5  -7  12   62.09   21.80
  -5  -7 -12   32.90   34.50
   7  -7  12  -29.30   15.40
   9  -7  12   -2.50   18.00
  11  -7  12    2.60   17.40
  13  -7  12   33.40   23.70
  15  -7  12  -15.70   19.50
  15   7  12    4.70    8.00
  22  -8 -12   42.80   31.10
 -22  -8  12   10.60   17.90
  22   8 -12   17.00   39.80
 -20  -8  12   42.60   19.60
  20  -8 -12   18.40   27.50
  20   8 -12  145.39   53.69
 -18  -8  12    4.70   15.90
  18  -8 -12   66.69   29.50
  18   8 -12  -18.20   31.40
 -16  -8  12   22.90   17.40
  16  -8 -12   23.80   23.00
  16   8 -12   35.10   36.40
 -14  -8  12  338.27   34.70
  14  -8 -12  346.77   45.50
  14  -8 -12  265.77   30.40
  14   8 -12  387.66   82.29
 -12  -8  12   -6.90   12.50
  12  -8 -12   -7.20   18.80
  12  -8 -12   -5.20   10.00
 -12  -8  12    7.10   21.30
  12   8 -12  -40.10   21.30
 -10  -8  12   84.69   20.70
 -10  -8  12  164.68   35.60
  10  -8 -12   64.29   16.40
  10  -8 -12   71.89   29.60
  10   8 -12  121.09   23.10
  10   8 -12   57.99   34.40
  -8  -8  12  728.63   49.60
   8  -8 -12  673.03   59.99
  -8  -8  12  588.74   56.99
   8  -8 -12  734.93   41.20
   8   8 -12  705.83   47.80
   8   8 -12  905.61   78.39
   6  -8 -12   29.80   22.60
   6  -8 -12   10.70   12.00
  -6  -8  12   35.70   16.90
  -6  -8  12   10.90   19.60
   6   8 -12   40.30   18.70
   6   8 -12   40.60   30.50
   4  -8 -12  127.89   15.00
  -4  -8  12  148.39   24.80
   4  -8 -12  143.89   32.70
   4  -8 -12  134.79   14.30
  -4  -8  12  133.69   29.80
   4   8 -12  144.99   38.90
   4   8 -12   78.79   19.30
   2  -8 -12   33.20   36.80
   2  -8 -12   -9.70   19.20
  -2  -8  12  -22.80   11.50
  -2  -8  12    8.90   16.70
   2  -8 -12   33.70    6.20
   2  -8 -12   16.00    6.10
   2   8 -12   17.10   15.20
   0  -8  12   79.59   24.80
   0  -8 -12  119.29   32.50
   0  -8  12   70.39   19.60
   2  -8  12   -3.30   12.30
   2  -8  12   -6.10   13.80
  -2  -8 -12  -30.80   18.70
   4  -8  12   60.09   12.50
   4  -8  12   31.10   20.30
   4  -8  12   53.79   11.00
   6  -8  12    3.20   16.30
   8  -8  12    0.20   17.90
  10  -8  12   58.39   23.40
  12  -8  12  -36.80   17.60
  14  -8  12  -12.10   17.30
  21  -9 -12    9.00   27.90
 -21  -9  12   53.29   22.00
  21   9 -12   13.60   44.40
 -19  -9  12  -12.30   14.50
  19  -9 -12    2.10   21.70
  19   9 -12  -16.90   35.20
  17  -9 -12   28.90   23.70
 -17  -9  12   27.90   17.40
  17   9 -12   34.40   42.70
 -15  -9  12   70.89   21.00
  15  -9 -12  177.48   38.90
  15   9 -12  147.19   55.19
  13  -9 -12    7.20   22.40
 -13  -9  12   11.90   15.40
  13  -9 -12   -5.30   10.50
  13   9 -12   78.89   42.20
  11  -9 -12    9.70   12.80
  11  -9 -12   -8.80   19.50
  11   9 -12   49.40   37.40
  -9  -9  12   88.89   22.60
   9  -9 -12   56.19   14.60
   9  -9 -12   97.89   51.19
  -9  -9  12   71.39   29.00
   9   9 -12   83.09   38.20
   7  -9 -12   18.90   11.10
  -7  -9  12   11.70   15.30
  -7  -9  12   -8.60   18.70
   7  -9 -12   -5.80   20.90
   7   9 -12   21.90   30.90
   5  -9 -12   90.39   15.40
   5  -9 -12   66.59   30.20
   5  -9 -12  139.59   17.60
  -5  -9  12  155.58   27.40
  -5  -9  12  128.39   30.30
   5   9 -12   39.60   33.00
  -3  -9  12   36.10   16.00
   3  -9 -12   42.80   10.00
   3  -9 -12   44.60    9.80
  -3  -9  12   46.90   22.30
   1  -9 -12   41.70   34.80
  -1  -9  12   13.30   18.90
   1  -9  12   28.90   19.30
   1  -9  12   59.39   20.40
  -1  -9 -12   83.79   29.90
   3  -9  12   34.00   18.40
   3  -9  12    5.70   15.20
   3  -9  12    5.10   13.00
  -3  -9 -12   35.20   33.30
   5  -9  12   12.10   10.60
   5  -9  12    8.40   15.60
   5  -9  12   -9.20    9.00
   7  -9  12   72.79   22.70
   9  -9  12   14.50   20.30
  11  -9  12    2.60   20.20
  18 -10 -12    7.30   21.00
 -18 -10  12   -2.30   17.10
  18  10 -12   -2.00   43.70
 -16 -10  12   48.60   21.20
  16 -10 -12  -12.20   20.20
  16  10 -12  -24.80   32.90
  14 -10 -12  102.39   33.00
 -14 -10  12   31.50   19.10
  14  10 -12   -9.40   33.30
 -12 -10  12   57.39   20.00
  12 -10 -12   49.20   27.80
  12 -10 -12   31.40   15.70
  12  10 -12   10.90   40.80
  10 -10 -12   60.49   16.90
  10 -10 -12   67.39   29.50
 -10 -10  12   61.29   20.30
  10  10 -12  136.59   51.69
  -8 -10  12    0.30   14.40
   8 -10 -12    6.50   10.90
   8 -10 -12  -26.50   16.60
  -8 -10  12   -3.70   20.50
   8 -10 -12    7.30   12.00
   8  10 -12   35.10   33.80
  -6 -10  12   98.99   32.80
   6 -10 -12  117.19   17.40
   6 -10 -12   73.89   15.50
  -6 -10  12  129.29   28.70
   6 -10 -12  124.19   34.90
   6  10 -12   93.99   40.70
  -4 -10  12   82.29   30.50
   4 -10 -12  130.29   16.40
  -4 -10  12   67.89   22.30
   4 -10 -12   95.09   14.20
   4 -10 -12   55.69   26.30
  -2 -10  12   32.40   22.10
  -2 -10  12   14.80   15.80
   2 -10 -12   44.60    9.70
   2 -10 -12   16.50   24.70
   2 -10 -12   51.99    9.90
   0 -10 -12   41.40   29.10
   0 -10  12   77.39   26.10
   0 -10  12   80.39   22.30
   2 -10  12   36.30   20.40
   2 -10  12   -0.40   17.00
   2 -10  12   39.20   32.70
  -2 -10 -12   -0.20   28.10
   4 -10  12   27.40   15.00
  -4 -10 -12  -17.90   24.40
   4 -10  12   27.50   19.40
   4 -10  12   44.30   19.40
   6 -10  12   -5.20   17.00
   8 -10  12    3.10   16.70
  10 -10  12   29.30   22.00
  15 -11 -12    8.40   27.30
 -15 -11  12   54.19   22.90
  15  11 -12   61.99   49.90
  13 -11 -12   86.09   31.40
 -13 -11  12  113.19   26.40
  13  11 -12   37.00   41.80
  11 -11 -12   24.20   15.20
 -11 -11  12   11.60   17.60
  11 -11 -12   -4.30   12.80
  11 -11 -12   30.60   26.60
  11  11 -12   -7.70   36.80
   9 -11 -12   58.89   17.20
  -9 -11  12   60.59   22.40
   9 -11 -12   13.10   25.60
   9 -11 -12   22.70   13.60
   9  11 -12   49.90   42.00
   7 -11 -12   11.50   24.00
   7 -11 -12   18.90   12.10
   7 -11 -12   17.30   12.80
  -7 -11  12   48.20   20.80
   7  11 -12   60.19   43.00
  -5 -11  12   50.69   29.50
  -5 -11  12   21.50   18.40
   5 -11 -12  112.29   33.50
   5 -11 -12   33.40   12.20
   5 -11 -12   51.99   14.00
  -3 -11  12   -3.70   24.30
   3 -11 -12   56.29   11.80
   3 -11 -12   76.29   13.40
  -3 -11  12   69.49   22.60
   3 -11 -12   78.29   31.90
  -1 -11  12  -15.50   14.50
   1 -11 -12   15.80    7.50
   1 -11 -12  -34.80   20.90
   1 -11 -12    9.60    7.00
  -1 -11  12   13.50   21.00
   1 -11  12   21.90   23.80
   1 -11  12  -14.90   18.10
   1 -11  12    1.30   18.30
  -1 -11 -12   -7.20   23.00
   3 -11  12  -14.30   15.20
   3 -11  12  -23.40   17.90
  -3 -11 -12   30.40   32.60
   3 -11  12    6.20   17.50
  -5 -11 -12   37.00   34.10
   5 -11  12   -9.80   17.00
   5 -11  12   10.30   13.80
   5 -11  12    0.50   16.80
   7 -11  12  -14.70   14.80
  12 -12 -12   20.30   27.90
 -12 -12  12   13.10   20.10
  12 -12 -12  -21.90   15.60
  12  12 -12  -28.10   39.50
  10 -12 -12   -6.90   12.40
  10 -12 -12   30.60   31.60
  10 -12 -12  -10.40   13.20
 -10 -12  12  -30.20   13.40
  10  12 -12  -19.40   35.70
   8 -12 -12   11.40   13.40
   8 -12 -12   14.60   29.50
  -8 -12  12  -10.00   16.10
   8 -12 -12   13.80   13.80
  -6 -12  12   48.70   23.60
   6 -12 -12    6.10   27.20
   6 -12 -12   -6.30   10.10
   6 -12 -12   19.70   13.40
   4 -12 -12   13.60   10.80
   4 -12 -12   -3.00   12.00
  -4 -12  12   -1.00   17.90
   4 -12 -12   18.90   29.70
   2 -12 -12    0.40    8.60
  -2 -12  12   17.70   18.00
   2 -12 -12   10.60    8.90
  -2 -12  12   38.60   30.50
   2 -12 -12   33.90   31.00
   0 -12 -12   35.20   31.30
   0 -12  12   63.09   25.10
   0 -12  12  -15.50   26.10
  -2 -12 -12  -42.80   25.50
   2 -12  12   36.70   25.30
   2 -12  12   40.50   28.70
   2 -12  12    2.80   17.20
  28   0 -13    2.50   29.50
 -28   0  13   24.00   20.00
  26   0 -13   -8.20   27.00
 -26   0  13   -1.30   15.80
  24   0 -13   21.20   27.50
 -24   0  13  -12.00   14.90
  22   0 -13   24.60   26.00
 -22   0  13    1.70   15.20
  20   0 -13  -34.20   14.40
 -20   0  13    7.10   14.70
  18   0 -13   24.10   24.60
  18   0 -13   21.30   12.90
 -18   0  13   27.40   16.20
 -18   0  13   -9.60   15.20
 -16   0  13  -19.30   11.30
 -16   0  13   11.10   11.00
  16   0 -13    1.40    9.60
  16   0 -13   34.00   21.60
  14   0 -13   19.20   19.30
  14   0 -13   -4.70    8.60
 -14   0  13   -7.00   13.40
 -14   0  13  -18.40    9.70
  12   0 -13   -5.40   12.20
 -12   0  13   -5.90   11.60
  12   0 -13   -8.20    7.10
 -12   0  13    4.30    9.80
 -10   0  13    6.20   12.20
  10   0 -13    3.50   13.20
 -10   0  13    2.00    8.80
  10   0 -13   -4.70    7.00
   8   0 -13   -1.80   13.10
   8   0 -13    7.10    8.10
  -8   0  13   -3.90   12.30
  -8   0  13    6.70    9.30
  -6   0  13   -9.00    7.40
   6   0 -13    5.20   12.20
   6   0 -13   -3.40    6.90
  -4   0  13   -1.20    7.70
   4   0 -13    3.50    7.50
  -4   0  13    2.60   11.10
   4   0 -13    0.80   10.20
   2   0 -13   12.60   11.60
   2   0 -13   12.20    7.30
  -2   0  13   -3.00    7.60
  -2   0  13    4.70   11.40
   0   0 -13    8.40   11.00
   0   0  13   21.30    9.50
   0   0 -13    5.90    6.80
  -2   0 -13   -7.60   10.00
   2   0  13    8.60    8.80
  -4   0 -13   11.00   16.00
  -4   0 -13   -2.00   10.50
   4   0  13    1.70    8.30
  -6   0 -13  -18.50   12.90
  -6   0 -13  -15.50    9.40
   6   0  13    9.20    9.40
   8   0  13   11.80   11.40
   8   0  13    0.20    9.60
  -8   0 -13  -18.40   14.50
  -8   0 -13   -2.70   12.50
  10   0  13    7.30   12.40
  10   0  13   31.50   14.60
 -10   0 -13    8.80   17.90
 -12   0 -13   -9.90   15.60
  12   0  13  -10.50   12.40
 -14   0 -13    5.70   17.90
  14   0  13   21.70   19.20
 -16   0 -13   -9.50   17.80
 -18   0 -13    1.30   20.40
 -27  -1  13   -3.50   17.70
  27  -1 -13   26.10   31.80
 -27   1  13   -1.80   18.00
  27   1 -13  -18.40   32.00
  25  -1 -13    6.70   27.10
 -25  -1  13   79.49   24.60
 -25   1  13   52.19   21.70
  25   1 -13    3.30   29.10
  23  -1 -13  137.69   40.50
 -23  -1  13  237.48   38.60
  23   1 -13  194.18   49.50
 -23   1  13  249.97   33.50
  21  -1 -13  357.96   51.89
 -21   1  13  445.56   70.79
  21   1 -13  369.96   59.79
  19  -1 -13   62.09   28.50
 -19  -1  13   29.70   16.20
  19  -1 -13   20.00   13.90
 -19  -1  13   33.90   21.50
 -19   1  13   42.80   21.60
 -19   1  13   64.29   20.00
  19   1 -13   19.10   14.60
  19   1 -13   23.80   25.30
 -17  -1  13 1162.18   66.79
  17  -1 -13 1267.07   83.69
 -17  -1  13 1211.38   78.79
 -17   1  13 1175.28   66.69
  17   1 -13 1276.07   86.19
  17   1 -13 1167.28   65.39
 -17   1  13 1350.06   88.79
 -15  -1  13    8.50   17.40
  15  -1 -13   -1.80    9.50
  15  -1 -13   -2.60   14.90
 -15  -1  13    4.10   10.90
 -15   1  13   -1.50   12.00
  15   1 -13  -25.40   13.20
 -15   1  13   25.30   12.90
  15   1 -13   -0.10    9.60
  13  -1 -13  538.25   34.30
  13  -1 -13  627.64   49.10
 -13  -1  13  480.25   35.30
 -13  -1  13  530.45   44.00
 -13   1  13  471.05   34.80
  13   1 -13  527.45   47.40
 -13   1  13  576.64   44.90
  13   1 -13  527.35   34.80
 -11  -1  13  250.67   29.20
 -11  -1  13  304.27   24.60
  11  -1 -13  207.58   20.40
  11  -1 -13  192.78   30.20
 -11   1  13  257.87   29.50
  11   1 -13  225.88   31.50
  11   1 -13  226.18   21.30
 -11   1  13  246.28   22.90
   9  -1 -13   53.89   20.80
  -9  -1  13   71.99   18.70
  -9  -1  13  112.59   16.90
   9  -1 -13   72.69   12.80
   9   1 -13   81.29   14.40
  -9   1  13   63.79   20.40
  -9   1  13   99.69   15.30
  -7  -1  13  490.75   30.80
   7  -1 -13  501.15   28.60
   7  -1 -13  501.95   38.50
  -7  -1  13  511.95   37.10
  -7   1  13  469.35   37.30
   7   1 -13  440.76   37.00
   7   1 -13  489.65   30.00
  -7   1  13  485.35   29.50
   5  -1 -13 1618.74   69.99
  -5  -1  13 1577.24   72.69
   5  -1 -13 1649.73   81.29
  -5  -1  13 1653.33   78.19
  -5   1  13 1557.24   80.69
   5   1 -13 1673.63   76.49
  -5   1  13 1558.54   70.09
   5   1 -13 1609.34   79.69
  -3  -1  13  285.87   25.80
   3  -1 -13  312.87   29.40
   3  -1 -13  316.57   20.00
  -3  -1  13  274.97   22.90
   3   1 -13  314.37   25.30
  -3   1  13  356.66   30.60
   3   1 -13  331.27   27.20
  -3   1  13  329.87   20.70
  -1  -1  13 1323.47   60.99
  -1  -1  13 1313.27   63.19
   1  -1 -13 1250.77   66.59
   1  -1 -13 1310.37   57.49
  -1   1  13 1350.66   57.89
   1   1 -13 1349.56   63.29
   1   1 -13 1316.77   64.59
   1  -1  13    0.30    9.60
  -1  -1 -13    6.60   12.30
   1   1  13    9.20    7.80
  -1   1 -13    4.70    9.00
  -3  -1 -13   55.99   15.80
   3  -1  13   28.10   10.20
  -3  -1 -13   48.50   21.50
   3   1  13   73.59   11.10
  -3   1 -13   45.90   16.80
  -3   1 -13   66.39   12.00
  -5  -1 -13  156.98   24.40
   5  -1  13  116.19   17.60
  -5  -1 -13  101.79   28.40
  -5   1 -13  136.79   21.10
  -5   1 -13  140.49   15.40
   5   1  13  112.09   15.20
  -7  -1 -13   58.09   24.70
   7  -1  13   66.89   15.20
  -7   1 -13   47.90   15.50
  -7   1 -13   47.80   12.10
   7   1  13   65.99   13.40
   7   1  13   55.69   13.40
   9  -1  13  152.48   22.40
  -9  -1 -13  127.89   29.10
   9  -1  13  117.19   22.10
   9   1  13  159.38   20.40
  -9   1 -13   94.59   16.30
  -9   1 -13   62.79   16.10
   9   1  13  129.59   19.30
  11  -1  13  -14.60   13.60
 -11  -1 -13   12.40   22.70
  11  -1  13    2.80   16.30
  11   1  13  -17.20   12.70
 -11   1 -13   14.40   13.40
 -13  -1 -13   56.59   26.70
  13  -1  13   41.80   18.40
 -13   1 -13   25.60   14.60
  13   1  13   48.70   18.20
 -15  -1 -13  103.59   31.40
  15   1  13   44.60   20.30
 -15   1 -13   81.29   21.30
 -17  -1 -13    5.40   22.80
 -17   1 -13   -3.40   18.20
  26  -2 -13   -0.20   27.20
 -26  -2  13    5.70   16.20
  26   2 -13   19.70   33.80
 -26   2  13   15.40   21.30
  24  -2 -13    5.20   24.80
 -24  -2  13  -14.70   14.50
  24   2 -13   10.70   28.00
 -24   2  13   -1.90   15.60
  22  -2 -13  127.79   39.70
 -22  -2  13   95.29   24.60
  22   2 -13  121.69   41.30
 -22   2  13  122.79   26.00
  20  -2 -13  103.29   33.80
 -20  -2  13   74.79   21.30
 -20   2  13   82.39   23.50
  20   2 -13   56.29   32.20
 -18  -2  13    5.00   13.40
 -18  -2  13    6.40   19.50
  18  -2 -13    2.00   13.20
  18  -2 -13   23.50   21.40
 -18   2  13   -7.20   15.40
 -18   2  13   11.20   15.20
  18   2 -13    3.80   10.70
  18   2 -13    6.70   21.80
 -16  -2  13   70.29   17.40
  16  -2 -13  136.09   21.00
  16  -2 -13   95.99   26.30
 -16  -2  13  102.89   30.80
  16   2 -13   86.19   32.30
  16   2 -13   96.79   23.90
 -16   2  13   79.59   24.80
 -16   2  13  100.89   20.20
  14  -2 -13   -0.50   15.00
  14  -2 -13   18.00   10.60
 -14  -2  13    9.60   16.10
 -14  -2  13   11.80   11.10
  14   2 -13   46.60   22.60
 -14   2  13   12.00   11.10
 -14   2  13   20.10   14.80
  14   2 -13    5.50    9.90
 -12  -2  13  168.88   21.10
  12  -2 -13  163.48   19.00
  12  -2 -13  178.28   29.30
 -12  -2  13  172.88   27.10
 -12   2  13  175.88   20.90
 -12   2  13  178.78   30.50
  12   2 -13  226.98   33.40
  12   2 -13  239.98   22.00
  10  -2 -13   21.90   15.70
 -10  -2  13   28.50   11.60
 -10  -2  13    6.50   13.40
  10  -2 -13    7.60    7.90
  10   2 -13    7.50    8.90
 -10   2  13    5.40   12.10
  10   2 -13   35.20   18.20
 -10   2  13   -4.60    9.10
   8  -2 -13  486.45   39.10
  -8  -2  13  403.26   29.40
  -8  -2  13  426.76   35.50
   8  -2 -13  472.05   27.30
   8   2 -13  439.56   29.30
  -8   2  13  417.76   27.70
  -8   2  13  468.55   38.10
   8   2 -13  436.36   38.40
   6  -2 -13  710.73   36.10
  -6  -2  13  760.92   45.30
   6   2 -13  727.33   39.70
   6   2 -13  795.82   48.80
  -6   2  13  708.43   48.10
  -6   2  13  699.23   36.90
  -4  -2  13  234.98   20.70
  -4  -2  13  142.39   19.60
   4  -2 -13  182.98   25.80
   4  -2 -13  200.48   14.80
   4   2 -13  190.08   18.60
  -4   2  13  189.28   26.10
   4   2 -13  173.48   22.30
  -4   2  13  178.58   15.10
   2  -2 -13  169.38   24.60
  -2  -2  13  175.78   18.80
  -2  -2  13  149.59   18.20
   2  -2 -13  171.98   13.10
   2   2 -13  162.48   17.40
  -2   2  13  172.48   14.10
   2   2 -13  183.08   20.10
   0  -2  13   27.10   10.60
   0  -2  13   26.50   13.00
   0  -2 -13   35.60   15.20
   0   2 -13   15.40    9.50
   0   2 -13   21.90    9.70
   0   2  13   17.80    6.70
   2  -2  13  573.84   35.80
  -2  -2 -13  654.73   43.40
  -2   2 -13  595.84   30.30
   2   2  13  582.84   29.00
  -4  -2 -13   43.70   24.60
   4  -2  13   32.50   12.30
  -4  -2 -13   39.90   18.10
   4   2  13   31.90    8.20
   6  -2  13   -0.90   11.40
  -6  -2 -13    1.30   19.00
   6   2  13    3.80    7.60
   6   2  13   -2.60    7.70
  -8  -2 -13   -5.70   22.10
   8  -2  13   -3.90   12.00
   8   2  13    6.10    9.80
   8   2  13   19.90   10.70
 -10  -2 -13  -19.70   20.40
  10  -2  13    2.40   14.70
  10  -2  13   -3.50   15.70
  10   2  13   17.00   13.50
 -12  -2 -13   33.70   25.80
  12  -2  13   17.10   18.20
  12  -2  13    4.30   15.80
  12   2  13   12.30   12.80
 -14  -2 -13   23.60   25.70
  14   2  13   14.20   14.60
 -14   2 -13    7.50    9.50
 -16   2 -13   22.60   11.70
  16   2  13   20.80   19.00
 -18  -2 -13   20.90   31.30
 -18   2 -13   11.70   13.40
  27  -3 -13   41.80   31.00
 -27  -3  13   89.69   26.70
 -27   3  13   52.59   25.00
  27   3 -13  -16.90   35.00
  25  -3 -13  -25.60   25.90
 -25  -3  13   -6.70   15.90
  25   3 -13   -4.00   32.70
 -25   3  13   -3.10   16.70
 -23  -3  13  102.19   26.80
  23  -3 -13  131.69   38.90
  23   3 -13  169.88   51.39
 -23   3  13  115.19   26.90
 -21  -3  13  282.97   32.40
  21  -3 -13  185.08   44.90
 -21   3  13  182.58   30.90
  21   3 -13  251.57   58.99
 -19  -3  13   23.20   16.80
  19  -3 -13   25.60   23.20
  19  -3 -13   18.10   15.50
 -19   3  13   52.09   23.90
 -19   3  13   35.30   17.50
  19   3 -13   36.90   25.30
 -17  -3  13  673.83   57.39
  17  -3 -13  713.33   59.19
 -17  -3  13  638.54   46.20
  17  -3 -13  581.04   43.30
  17   3 -13  582.24   63.49
 -17   3  13  748.13   48.30
  17   3 -13  703.73   45.40
 -17   3  13  723.93   57.49
 -15  -3  13   41.90   17.20
  15  -3 -13  109.29   31.00
  15  -3 -13   61.59   15.70
 -15  -3  13   85.49   27.20
  15   3 -13   62.09   16.50
  15   3 -13  110.39   33.20
 -15   3  13   80.09   26.00
 -15   3  13   57.29   16.60
  13  -3 -13  202.48   21.50
  13  -3 -13  237.68   32.40
 -13  -3  13  186.78   23.40
 -13  -3  13  209.18   31.10
  13   3 -13  248.98   23.50
  13   3 -13  264.57   39.90
 -13   3  13  232.28   31.40
 -13   3  13  211.78   23.70
  11  -3 -13 1649.83   79.19
  11  -3 -13 1826.42   95.09
 -11  -3  13 1792.32   93.49
 -11  -3  13 1732.93   83.19
  11   3 -13 1786.72   99.89
 -11   3  13 1742.93   93.79
  11   3 -13 1714.63   81.99
 -11   3  13 1749.72   80.99
  -9  -3  13  296.07   25.80
   9  -3 -13  324.77   34.00
  -9  -3  13  327.37   32.90
   9  -3 -13  289.17   22.40
  -9   3  13  302.07   32.90
  -9   3  13  356.76   24.70
   9   3 -13  305.57   25.30
   9   3 -13  322.57   37.40
   7  -3 -13 1422.76   66.39
   7  -3 -13 1494.65   81.79
  -7  -3  13 1474.65   77.59
  -7  -3  13 1540.05   72.99
   7   3 -13 1598.84   72.29
  -7   3  13 1568.04   68.09
  -7   3  13 1511.25   82.69
   7   3 -13 1580.74   83.99
  -5  -3  13  174.28   21.10
   5  -3 -13  207.78   15.40
   5  -3 -13  205.38   28.30
  -5  -3  13  215.38   23.30
   5   3 -13  220.48   20.80
  -5   3  13  223.38   16.90
   5   3 -13  239.88   27.30
  -5   3  13  228.08   28.40
  -3  -3  13  820.12   45.50
  -3  -3  13  789.32   44.40
   3  -3 -13  820.42   37.00
   3  -3 -13  824.02   53.19
   3   3 -13  867.91   49.50
  -3   3  13  858.71   37.70
   3   3 -13  866.01   45.30
   1  -3 -13  598.54   43.30
  -1  -3  13  548.95   31.10
  -1  -3  13  529.25   34.30
   1   3 -13  515.75   33.50
  -1   3  13  566.84   25.10
   1   3 -13  530.45   34.00
   1  -3  13    7.10    9.90
  -1  -3 -13   -8.40   12.50
   1  -3  13    9.00    6.70
  -1   3 -13   -4.10    7.90
   1   3  13   -5.70    4.10
  -3  -3 -13  165.08   30.50
  -3  -3 -13  111.79   31.80
   3  -3  13  201.58   21.40
   3   3  13  162.38   11.20
   3   3  13  162.88   11.20
  -5  -3 -13   63.49   29.40
   5  -3  13   41.80   14.80
   5   3  13   75.89    9.80
   5   3  13   53.79    8.70
  -7  -3 -13  173.88   40.30
   7  -3  13  225.98   25.50
   7   3  13  202.48   16.30
   7   3  13  185.08   16.60
  -9  -3 -13  184.68   42.70
   9  -3  13  234.18   29.00
   9   3  13  261.07   20.10
   9   3  13  193.38   20.00
  11  -3  13   -3.60   15.80
 -11  -3 -13  -24.50   22.00
  11  -3  13    9.40   17.20
  11   3  13   -6.00   11.30
 -13  -3 -13   44.70   39.10
  13  -3  13   54.79   21.90
  13   3  13   59.19   15.90
  15  -3  13    4.50   19.60
 -15  -3 -13   37.70   30.90
  15   3  13   17.30   16.00
 -26  -4  13    5.70   19.20
  26  -4 -13   23.70   32.80
  26   4 -13    6.90   36.30
 -26   4  13   25.60   22.70
 -24  -4  13  177.18   34.60
  24  -4 -13  143.79   41.50
 -24   4  13  141.09   32.70
  24   4 -13   92.99   45.40
  22  -4 -13   41.50   28.30
 -22  -4  13   12.60   16.60
  22   4 -13    2.10   29.60
 -22   4  13   18.00   17.30
 -20  -4  13  228.98   41.50
  20  -4 -13  282.87   49.50
  20   4 -13  330.47   61.59
 -20   4  13  290.07   49.30
  18  -4 -13   85.39   28.40
 -18  -4  13   83.29   20.60
  18  -4 -13   76.09   21.10
 -18   4  13   93.89   22.30
  18   4 -13  153.98   45.40
 -18   4  13   84.99   27.80
  18   4 -13  111.89   28.00
 -16  -4  13   45.80   21.80
  16  -4 -13  156.28   34.30
  16  -4 -13  127.39   25.20
 -16  -4  13  133.29   25.50
  16   4 -13   79.59   18.40
 -16   4  13  107.39   23.40
 -16   4  13   75.69   26.80
  16   4 -13  140.79   40.30
  14  -4 -13  260.77   36.30
  14  -4 -13  212.58   24.00
 -14  -4  13  236.88   35.10
 -14  -4  13  292.47   28.40
  14   4 -13  394.26   61.69
 -14   4  13  270.87   35.80
 -14   4  13  231.68   26.10
  14   4 -13  248.38   29.10
 -12  -4  13  169.48   32.10
 -12  -4  13  140.39   21.10
  12  -4 -13  128.89   27.30
  12  -4 -13  120.69   17.40
  12   4 -13  211.08   42.60
  12   4 -13  126.09   20.10
 -12   4  13  127.39   31.40
 -12   4  13  162.48   20.10
  10  -4 -13   17.00   16.10
  10  -4 -13    8.50    8.20
 -10  -4  13    3.20   14.30
 -10  -4  13   21.40   11.60
  10   4 -13   16.00   19.30
  10   4 -13   18.00   10.40
 -10   4  13   10.40   15.30
 -10   4  13   23.30   11.00
   8  -4 -13   67.29   20.80
  -8  -4  13   24.80   12.90
   8  -4 -13   50.49   10.50
  -8  -4  13   33.90   14.90
   8   4 -13   35.00   21.40
   8   4 -13    0.00    9.40
  -8   4  13   44.50   19.60
  -8   4  13    5.90    7.90
   6  -4 -13   47.90   19.20
   6  -4 -13   43.90    8.90
  -6  -4  13   44.70   17.00
  -6  -4  13   44.70   14.20
   6   4 -13   31.30   12.40
  -6   4  13   41.40    9.60
   6   4 -13   40.70   19.60
  -6   4  13   27.30   16.50
   4  -4 -13   -1.50   12.40
  -4  -4  13  -17.00    7.90
   4  -4 -13    9.90    5.80
  -4  -4  13   15.50   11.40
   4   4 -13   13.90   15.30
  -4   4  13    1.10    5.40
   4   4 -13    3.30    9.10
  -2  -4  13  414.86   30.80
   2  -4 -13  387.66   37.40
   2  -4 -13  425.36   18.70
  -2  -4  13  385.66   27.90
   2   4 -13  452.85   34.20
   2   4 -13  381.76   29.30
   0  -4  13   35.40   14.30
   0  -4  13   39.70    9.20
   0  -4 -13   44.50   18.20
   0   4 -13   22.20   13.10
   0   4 -13   72.09   16.40
  -2  -4 -13   17.20   18.50
   2  -4  13    8.80   10.70
  -2  -4 -13   27.80   28.20
   4  -4  13  128.99   20.70
  -4  -4 -13  144.79   39.50
   6  -4  13   14.10   14.60
  -6  -4 -13    7.80   30.70
   8  -4  13   11.50   15.00
  -8  -4 -13    1.80   26.10
   8   4  13    8.70    7.60
   8   4  13   -0.40    7.10
  10  -4  13   -7.90   16.50
  10   4  13   -0.10    9.00
  10   4  13    4.60    9.60
 -12  -4 -13   20.00   30.80
  12   4  13   -4.30   16.20
  14  -4  13   39.80   21.50
 -14  -4 -13   54.09   46.90
  14   4  13   28.30   14.00
  16  -4  13   44.10   24.80
  16   4  13   31.30   15.10
  25  -5 -13   20.50   28.30
 -25  -5  13   -4.70   17.40
  25   5 -13  -18.50   30.20
 -23  -5  13   65.99   22.50
  23  -5 -13   30.70   26.40
  23   5 -13  -10.60   32.40
 -21  -5  13   -2.40   13.00
  21  -5 -13   27.80   27.20
 -21   5  13  -18.20   13.10
  21   5 -13   37.90   36.70
  19  -5 -13    1.90   18.10
  19   5 -13  -22.70   23.50
 -19   5  13   24.80   17.00
 -17  -5  13   44.80   19.00
  17  -5 -13   25.80   14.00
  17  -5 -13   22.30   22.50
 -17   5  13   28.20   23.50
  17   5 -13  127.89   42.90
 -17   5  13   23.20   16.00
  15  -5 -13  461.65   47.70
 -15  -5  13  445.66   37.50
 -15  -5  13  373.86   45.80
  15  -5 -13  458.35   35.50
 -15   5  13  385.66   48.30
  15   5 -13  495.05   37.50
 -15   5  13  483.45   38.10
  15   5 -13  483.55   59.49
  13  -5 -13  463.05   34.60
  13  -5 -13  525.45   48.50
 -13  -5  13  479.05   37.50
 -13  -5  13  486.55   48.30
 -13   5  13  542.15   37.30
  13   5 -13  456.75   55.99
  13   5 -13  513.75   44.10
 -11  -5  13   56.49   22.60
  11  -5 -13   62.99   14.30
  11  -5 -13   83.19   24.20
 -11  -5  13  104.49   18.70
  11   5 -13   95.39   18.50
 -11   5  13   89.89   17.00
 -11   5  13   64.59   25.30
  11   5 -13   59.39   29.60
   9  -5 -13    8.80    8.60
  -9  -5  13   19.40   11.20
  -9  -5  13   -6.00   11.60
   9  -5 -13    4.70   14.30
  -9   5  13   16.60   10.60
   9   5 -13   11.00    9.70
  -9   5  13   -2.00   16.80
   9   5 -13   -3.20   18.40
   7  -5 -13 1038.60   66.99
  -7  -5  13 1026.30   62.79
  -7  -5  13 1144.09   57.89
   7  -5 -13 1039.20   48.80
   7   5 -13  945.41   54.49
   7   5 -13 1039.60   70.89
  -7   5  13 1001.70   67.99
   5  -5 -13   67.69   21.10
  -5  -5  13   90.09   20.10
  -5  -5  13   76.29   17.00
   5  -5 -13   83.99   10.90
   5   5 -13   65.19   23.00
   5   5 -13   56.59   14.20
   3  -5 -13  216.98   12.30
   3  -5 -13  200.58   30.10
  -3  -5  13  188.18   22.70
  -3  -5  13  199.88   23.60
   3   5 -13  242.48   23.70
   3   5 -13  233.98   30.30
  -1  -5  13  151.98   21.80
  -1  -5  13  159.78   18.50
   1  -5 -13  181.18   32.20
   1   5 -13  170.88   21.20
   1   5 -13  180.58   25.30
  -1  -5 -13    6.50   18.70
  -1  -5 -13    8.10   25.50
   1  -5  13   15.40    7.40
   1  -5  13   20.20   14.10
  -3  -5 -13   14.60   19.80
  -3  -5 -13   21.60   27.80
   3  -5  13   34.50   15.30
   5  -5  13  302.97   30.90
  -5  -5 -13  203.18   50.39
  -7  -5 -13  102.69   49.40
   7  -5  13  101.79   22.70
   9  -5  13  552.84   44.40
  -9  -5 -13  556.84   69.19
 -11  -5 -13  -22.80   28.40
  11  -5  13   14.20   18.80
  11   5  13    5.00    7.90
  13  -5  13   39.90   23.70
  13   5  13   41.60   12.70
  15  -5  13   63.09   25.50
  15   5  13   25.40   12.70
  24  -6 -13   19.90   24.50
 -24  -6  13   16.60   18.80
  24   6 -13   -9.80   31.20
  22  -6 -13   39.40   28.30
 -22  -6  13   29.30   17.60
  22   6 -13  176.38   57.09
  20  -6 -13   37.50   23.70
 -20  -6  13   44.80   19.30
  20   6 -13   -8.00   28.00
 -18  -6  13   61.19   27.00
  18  -6 -13   73.69   29.30
  18   6 -13   56.19   33.40
  16  -6 -13  438.16   47.90
  16  -6 -13  408.06   35.20
 -16  -6  13  356.36   35.80
 -16   6  13  504.45   76.19
  16   6 -13  378.46   58.99
 -14  -6  13   28.00   15.90
  14  -6 -13   49.60   24.10
  14  -6 -13   22.10   13.90
 -14  -6  13   17.00   19.10
 -14   6  13    8.80   23.40
  14   6 -13   11.90   26.40
  14   6 -13    7.30   13.00
 -12  -6  13  424.56   46.60
 -12  -6  13  416.16   35.80
  12  -6 -13  476.95   33.30
  12  -6 -13  420.36   46.20
  12   6 -13  432.46   34.60
  12   6 -13  448.86   57.69
 -12   6  13  459.95   50.19
  10  -6 -13   11.40    9.50
  10  -6 -13   20.50   19.00
 -10  -6  13   32.40   18.30
 -10  -6  13   11.20   12.70
  10   6 -13   17.90   23.40
   8  -6 -13    2.80   15.20
  -8  -6  13   29.40   13.60
  -8  -6  13    3.00   14.40
   8  -6 -13   -0.50    8.80
   8   6 -13   13.70   10.80
   8   6 -13   26.40   22.00
  -6  -6  13   71.19   17.40
  -6  -6  13   63.39   19.30
   6  -6 -13   37.00    9.70
   6  -6 -13   34.80   20.90
   6   6 -13   53.09   24.50
   6   6 -13   43.50   13.50
  -4  -6  13  -13.80    9.50
   4  -6 -13    9.50    5.70
   4  -6 -13   -8.70   14.60
  -4  -6  13    8.90   13.90
   4   6 -13   -9.00    9.20
   4   6 -13   13.80   20.60
   2  -6 -13   30.10   20.60
  -2  -6  13   -5.10   10.80
  -2  -6  13   17.50   13.00
   2   6 -13   12.80   19.20
   2   6 -13   38.70   14.50
   0  -6  13  152.08   19.30
   0  -6 -13  172.08   49.00
   0  -6 -13  151.78   34.70
   0  -6  13  182.58   24.90
  -2  -6 -13   42.40   23.90
   2  -6  13   49.00   17.00
   2  -6  13   72.79    9.80
  -2  -6 -13   96.49   63.99
   4  -6  13   -3.40   13.50
  -4  -6 -13    1.90   31.60
  -6  -6 -13   53.89   38.90
   6  -6  13    0.30   15.50
  -8  -6 -13  107.99   49.40
  10  -6  13   26.30   17.80
  12  -6  13   18.30   20.00
  14  -6  13   23.90   22.30
  14   6  13    5.70    9.30
  23  -7 -13    1.20   24.90
 -23  -7  13   15.30   18.40
  23   7 -13   20.60   40.60
  21  -7 -13   31.70   27.40
 -21  -7  13    9.40   16.50
  21   7 -13   50.09   49.30
  19  -7 -13   46.00   28.00
 -19  -7  13   41.20   19.70
  19   7 -13  -35.70   26.70
 -17  -7  13  266.97   32.80
  17   7 -13  220.48   57.69
  15  -7 -13  106.99   32.20
 -15  -7  13  143.19   27.20
  15  -7 -13  146.69   24.30
  15   7 -13  188.28   50.99
  13  -7 -13   -4.20   17.90
  13  -7 -13  -13.10   11.50
 -13  -7  13   -9.00   15.70
 -13  -7  13    6.30   13.70
 -13   7  13  -14.50   22.50
  13   7 -13   11.30   14.60
  13   7 -13   -0.60   29.00
  11  -7 -13  530.65   36.80
  11  -7 -13  581.94   53.79
 -11  -7  13  529.45   42.00
  11   7 -13  611.24   41.80
  11   7 -13  562.04   66.29
   9  -7 -13  254.47   38.30
  -9  -7  13  255.47   29.60
   9  -7 -13  231.28   22.60
  -9  -7  13  266.37   42.50
   9   7 -13  285.87   53.29
   9   7 -13  245.68   27.70
  -7  -7  13  206.38   34.00
   7  -7 -13  233.38   20.00
   7  -7 -13  249.58   37.80
  -7  -7  13  226.88   29.00
   7   7 -13  291.67   48.20
   7   7 -13  224.28   26.40
   5  -7 -13   49.80   26.40
  -5  -7  13   71.59   23.70
   5  -7 -13   78.69   11.60
  -5  -7  13   87.89   21.00
   5   7 -13   57.99   17.10
   5   7 -13   75.49   29.20
   3  -7 -13  111.89    9.90
  -3  -7  13  117.99   22.10
   3  -7 -13  121.99    9.80
  -3  -7  13   99.79   23.20
   3  -7 -13  106.19   31.00
   3   7 -13  153.68   36.00
   3   7 -13  104.59   20.50
   1  -7 -13   97.09   40.20
   1  -7 -13   44.30   24.10
  -1  -7  13  105.29   22.20
  -1  -7  13   74.79   19.60
   1   7 -13   70.19   25.70
   1  -7  13   12.30   14.90
  -1  -7 -13    6.50   23.40
  -1  -7 -13   28.00   30.80
   1  -7  13   30.70   12.60
   3  -7  13   99.39   21.60
  -3  -7 -13  119.79   50.29
  -3  -7 -13   20.70   24.50
   5  -7  13   -4.30   15.40
   7  -7  13  109.49   26.10
   9  -7  13   -4.20   16.80
  11  -7  13  -24.50   15.20
  13  -7  13    0.40   18.40
  22  -8 -13   -4.60   22.50
 -22  -8  13    6.50   17.90
  22   8 -13  -11.10   42.90
  20  -8 -13   10.50   24.00
 -20  -8  13   -6.40   15.40
  20   8 -13  -17.90   31.50
  18  -8 -13  114.29   36.40
 -18  -8  13   23.80   19.10
  18   8 -13  134.39   51.09
  16  -8 -13   21.00   22.20
 -16  -8  13   40.10   18.70
  16   8 -13   20.00   33.20
 -14  -8  13   35.10   28.20
  14  -8 -13   20.30   15.00
  14   8 -13   33.20   39.20
 -12  -8  13  160.08   38.30
 -12  -8  13  176.68   28.50
  12  -8 -13  119.89   21.40
  12  -8 -13  218.08   42.20
  12   8 -13  293.87   60.39
 -10  -8  13    1.30   20.10
  10  -8 -13   -6.60   10.00
 -10  -8  13   21.90   16.30
  10  -8 -13   -5.90   19.00
  10   8 -13  -36.10   21.30
  -8  -8  13   -5.20   12.90
   8  -8 -13    7.10    9.80
  -8  -8  13  -19.00   14.50
   8  -8 -13   25.20   24.90
   8   8 -13  -10.70   26.40
   8   8 -13    1.80   14.10
  -6  -8  13  168.88   27.20
   6  -8 -13  166.98   35.50
   6  -8 -13  108.49   15.60
  -6  -8  13   98.09   27.80
   6   8 -13   91.89   22.40
   6   8 -13  215.88   46.50
  -4  -8  13    2.10   13.60
   4  -8 -13    0.50    6.70
   4  -8 -13    0.60   18.30
   4  -8 -13    7.00    7.40
  -4  -8  13   -1.50   17.10
   4   8 -13   -6.10   12.30
   4   8 -13    5.80   25.10
   2  -8 -13    2.30   20.80
  -2  -8  13   30.70   16.80
  -2  -8  13   14.80   15.90
   2   8 -13   75.99   31.50
   0  -8 -13    3.80   24.20
   0  -8  13   36.90   16.70
   0  -8  13   -1.00   14.90
   2  -8  13   21.30   13.50
   2  -8  13   12.90   28.20
  -2  -8 -13   27.50   26.30
   4  -8  13  197.68   31.60
   6  -8  13   -3.30   15.20
   8  -8  13    2.60   18.30
  10  -8  13    6.70   20.60
  12  -8  13  -14.10   18.50
  21  -9 -13   55.59   33.10
 -21  -9  13   52.49   23.60
 -19  -9  13   -3.40   14.40
  19  -9 -13   -6.30   21.20
  19   9 -13    2.20   37.40
 -17  -9  13   81.59   23.30
  17  -9 -13   82.09   33.00
  17   9 -13   39.20   42.20
  15  -9 -13  -19.00   18.20
 -15  -9  13   28.40   18.50
  15   9 -13   -4.20   35.10
  13  -9 -13  -12.70   20.80
 -13  -9  13  -15.10   12.00
  13  -9 -13    2.30   11.80
  13   9 -13  -50.09   24.90
  11  -9 -13    8.30   12.40
  11  -9 -13   25.40   23.70
 -11  -9  13   23.00   17.60
  11   9 -13  -35.10   27.60
  -9  -9  13   48.20   28.50
   9  -9 -13   78.09   16.30
  -9  -9  13   25.20   23.50
   9  -9 -13   66.89   28.20
   9   9 -13   19.60   33.30
  -7  -9  13   18.70   21.60
   7  -9 -13    2.00   23.20
   7  -9 -13   13.20   10.80
   7   9 -13   17.60   30.70
   5  -9 -13   12.60    9.60
  -5  -9  13   -5.60   17.70
   5  -9 -13   23.60    9.20
   5  -9 -13   16.80   23.90
   5   9 -13   28.10   30.30
   3  -9 -13   12.00    7.00
  -3  -9  13   -8.00   15.10
   3  -9 -13    3.40    6.20
   3  -9 -13   19.40   22.90
  -3  -9  13   -3.20   18.30
   1  -9 -13  288.77   45.80
  -1  -9  13  266.47   34.90
  -1  -9  13  262.57   33.10
   1  -9  13   55.99   22.30
  -1  -9 -13   46.70   29.60
   3  -9  13   14.80   14.10
   3  -9  13    3.20   14.70
   3  -9  13   21.60   13.00
  -3  -9 -13   32.90   31.40
   5  -9  13   -8.70   16.60
   7  -9  13   28.40   20.20
   9  -9  13   47.10   25.00
  11  -9  13   -4.00   20.40
  18 -10 -13   26.80   25.70
 -18 -10  13   41.90   21.30
  18  10 -13   11.10   44.80
  16 -10 -13   25.50   26.80
 -16 -10  13   11.10   17.80
  16  10 -13  -33.40   36.20
  14 -10 -13    8.60   24.10
 -14 -10  13   -7.50   15.00
  14  10 -13   -0.40   31.10
  12 -10 -13   10.00   23.80
 -12 -10  13   13.10   15.80
  12 -10 -13    0.10   11.90
  12  10 -13   41.10   43.60
 -10 -10  13   57.29   21.00
  10 -10 -13   14.10   12.30
  10 -10 -13   40.70   28.60
  10  10 -13  -24.10   28.90
  -8 -10  13   14.10   16.40
   8 -10 -13   23.50   12.30
   8 -10 -13   15.30   25.40
   8 -10 -13   22.20   13.70
  -8 -10  13   20.40   25.10
   8  10 -13    3.00   34.60
   6 -10 -13   79.29   32.40
  -6 -10  13   15.50   23.90
   6 -10 -13   17.80   11.00
  -6 -10  13   40.40   19.10
   6 -10 -13   35.50   15.50
   6  10 -13   32.60   36.60
  -4 -10  13   21.10   17.90
   4 -10 -13   18.30    9.50
   4 -10 -13  -16.50   21.00
  -4 -10  13   29.40   22.80
   4 -10 -13   28.20    9.80
   2 -10 -13  286.47   53.59
  -2 -10  13  282.17   41.30
  -2 -10  13  291.17   35.30
   0 -10 -13   17.10   31.80
   0 -10  13   63.89   23.50
   0 -10  13   87.19   23.70
  -2 -10 -13   22.20   25.00
   2 -10  13   45.60   25.40
   2 -10  13   47.60   20.30
   2 -10  13   27.00   17.10
  -4 -10 -13    5.20   32.10
   4 -10  13   59.09   17.40
   4 -10  13   46.10   23.60
   4 -10  13   43.90   14.90
   6 -10  13   36.90   23.00
   8 -10  13   11.50   19.20
  15 -11 -13   40.70   29.30
 -15 -11  13   40.40   21.00
  15  11 -13   41.00   55.39
  13 -11 -13   50.09   31.50
 -13 -11  13  -17.80   13.20
  13  11 -13   42.80   44.50
 -11 -11  13   -4.10   15.10
  11 -11 -13  -30.60   17.90
  11 -11 -13   13.60   15.10
  11 -11 -13   15.00   13.40
  11  11 -13  -11.20   36.30
   9 -11 -13    4.10   11.90
   9 -11 -13   11.10   13.90
  -9 -11  13    6.80   16.50
   9 -11 -13  -46.40   19.60
   9  11 -13    0.50   36.30
   7 -11 -13   34.70   13.40
  -7 -11  13   66.89   21.40
   7 -11 -13   41.20   28.50
   7 -11 -13   32.60   13.90
   7  11 -13   74.99   43.90
  -5 -11  13   18.90   17.10
   5 -11 -13   13.10   29.10
  -5 -11  13   47.00   26.50
   5 -11 -13   -9.80    8.70
   5 -11 -13    7.00   10.20
   3 -11 -13  -18.50   24.60
   3 -11 -13   -1.00    7.60
  -3 -11  13   38.10   20.30
   3 -11 -13   11.80    8.60
   1 -11 -13  -13.10   24.60
  -1 -11  13   29.80   23.90
  -1 -11  13   -2.10   17.70
   1 -11  13   36.00   23.10
  -1 -11 -13  -11.70   23.00
   1 -11  13   -3.40   15.80
   1 -11  13   -6.20   17.10
  -3 -11 -13   31.60   33.60
   3 -11  13    3.90   18.30
   3 -11  13   56.59   24.00
   3 -11  13   49.40   21.30
   5 -11  13   32.70   22.40
  -5 -11 -13   -6.90   26.50
   5 -11  13    5.50   14.40
   5 -11  13    7.10   12.40
 -10 -12  13   -8.70   16.40
  10 -12 -13   27.70   15.40
  10 -12 -13   -8.80   13.40
  10 -12 -13   41.10   30.10
  10  12 -13   -6.40   44.90
  -8 -12  13   21.50   21.10
   8 -12 -13    7.20   12.90
   8 -12 -13   21.30   28.30
   8 -12 -13   12.30   12.70
   6 -12 -13   69.19   16.20
  -6 -12  13   57.39   22.30
   6 -12 -13   71.29   34.80
   6 -12 -13   70.09   17.00
  -4 -12  13   14.00   19.70
   4 -12 -13   12.10    9.70
   4 -12 -13   27.30   30.20
  -2 -12  13    3.40   17.20
  -2 -12  13   40.40   29.60
   2 -12 -13   11.30   28.40
   0 -12  13   66.29   29.70
   0 -12  13   -3.70   17.60
   0 -12 -13   57.89   36.80
   2 -12  13   24.60   25.10
   2 -12  13   25.70   24.40
   2 -12  13   -9.60   16.20
  -2 -12 -13   50.29   35.10
 -28   0  14   24.00   21.10
  28   0 -14   67.39   40.30
  26   0 -14   31.10   32.70
 -26   0  14   45.00   22.30
  24   0 -14   85.89   41.20
 -24   0  14  186.98   33.90
  22   0 -14    6.00   26.30
 -22   0  14   39.70   19.10
 -20   0  14  198.18   31.10
  20   0 -14  178.08   43.40
 -18   0  14   36.60   19.30
  18   0 -14   44.10   23.50
  18   0 -14   41.20   16.20
 -18   0  14   28.80   17.20
  16   0 -14  135.39   20.80
  16   0 -14  120.09   32.20
 -16   0  14  107.49   27.60
 -16   0  14  128.19   23.70
 -14   0  14    8.60   13.50
 -14   0  14   52.89   15.50
  14   0 -14   13.30   17.30
  14   0 -14   76.89   16.90
 -12   0  14  137.69   25.40
  12   0 -14  113.79   16.80
 -12   0  14  128.79   19.10
  12   0 -14  120.79   27.90
 -10   0  14  949.90   49.70
  10   0 -14  933.31   48.50
  10   0 -14  979.40   61.09
 -10   0  14  880.51   56.99
  -8   0  14  169.78   24.50
   8   0 -14  224.38   19.10
  -8   0  14  194.48   19.70
  -6   0  14   11.30    9.20
  -6   0  14    8.10   11.90
   6   0 -14   20.90   14.00
   4   0 -14  730.63   37.90
  -4   0  14  781.92   46.00
  -4   0  14  721.13   38.40
   4   0 -14  720.63   45.10
  -2   0  14  181.08   17.80
  -2   0  14  174.68   22.90
   2   0 -14  207.48   17.20
   2   0 -14  235.18   23.80
   0   0 -14 1494.85   71.99
   0   0  14 1521.45   66.99
   0   0 -14 1466.25   66.39
   2   0  14  911.51   45.20
  -2   0 -14  911.41   49.30
   4   0  14   52.39   12.20
  -4   0 -14   80.59   16.30
  -4   0 -14   68.49   22.60
  -6   0 -14  643.24   40.50
   6   0  14  799.42   54.59
  -6   0 -14  574.64   46.70
   8   0  14   29.30   13.90
  -8   0 -14   29.90   16.40
  -8   0 -14   -2.60   16.70
   8   0  14   18.90   13.00
  10   0  14  211.58   25.90
 -10   0 -14  200.18   28.30
  10   0  14  211.88   26.50
 -12   0 -14   27.00   20.20
  12   0  14    8.10   15.20
  12   0  14   56.69   18.30
  14   0  14    8.10   17.50
 -14   0 -14   27.60   19.50
 -16   0 -14   37.80   21.30
 -18   0 -14   16.60   20.20
 -27  -1  14  -16.10   16.80
  27  -1 -14   -6.00   26.50
  27   1 -14    2.20   31.20
 -27   1  14   -0.10   15.80
 -25  -1  14   44.70   19.40
  25  -1 -14   18.10   29.50
  25   1 -14  -12.50   27.30
 -25   1  14   21.90   19.30
  23  -1 -14   -6.20   22.00
 -23  -1  14   34.90   19.10
  23   1 -14   46.10   32.00
 -23   1  14   -8.60   13.40
  21  -1 -14   75.59   33.20
 -21  -1  14   17.60   19.30
  19  -1 -14   50.89   29.30
  19  -1 -14   60.09   18.50
 -19  -1  14   75.79   21.70
 -19  -1  14   58.79   25.30
  19   1 -14   25.30   14.80
 -19   1  14   33.80   23.00
 -19   1  14  108.19   23.40
  19   1 -14   84.69   32.80
 -17  -1  14   12.40   16.60
  17  -1 -14    2.20   10.60
 -17  -1  14   16.30   13.60
  17  -1 -14   11.40   18.60
 -17   1  14  -15.60   12.20
  17   1 -14   11.30   19.10
  17   1 -14  -17.30    8.10
 -17   1  14    5.00   11.00
  15  -1 -14  163.98   34.60
  15  -1 -14  158.78   20.90
 -15  -1  14  147.99   23.60
 -15  -1  14  198.58   30.90
 -15   1  14  176.48   23.20
  15   1 -14  213.28   39.20
  15   1 -14  158.78   20.40
 -15   1  14  219.68   31.10
  13  -1 -14   -7.70   12.60
  13  -1 -14  -16.90    7.70
 -13  -1  14   -5.40    9.70
 -13  -1  14   -0.90   12.10
  13   1 -14    0.80   16.30
 -13   1  14   18.10   15.30
 -13   1  14    7.90   11.40
  13   1 -14    6.20    9.20
 -11  -1  14    1.80   11.50
 -11  -1  14   -4.40    8.90
  11  -1 -14   -9.50    6.80
  11  -1 -14   30.20   18.60
  11   1 -14    1.90   15.20
 -11   1  14   19.10   15.30
 -11   1  14   11.50    9.70
  11   1 -14    5.40    8.70
   9  -1 -14  175.68   18.00
  -9  -1  14  201.58   20.60
  -9  -1  14  256.47   27.50
   9  -1 -14  193.48   27.80
  -9   1  14  173.38   19.20
   9   1 -14  168.38   18.60
   9   1 -14  171.98   27.80
  -9   1  14  185.28   25.90
  -7  -1  14  209.28   24.40
  -7  -1  14  230.48   21.60
   7  -1 -14  265.67   44.00
   7  -1 -14  230.68   18.70
  -7   1  14  224.28   19.80
  -7   1  14  198.98   26.70
   7   1 -14  234.28   20.30
   7   1 -14  260.47   28.70
  -5  -1  14  290.17   23.60
   5  -1 -14  289.97   20.40
  -5  -1  14  317.37   27.20
   5  -1 -14  300.37   29.90
   5   1 -14  243.28   27.30
   5   1 -14  285.17   22.10
  -5   1  14  351.56   30.80
  -5   1  14  336.97   22.10
  -3  -1  14   26.20   10.60
   3  -1 -14   47.50    9.20
  -3  -1  14    8.60   11.40
   3  -1 -14    8.90   12.00
  -3   1  14    3.20   14.00
  -3   1  14   29.40    9.30
   3   1 -14   19.60    8.90
   3   1 -14   35.90   14.30
   1  -1 -14    3.50    6.30
  -1  -1  14    9.70   10.90
   1  -1 -14   -1.30   12.10
  -1  -1  14   -3.80    8.50
  -1   1  14    9.60    7.30
   1   1 -14   -4.90    9.80
   1   1 -14   -5.10    7.20
   1  -1  14  200.68   19.80
  -1  -1 -14  166.88   23.30
   1   1  14  196.28   16.60
  -1   1 -14  202.28   19.40
  -3  -1 -14   26.30   13.50
  -3  -1 -14   61.09   24.00
  -3   1 -14   37.50   11.30
  -3   1 -14   28.00   15.20
   3   1  14   32.50    9.40
   5  -1  14   23.30   12.10
  -5  -1 -14   10.30   14.00
   5   1  14   33.00    9.90
  -5   1 -14    6.80   10.10
  -5   1 -14    5.90   13.90
  -7  -1 -14   -8.40   15.00
  -7  -1 -14  -18.60   18.90
   7  -1  14   19.30   12.80
   7   1  14   20.50   11.60
  -7   1 -14   -3.70    9.20
  -7   1 -14    1.20   13.10
   7   1  14    3.40    9.20
  -9  -1 -14  101.89   29.20
   9  -1  14  110.39   21.50
   9  -1  14  111.69   21.80
  -9   1 -14   98.89   18.90
   9   1  14  187.88   22.00
  -9   1 -14  155.48   19.70
   9   1  14  115.39   19.80
 -11  -1 -14   -0.90   19.90
  11  -1  14   -5.60   15.60
  11  -1  14   -0.50   13.90
 -11   1 -14   18.40   13.30
 -11   1 -14    1.40   11.80
  11   1  14    4.80   13.90
  11   1  14   -0.30   13.20
  13  -1  14   29.20   18.60
  13  -1  14   27.20   18.20
 -13  -1 -14    9.40   23.90
  13   1  14   14.60   15.70
 -13   1 -14   31.90   15.90
 -13   1 -14  -20.80   14.40
 -15  -1 -14   -0.40   21.40
  15   1  14    6.70   15.90
 -15   1 -14   39.90   17.00
 -17  -1 -14    0.90   24.70
  26  -2 -14  140.89   43.90
 -26  -2  14  132.69   30.10
 -26   2  14  140.59   32.90
  26   2 -14  218.48   60.49
  24  -2 -14  124.39   40.00
 -24  -2  14  111.79   25.80
 -24   2  14  101.49   25.10
  24   2 -14   80.29   35.70
  22  -2 -14   50.49   31.70
 -22  -2  14    9.00   16.50
  22   2 -14    6.20   24.40
 -22   2  14   11.80   15.00
  20  -2 -14  299.07   47.30
 -20  -2  14  380.06   36.50
  20   2 -14  308.17   50.89
 -20   2  14  349.57   35.80
 -18  -2  14    2.30   15.70
  18  -2 -14   19.50   12.90
 -18  -2  14   30.20   17.50
  18  -2 -14   26.30   24.70
  18   2 -14   46.60   18.00
 -18   2  14   27.80   19.80
  18   2 -14   34.50   25.50
 -18   2  14   -9.50   13.40
  16  -2 -14  144.19   22.70
 -16  -2  14  188.38   42.60
 -16  -2  14  143.59   24.30
  16  -2 -14  129.39   30.00
  16   2 -14  155.08   29.20
  16   2 -14  159.68   38.00
 -16   2  14  160.08   25.20
  14  -2 -14  872.71   62.69
 -14  -2  14  775.62   58.69
 -14  -2  14  959.40   52.79
  14  -2 -14  892.21   49.10
  14   2 -14  887.01   67.39
  14   2 -14  843.72   49.60
 -14   2  14  816.82   58.59
 -14   2  14  829.62   49.60
 -12  -2  14  -13.00    8.50
  12  -2 -14    4.80    8.50
  12  -2 -14  -11.50   10.50
 -12  -2  14    3.00   12.70
 -12   2  14    2.70    9.70
  12   2 -14  -17.20    7.30
 -12   2  14   -7.60   11.20
  12   2 -14   12.70   18.20
 -10  -2  14  149.19   27.80
  10  -2 -14  152.68   30.50
  10  -2 -14  117.29   15.70
 -10  -2  14  163.08   20.50
 -10   2  14  109.59   25.20
  10   2 -14  209.88   34.60
  10   2 -14  132.69   19.30
 -10   2  14  148.19   21.60
   8  -2 -14 1361.96   68.59
  -8  -2  14 1481.55   69.69
  -8  -2  14 1442.86   75.79
   8  -2 -14 1402.06   78.49
   8   2 -14 1520.85   80.99
  -8   2  14 1485.45   66.59
  -8   2  14 1507.45   79.89
   8   2 -14 1389.06   68.19
   6  -2 -14   14.40   14.70
   6  -2 -14   -0.80    6.60
  -6  -2  14    0.60    9.30
   6   2 -14    2.80    7.90
   6   2 -14   -6.60   12.00
  -6   2  14    3.70    7.90
  -6   2  14    8.60   13.40
   4  -2 -14  683.63   33.40
  -4  -2  14  653.63   40.50
  -4  -2  14  703.73   43.70
   4   2 -14  636.84   37.60
  -4   2  14  655.73   47.10
   4   2 -14  725.93   44.10
  -4   2  14  692.43   34.10
  -2  -2  14   25.40   13.60
   2  -2 -14   17.60   14.40
  -2  -2  14   12.20   11.00
   2  -2 -14   30.60    7.30
   2   2 -14   32.10   10.00
  -2   2  14   19.40    7.10
   2   2 -14    6.30   10.70
   0  -2  14  422.86   28.50
   0  -2 -14  457.25   36.90
   0  -2  14  481.35   31.20
   0   2 -14  436.56   29.70
   0   2 -14  483.65   29.20
   0   2  14  462.55   24.30
   2  -2  14  783.92   43.80
  -2  -2 -14  769.42   50.89
   2   2  14  808.02   36.90
  -2   2 -14  783.92   38.50
  -4  -2 -14  -17.50   16.80
   4  -2  14  -19.00    9.20
   4   2  14   10.10    7.90
  -4   2 -14   17.10    6.00
  -4   2 -14    2.90    7.40
  -6  -2 -14  325.97   44.80
   6  -2  14  347.97   28.80
  -6  -2 -14  281.77   34.10
   6   2  14  277.87   22.10
   6   2  14  320.27   21.70
  -8  -2 -14   -2.90   22.00
   8  -2  14   12.30   13.60
   8   2  14  -15.40    8.60
 -10  -2 -14   96.69   33.30
  10  -2  14  103.59   23.70
  10  -2  14  187.08   27.00
  10   2  14  136.69   20.60
  12  -2  14   24.60   19.80
  12  -2  14  -19.60   16.60
 -12  -2 -14    8.30   26.30
  12   2  14   18.90   13.60
 -14  -2 -14   14.90   27.80
  14  -2  14   40.40   21.60
  14   2  14   -3.30   15.50
  16  -2  14   18.90   21.20
 -16  -2 -14   41.30   37.00
  16   2  14    6.20   17.90
 -27  -3  14   26.70   20.10
  27  -3 -14   28.70   33.20
 -27   3  14   -0.50   17.00
  27   3 -14   43.80   40.10
  25  -3 -14   23.70   30.00
 -25  -3  14  -20.20   13.40
 -25   3  14  -17.20   13.90
  25   3 -14   31.80   35.90
  23  -3 -14   16.70   26.80
 -23  -3  14   43.50   21.80
 -23   3  14   -2.70   15.90
  23   3 -14  -44.70   21.60
 -21  -3  14   33.70   17.80
  21  -3 -14   -8.90   28.00
 -21   3  14   19.10   17.00
  21   3 -14   29.90   30.40
 -19  -3  14   10.10   13.30
  19  -3 -14   15.30   21.10
  19  -3 -14  -13.00   12.40
  19   3 -14  -17.20   24.10
 -19   3  14   -3.20   14.00
 -17  -3  14  178.38   28.30
 -17  -3  14  185.98   39.40
  17  -3 -14  159.28   24.80
  17  -3 -14  135.89   34.20
  17   3 -14   87.69   34.40
 -17   3  14  238.58   43.30
  17   3 -14  109.49   20.80
 -17   3  14  146.89   25.40
  15  -3 -14  171.88   34.70
 -15  -3  14  171.18   25.90
 -15  -3  14  151.98   38.50
  15  -3 -14  145.89   20.90
 -15   3  14  138.29   23.40
  15   3 -14  215.08   42.70
 -13  -3  14   41.30   14.20
  13  -3 -14   18.90   10.80
  13  -3 -14   14.40   16.80
 -13  -3  14   39.90   19.20
 -13   3  14   40.30   13.90
  13   3 -14   59.09   16.30
 -13   3  14    7.10   16.40
  13   3 -14   15.40   20.50
 -11  -3  14  402.76   31.70
  11  -3 -14  451.75   29.50
  11  -3 -14  459.35   41.70
 -11  -3  14  446.66   40.10
  11   3 -14  449.26   45.50
  11   3 -14  392.86   30.70
 -11   3  14  448.36   41.10
 -11   3  14  443.26   31.00
  -9  -3  14  470.65   32.40
   9  -3 -14  466.95   41.00
   9  -3 -14  416.76   27.10
  -9  -3  14  412.56   37.00
  -9   3  14  433.66   28.70
   9   3 -14  511.65   44.70
   9   3 -14  429.76   30.70
  -9   3  14  398.76   38.60
  -7  -3  14  371.36   28.30
  -7  -3  14  245.98   28.00
   7  -3 -14  304.17   20.70
   7  -3 -14  345.67   34.80
   7   3 -14  312.57   24.90
  -7   3  14  301.17   21.80
   7   3 -14  317.37   33.90
  -7   3  14  285.47   33.40
   5  -3 -14  224.88   29.50
   5  -3 -14  236.58   16.50
  -5  -3  14  242.18   24.30
  -5  -3  14  254.27   23.70
   5   3 -14  265.07   29.10
  -5   3  14  206.68   28.50
   5   3 -14  228.78   21.60
  -5   3  14  231.88   17.40
   3  -3 -14   26.20   16.10
   3  -3 -14   22.20    6.30
  -3  -3  14   19.30   10.60
  -3  -3  14   -5.20    8.40
   3   3 -14   14.80   10.30
   3   3 -14    7.20   12.40
  -3   3  14   11.10    6.20
   1  -3 -14  378.26   34.90
  -1  -3  14  325.87   23.40
  -1  -3  14  343.17   27.20
   1   3 -14  336.77   26.10
  -1   3  14  326.47   17.50
   1   3 -14  303.77   25.10
   1  -3  14  311.17   26.60
  -1  -3 -14  315.67   33.90
   1   3  14  309.87   16.00
  -1   3 -14  300.47   21.30
   3  -3  14  228.58   24.10
  -3  -3 -14  177.38   40.20
  -3  -3 -14  234.18   32.40
   3   3  14  226.58   13.60
   3   3  14  199.28   13.40
   5  -3  14   68.59   17.30
  -5  -3 -14  102.99   33.10
  -5  -3 -14  103.79   27.00
   5   3  14  109.09   11.30
   5   3  14   75.79   11.50
   7  -3  14   25.10   14.40
  -7  -3 -14   40.70   26.40
   7   3  14   18.20    8.70
   7   3  14   18.30    9.60
  -9  -3 -14   25.70   26.20
   9  -3  14   15.20   16.00
   9   3  14   23.10   10.70
   9   3  14    2.50    9.60
  11  -3  14   -0.10   18.00
  11  -3  14  -16.30   14.50
 -11  -3 -14  -14.80   25.30
  11   3  14  -10.40   10.90
  11   3  14   -3.30   11.40
 -13  -3 -14   59.29   38.80
  13  -3  14   26.30   31.70
  13   3  14   14.50   13.60
  15  -3  14   12.50   19.60
 -15  -3 -14    1.10   29.40
  15   3  14   -2.50   13.90
  17  -3  14   11.80   22.60
  17   3  14    0.20   20.00
 -26  -4  14   76.69   25.60
  26  -4 -14   55.89   37.50
 -26   4  14   57.09   25.70
  26   4 -14  101.49   54.29
 -24  -4  14  143.49   32.50
  24  -4 -14  136.69   38.80
 -24   4  14   49.50   21.30
  24   4 -14  120.29   49.40
 -22  -4  14   16.80   17.40
  22  -4 -14    0.80   20.70
  22   4 -14   45.70   35.70
 -22   4  14   22.20   19.40
  20  -4 -14  204.58   54.49
 -20  -4  14  204.68   30.20
  20   4 -14  391.26   61.49
 -20   4  14  321.87   59.29
  18  -4 -14  -27.10   16.30
  18  -4 -14   13.50   14.40
 -18  -4  14   37.50   18.50
  18   4 -14   43.30   31.60
 -18   4  14   25.30   15.10
 -18   4  14   -9.10   21.60
  16  -4 -14   -7.10   19.60
  16  -4 -14  -24.00    9.70
 -16  -4  14   -7.80   13.80
 -16  -4  14   18.40   18.40
 -16   4  14   -6.00   14.20
  16   4 -14   25.50   27.20
 -16   4  14  -18.60   13.70
  16   4 -14    6.70   12.10
  14  -4 -14  331.27   39.50
  14  -4 -14  322.57   27.90
 -14  -4  14  332.27   31.20
 -14  -4  14  265.97   37.00
  14   4 -14  321.17   53.99
 -14   4  14  322.67   29.20
  14   4 -14  275.07   28.80
  12  -4 -14   80.39   25.60
 -12  -4  14   55.89   22.50
 -12  -4  14   62.59   16.60
  12  -4 -14   47.30   13.80
 -12   4  14   73.69   25.50
 -12   4  14   86.49   16.70
  12   4 -14   67.09   29.80
  12   4 -14   72.99   16.40
  10  -4 -14  358.96   39.10
 -10  -4  14  396.36   38.00
  10  -4 -14  410.86   27.30
 -10  -4  14  382.46   31.30
 -10   4  14  414.96   29.40
 -10   4  14  381.76   40.40
  10   4 -14  394.16   43.70
  10   4 -14  437.06   31.10
   8  -4 -14  195.68   29.70
  -8  -4  14  252.67   28.40
   8  -4 -14  223.18   17.70
  -8  -4  14  170.08   22.20
   8   4 -14  208.48   32.20
  -8   4  14  166.88   18.30
  -8   4  14  192.88   35.60
   8   4 -14  240.28   22.60
   6  -4 -14   37.60   20.40
  -6  -4  14   34.20   14.20
  -6  -4  14    8.40   12.40
   6  -4 -14   15.70    6.80
   6   4 -14   30.50   17.60
  -6   4  14   30.30   18.70
   6   4 -14    5.10    9.70
  -6   4  14   32.40    9.10
  -4  -4  14 1085.09   56.69
  -4  -4  14 1021.00   56.29
   4  -4 -14 1085.19   46.00
   4  -4 -14 1095.49   66.79
   4   4 -14 1058.79   62.79
   4   4 -14 1055.69   55.59
  -4   4  14 1031.20   46.40
   2  -4 -14   20.80    4.60
  -2  -4  14   37.00   11.70
  -2  -4  14   15.10   11.50
   2  -4 -14   20.00   15.90
   2   4 -14   48.00   13.00
   2   4 -14   26.70   13.80
   0  -4  14  669.23   33.90
   0  -4 -14  650.53   50.39
   0  -4  14  661.43   41.80
   0   4 -14  633.14   38.40
   2  -4  14   28.40   12.90
  -2  -4 -14   -9.80   15.50
  -2  -4 -14    1.10   23.70
   4  -4  14   93.99   19.30
  -4  -4 -14   64.19   31.00
  -4  -4 -14   81.59   25.60
   6  -4  14   67.89   18.30
  -6  -4 -14  105.79   41.00
  -8  -4 -14   -7.20   24.20
   8  -4  14    2.50   14.90
   8   4  14    0.80    6.60
   8   4  14   -2.90    6.90
 -10  -4 -14   25.40   32.90
  10  -4  14   37.50   18.90
  10   4  14    9.60    9.40
  10   4  14   18.60    9.40
  12  -4  14   26.40   19.20
 -12  -4 -14   53.19   37.20
  12   4  14   66.29   14.40
  14  -4  14   64.49   25.40
  14   4  14   58.29   16.20
  16  -4  14   36.60   24.90
  16   4  14   58.59   18.30
 -25  -5  14   37.00   21.30
  25  -5 -14   18.20   25.30
  25   5 -14   41.80   44.60
  23  -5 -14  -18.20   21.20
 -23  -5  14   20.40   17.30
 -23   5  14   -5.70   16.20
  23   5 -14   12.10   32.90
 -21  -5  14   75.49   22.90
  21  -5 -14   86.09   35.10
 -21   5  14   37.10   21.10
  21   5 -14    5.90   29.90
  19  -5 -14   71.19   45.90
 -19  -5  14   20.20   16.80
  19   5 -14   30.20   32.70
 -19   5  14   18.50   16.90
  17  -5 -14   40.10   25.50
  17  -5 -14  -12.60   10.70
 -17  -5  14   25.30   16.70
 -17   5  14  -17.50   12.30
  17   5 -14    7.50   27.40
  15  -5 -14   45.20   15.20
  15  -5 -14   33.70   21.20
 -15  -5  14   15.30   20.00
 -15  -5  14   45.80   17.40
 -15   5  14   15.30   23.40
  15   5 -14   37.30   28.80
  15   5 -14   23.50   15.40
 -15   5  14    1.90   14.00
 -13  -5  14   38.50   19.40
  13  -5 -14   43.20   15.40
 -13  -5  14   57.59   17.00
  13  -5 -14   65.99   26.10
 -13   5  14   43.50   23.50
  13   5 -14   31.40   28.50
 -13   5  14   53.09   17.20
  13   5 -14   10.40   12.70
  11  -5 -14  526.05   34.20
 -11  -5  14  484.85   46.00
 -11  -5  14  555.74   39.00
  11  -5 -14  520.15   48.00
 -11   5  14  535.55   35.50
  11   5 -14  607.04   58.49
  11   5 -14  539.05   41.40
 -11   5  14  555.44   54.09
   9  -5 -14    8.40    8.60
  -9  -5  14    9.50   16.30
  -9  -5  14   27.80   12.50
   9  -5 -14   20.00   17.30
  -9   5  14   12.30   10.40
   9   5 -14   14.10   19.10
   9   5 -14   11.90   10.50
  -9   5  14   47.10   20.40
   7  -5 -14   10.10    8.00
   7  -5 -14   38.40   21.00
  -7  -5  14    1.70   11.90
  -7  -5  14   27.40   16.60
  -7   5  14   17.10    9.20
  -7   5  14   -0.40   16.50
   7   5 -14   23.10   18.70
   7   5 -14   17.20   11.20
   5  -5 -14   91.49   10.80
  -5  -5  14   88.59   19.50
  -5  -5  14  128.39   21.20
   5  -5 -14   60.09   21.30
   5   5 -14  129.09   27.80
   5   5 -14  101.79   18.00
  -3  -5  14  148.29   23.30
  -3  -5  14  133.89   21.40
   3  -5 -14  208.58   35.20
   3  -5 -14  134.89    9.20
   3   5 -14  135.69   27.60
   3   5 -14  152.18   21.30
  -1  -5  14   63.79   13.60
   1  -5 -14   52.09   20.90
  -1  -5  14   75.49   18.20
   1   5 -14   62.29   18.40
   1   5 -14   73.99   16.30
  -1  -5 -14  214.68   50.29
   1  -5  14  272.97   17.10
   1  -5  14  241.28   27.70
  -1  -5 -14  226.38   36.10
  -3  -5 -14   46.70   25.70
   3  -5  14   55.49   18.50
  -3  -5 -14   60.59   34.10
  -5  -5 -14   25.30   35.50
   5  -5  14   18.50   15.80
  -7  -5 -14   14.30   30.80
   7  -5  14  -23.20   14.00
   9  -5  14   38.80   23.80
  -9  -5 -14   55.59   35.70
  11  -5  14   10.60   15.90
  11   5  14   -1.20    7.70
  11   5  14   19.70    9.00
  13  -5  14   31.20   21.00
  13   5  14   32.80   11.90
  13   5  14   16.40   10.80
  15  -5  14  -12.40   19.20
  15   5  14  -20.70   10.60
 -24  -6  14  103.79   27.80
  24  -6 -14   98.79   38.50
  24   6 -14  112.19   50.89
  22  -6 -14    5.70   25.40
 -22  -6  14   18.40   19.40
  22   6 -14   17.90   34.20
  20  -6 -14   12.50   22.50
 -20  -6  14  -14.70   13.30
  20   6 -14   19.20   31.40
  18  -6 -14  -16.50   38.10
 -18  -6  14    8.40   14.50
  18   6 -14  -46.70   25.90
  16  -6 -14   26.10   14.20
 -16  -6  14   -6.90   13.10
  16  -6 -14    9.60   18.20
  16   6 -14   -6.90   25.90
  14  -6 -14   14.00   19.00
 -14  -6  14   14.60   16.10
 -14  -6  14    7.00   18.70
  14  -6 -14   11.80   12.90
  14   6 -14   19.40   15.60
 -14   6  14   -1.60   22.70
  14   6 -14   -6.50   24.20
  12  -6 -14  187.58   36.80
  12  -6 -14  151.98   20.90
 -12  -6  14  219.08   45.70
 -12  -6  14  154.18   25.70
 -12   6  14  224.58   41.40
  12   6 -14  181.68   26.70
  12   6 -14  178.48   42.10
 -10  -6  14  226.88   38.70
 -10  -6  14  269.47   28.80
  10  -6 -14  263.87   22.60
  10  -6 -14  242.78   40.90
  10   6 -14  227.88   26.20
  10   6 -14  291.87   45.70
 -10   6  14  249.08   40.90
   8  -6 -14  179.18   33.50
  -8  -6  14   88.39   19.50
  -8  -6  14  136.39   28.70
   8   6 -14  140.19   36.20
   8   6 -14  140.09   25.70
   6  -6 -14  291.77   37.10
   6  -6 -14  204.68   16.50
  -6  -6  14  206.88   32.50
  -6  -6  14  222.98   26.60
   6   6 -14  263.87   39.10
  -4  -6  14  262.87   29.00
  -4  -6  14  357.26   32.30
   4  -6 -14  279.77   37.70
   4  -6 -14  330.57   17.50
   4   6 -14  282.67   38.10
   2  -6 -14  -10.80   14.80
  -2  -6  14   18.80   14.30
  -2  -6  14   14.50   12.30
   2   6 -14  -24.00   15.30
   2   6 -14   15.30   14.20
   0  -6 -14  259.47   38.20
   0  -6  14  259.67   29.60
   0  -6 -14  285.67   67.69
   0  -6  14  290.97   23.00
   2  -6  14   10.30   15.10
  -2  -6 -14   -1.10   27.70
  -2  -6 -14   20.20   22.30
  -4  -6 -14  -16.40   19.30
  -4  -6 -14  -22.70   26.40
   4  -6  14   10.90   15.70
   6  -6  14   24.70   17.70
  -6  -6 -14   19.50   36.00
   8  -6  14    2.40   17.70
  10  -6  14   62.69   22.00
  12  -6  14   42.40   24.40
  14  -6  14   30.00   21.10
  14   6  14   71.79   11.70
  14   6  14   32.00    9.60
  23  -7 -14  -13.70   24.00
 -23  -7  14   -2.00   16.40
  23   7 -14   21.80   42.20
 -21  -7  14   89.59   25.60
  21  -7 -14  128.19   37.00
  21   7 -14    0.70   35.90
 -19  -7  14  -13.00   13.50
  19  -7 -14   33.80   23.70
  19   7 -14  -17.20   30.70
 -17  -7  14   44.40   19.50
  17  -7 -14  145.39   38.20
  17   7 -14   93.39   47.90
  15  -7 -14   30.10   23.80
  15  -7 -14   47.90   16.60
  15   7 -14    6.50   28.20
 -13  -7  14   15.90   14.40
 -13  -7  14   49.00   26.30
  13  -7 -14   61.39   25.60
  13  -7 -14   52.29   16.40
  13   7 -14   83.59   36.60
  11  -7 -14   -7.20    9.70
 -11  -7  14   24.60   35.00
  11  -7 -14   -0.80   19.20
 -11  -7  14   -1.30   12.20
  11   7 -14   23.50   30.00
  11   7 -14    5.40   12.30
   9  -7 -14  393.16   47.10
   9  -7 -14  447.56   30.30
  -9  -7  14  463.15   38.50
  -9  -7  14  488.05   47.00
   9   7 -14  469.55   57.59
   9   7 -14  437.16   36.60
  -7  -7  14   15.80   15.70
   7  -7 -14   16.50    9.40
   7  -7 -14   29.80   22.30
  -7  -7  14   15.40   17.30
   7   7 -14   -4.70   12.10
   7   7 -14   12.60   24.40
  -5  -7  14  249.68   32.40
   5  -7 -14  237.68   17.50
   5  -7 -14  272.17   40.00
  -5  -7  14  242.28   29.50
   5   7 -14  307.77   30.60
   5   7 -14  266.77   46.20
  -3  -7  14  241.28   29.00
  -3  -7  14  192.28   26.70
   3  -7 -14  213.68   40.20
   3   7 -14  203.98   30.00
   3   7 -14  129.89   33.70
  -1  -7  14  113.59   22.50
   1  -7 -14  143.49   35.30
   1  -7 -14  200.48   53.99
  -1  -7  14  153.88   22.60
   1   7 -14  172.08   32.10
   1  -7  14   48.70   13.60
   1  -7  14   66.09   19.90
  -1  -7 -14   53.39   36.40
  -1  -7 -14   46.10   26.40
  -3  -7 -14   16.90   25.80
   3  -7  14   15.70   17.30
   5  -7  14   19.20   17.10
   7  -7  14   64.39   23.20
   9  -7  14    6.50   17.30
  11  -7  14    4.50   21.30
  13  -7  14  -26.40   17.60
 -22  -8  14   -6.20   15.60
  22  -8 -14  -16.90   22.00
  22   8 -14  -31.50   33.60
  20  -8 -14  136.69   40.50
 -20  -8  14  116.19   27.80
  20   8 -14  115.99   50.69
  18  -8 -14   -9.50   20.80
 -18  -8  14   13.90   16.70
  18   8 -14    8.30   30.70
 -16  -8  14   15.80   16.90
  16  -8 -14  -34.60   16.90
  16   8 -14   16.40   36.40
  14  -8 -14  233.18   27.60
  14  -8 -14  273.17   49.00
 -14  -8  14  200.38   30.10
  14   8 -14  299.87   76.39
 -12  -8  14  -27.90   18.80
 -12  -8  14   18.20   21.00
  12  -8 -14    4.50   11.80
  12   8 -14    6.50   27.90
  10  -8 -14  -15.20   10.10
 -10  -8  14  -13.70   12.40
 -10  -8  14   30.50   21.90
  10  -8 -14  -40.50   13.60
  10   8 -14   -1.30   27.40
   8  -8 -14   58.09   13.20
   8  -8 -14   59.99   27.00
  -8  -8  14   38.50   22.30
  -8  -8  14   87.69   22.80
   8   8 -14   11.00   27.80
   6  -8 -14  -18.10   18.00
  -6  -8  14    1.40   17.20
  -6  -8  14    9.90   17.20
   6  -8 -14    0.00    8.10
   6   8 -14    9.20   27.10
  -4  -8  14   75.99   24.10
   4  -8 -14  142.29   12.80
   4  -8 -14  151.48   12.70
  -4  -8  14  196.18   29.00
   4  -8 -14  162.78   34.20
   4   8 -14  134.49   39.80
   2  -8 -14  -13.80   18.90
  -2  -8  14   14.40   14.90
  -2  -8  14   18.90   17.70
   2   8 -14  -37.40   22.50
   0  -8  14   57.69   17.20
   0  -8 -14  109.59   33.80
   0  -8  14   52.09   32.70
   2  -8  14  128.29   25.70
   2  -8  14  120.49   19.40
   2  -8  14  193.98   20.30
  -2  -8 -14  178.68   46.90
  -4  -8 -14  265.97   49.30
   4  -8  14  177.88   30.90
   6  -8  14   40.10   19.70
   8  -8  14  -23.90   16.10
  10  -8  14   80.69   27.10
  12  -8  14    5.90   19.80
 -19  -9  14   19.60   21.20
  19  -9 -14   -2.10   24.60
  19   9 -14   -1.90   36.00
 -17  -9  14   -7.90   15.30
  17  -9 -14   -7.20   21.90
  17   9 -14   40.10   43.10
  15  -9 -14   80.89   31.90
 -15  -9  14   97.99   23.10
  15   9 -14  113.79   45.70
 -13  -9  14    9.70   15.30
  13  -9 -14   23.50   21.60
  13  -9 -14   22.50   14.90
  13   9 -14  -32.80   28.40
  11  -9 -14   79.09   17.50
 -11  -9  14  107.99   24.60
  11  -9 -14   24.80   25.50
  11   9 -14   30.40   37.70
  -9  -9  14  117.29   26.10
   9  -9 -14   59.99   30.10
   9  -9 -14  109.19   17.90
  -9  -9  14   40.60   27.60
   9   9 -14  110.19   42.20
  -7  -9  14   38.60   19.50
   7  -9 -14   20.90   10.40
   7  -9 -14   12.60   21.30
  -7  -9  14   10.80   21.70
   7   9 -14   35.80   32.70
   5  -9 -14  125.89   15.20
  -5  -9  14  160.88   34.10
  -5  -9  14  128.09   26.60
   5  -9 -14  147.79   35.50
   5  -9 -14  172.68   16.20
   5   9 -14  159.78   43.10
  -3  -9  14   67.29   23.70
   3  -9 -14   85.99   30.00
  -3  -9  14   73.09   23.80
  -1  -9  14   -2.20   16.70
   1  -9 -14    5.60   25.60
  -1  -9  14   32.60   19.00
   1  -9  14  216.28   31.60
   1  -9  14  206.18   28.20
  -1  -9 -14  247.68   50.09
   3  -9  14    6.20   10.70
  -3  -9 -14  -20.70   24.40
   3  -9  14  -16.20   13.30
   3  -9  14    7.40   10.90
  -5  -9 -14   55.69   33.50
   5  -9  14   44.30   23.00
   7  -9  14   59.39   20.40
   9  -9  14   12.90   19.50
 -18 -10  14   42.00   22.10
  18 -10 -14    6.40   24.70
  18  10 -14   79.99   46.90
 -16 -10  14   36.50   20.00
  16 -10 -14    9.40   22.60
  16  10 -14   29.80   40.90
  14 -10 -14   35.60   28.70
 -14 -10  14   27.50   17.70
  14  10 -14    1.10   39.50
  12 -10 -14   21.40   22.50
 -12 -10  14    8.00   17.10
  12 -10 -14   15.10   13.90
  12  10 -14   23.90   36.60
 -10 -10  14    4.90   16.60
  10 -10 -14   32.90   26.10
  10 -10 -14   20.30   12.90
  10  10 -14   37.10   42.90
   8 -10 -14  112.69   36.90
   8 -10 -14   68.59   15.30
  -8 -10  14   48.20   19.90
  -8 -10  14   52.09   28.00
   8 -10 -14   51.29   16.00
   8  10 -14   32.90   36.80
  -6 -10  14   34.40   25.20
   6 -10 -14   38.30   12.20
   6 -10 -14   28.80   24.70
  -6 -10  14   26.60   20.60
   6  10 -14    6.40   32.60
  -4 -10  14   13.80   22.50
  -4 -10  14    4.40   16.30
   4 -10 -14    9.70    8.20
   4 -10 -14   17.10   25.40
   4 -10 -14   16.70    8.20
   2 -10 -14  -23.20   20.40
  -2 -10  14    7.90   20.70
  -2 -10  14   25.20   18.00
   0 -10  14   88.49   24.60
   0 -10 -14   74.59   32.40
   0 -10  14   63.89   24.10
   2 -10  14   10.90   17.80
  -2 -10 -14  -12.60   26.20
   2 -10  14   17.20   17.20
   2 -10  14   33.40   18.60
  -4 -10 -14   92.29   41.30
   4 -10  14   58.49   22.60
  -6 -10 -14   23.80   33.50
   6 -10  14   24.10   21.80
   8 -10  14  -27.60   15.40
  15 -11 -14   79.19   34.20
 -15 -11  14   51.89   23.20
  15  11 -14   66.69   48.60
  13 -11 -14   15.60   26.80
 -13 -11  14   64.49   23.40
  13  11 -14   -4.60   42.80
  11 -11 -14  110.99   22.00
 -11 -11  14  113.29   25.70
  11 -11 -14   93.19   21.50
  11 -11 -14   82.49   35.00
  11  11 -14  132.79   58.09
   9 -11 -14    2.10   11.10
   9 -11 -14    7.20   12.20
  -9 -11  14   17.90   20.30
   9 -11 -14    7.70   24.40
   9  11 -14    6.60   33.10
   7 -11 -14    9.10   11.50
   7 -11 -14   10.90   11.90
   7 -11 -14   63.39   30.60
  -7 -11  14    9.50   18.10
   7  11 -14   34.00   38.80
   5 -11 -14   -7.20    9.70
   5 -11 -14   -2.60   23.80
   5 -11 -14    3.40    9.20
  -5 -11  14   17.90   26.20
  -5 -11  14   15.60   17.10
   3 -11 -14   60.19   32.50
  -3 -11  14   95.59   32.40
  -3 -11  14   44.90   22.10
   1 -11 -14  -20.80   21.40
  -1 -11  14   14.60   21.70
  -1 -11  14    9.00   18.50
   1 -11  14    8.50   18.30
   1 -11  14  -21.10   14.90
  -1 -11 -14   34.90   31.40
   1 -11  14   32.40   22.10
   3 -11  14  -14.20   17.10
  -3 -11 -14  -16.20   22.30
   3 -11  14   27.70   17.10
   3 -11  14   27.60   19.50
  -5 -11 -14   -4.40   30.60
   5 -11  14   15.80   22.10
 -10 -12  14   12.20   18.20
  10 -12 -14  -25.30   23.90
  10 -12 -14    2.20   12.20
  10 -12 -14    8.90   14.00
  10  12 -14  -30.20   35.10
  -8 -12  14   14.20   20.20
   8 -12 -14   18.60   27.00
   8 -12 -14   16.20   14.30
   8 -12 -14   32.50   15.10
   6 -12 -14   37.30   31.80
  -6 -12  14  -18.30   16.50
   6 -12 -14   13.40   11.90
   6 -12 -14   -4.10   10.40
   4 -12 -14   25.00   30.30
  -4 -12  14   -8.10   16.70
   4 -12 -14   12.40    9.30
   4 -12 -14    5.40    8.80
  -4 -12  14   38.10   32.70
   2 -12 -14    7.60   28.30
  -2 -12  14    2.10   19.40
  -2 -12  14   51.19   29.90
   0 -12  14   -2.40   17.40
   0 -12  14   48.80   28.90
   0 -12  14   32.70   23.10
   0 -12 -14    5.60   29.90
  28   0 -15   19.40   33.60
 -28   0  15  -11.10   15.20
 -26   0  15  -13.60   14.40
  26   0 -15   21.90   28.30
 -24   0  15    9.30   16.10
  24   0 -15  -13.20   21.20
 -22   0  15  -29.50   12.30
  22   0 -15  -23.00   21.50
  20   0 -15  -11.50   20.40
 -20   0  15  -14.80   11.20
  18   0 -15    6.00   12.40
 -18   0  15    2.00   16.30
 -18   0  15   -5.40   13.10
  18   0 -15    3.40   19.70
  16   0 -15    7.10   18.50
 -16   0  15  -14.30   11.60
  16   0 -15    7.10   10.90
 -16   0  15   15.60   29.40
  14   0 -15  -15.10   13.40
  14   0 -15   -1.80    8.80
 -14   0  15   -5.80   10.00
 -14   0  15    1.10   12.10
  12   0 -15   -0.50   14.00
  12   0 -15   14.00    9.90
 -12   0  15  -11.80    9.00
 -12   0  15   27.20   16.30
  10   0 -15   -6.00   13.00
 -10   0  15   11.60   10.10
  10   0 -15    9.60    9.50
 -10   0  15    1.80   12.00
   8   0 -15   14.80   16.10
  -8   0  15   -4.00    8.40
  -8   0  15  -16.60   10.60
   8   0 -15    3.00    7.70
   6   0 -15   -3.60   11.30
  -6   0  15   -2.00    7.40
   6   0 -15  -14.20    6.30
  -6   0  15    0.40   11.40
   4   0 -15   -5.00   10.10
  -4   0  15   13.00    9.10
   4   0 -15   -4.80    6.80
  -2   0  15   -4.70    8.10
   2   0 -15  -13.70   10.40
   2   0 -15    5.80    7.70
  -2   0  15  -12.30   10.10
   0   0  15    2.10    8.90
   0   0 -15   16.30   12.00
   2   0  15   -4.10    7.90
  -2   0 -15    5.00   11.10
   4   0  15   12.70    9.80
  -4   0 -15   -2.20   17.80
  -4   0 -15   15.30   12.20
  -6   0 -15   33.20   19.60
  -6   0 -15   -0.70   12.80
   6   0  15   -1.20   10.20
  -8   0 -15    2.40   19.20
  -8   0 -15    2.70   14.00
   8   0  15  -12.50   12.20
   8   0  15  -16.10   10.50
  10   0  15  -17.80   13.20
 -10   0 -15   -4.20   16.60
 -10   0 -15   10.70   22.90
  10   0  15    3.80   14.10
  12   0  15    7.40   15.30
  12   0  15   27.20   17.20
 -12   0 -15   19.20   19.00
 -12   0 -15   20.70   19.00
 -14   0 -15    3.60   16.60
  14   0  15  -26.90   15.60
  14   0  15    9.50   17.60
  16   0  15   12.40   20.30
 -16   0 -15   25.50   20.60
 -27  -1  15   57.09   25.00
  27  -1 -15  151.18   50.39
 -27   1  15   29.40   21.20
  27   1 -15   30.00   38.80
 -25  -1  15   13.00   18.10
  25  -1 -15   32.60   32.40
  25   1 -15   25.10   32.10
 -25   1  15   20.50   17.60
  23  -1 -15  384.96   56.69
 -23  -1  15  357.16   39.20
 -23   1  15  365.86   39.50
  23   1 -15  371.46   59.29
 -21  -1  15   25.30   16.30
  21  -1 -15   22.70   41.10
 -21   1  15   35.50   25.00
  21   1 -15    4.70   23.60
  19  -1 -15    3.80   12.90
 -19  -1  15   14.70   14.80
  19  -1 -15  -12.00   17.50
 -19   1  15   -3.90   15.10
  19   1 -15  -18.10   17.50
 -19   1  15   -2.80   14.10
  17  -1 -15  213.08   24.70
 -17  -1  15  261.67   35.90
  17  -1 -15  241.98   43.50
 -17  -1  15  210.18   27.20
 -17   1  15  200.18   36.40
 -17   1  15  189.08   27.60
  17   1 -15  215.88   25.40
  17   1 -15  270.97   49.10
 -15  -1  15    5.70   17.70
 -15  -1  15   14.00   12.60
  15  -1 -15   41.40   24.10
  15  -1 -15   18.00   11.40
 -15   1  15    0.60   11.50
  15   1 -15   21.90   17.70
  15   1 -15   12.60   11.20
 -15   1  15   50.59   23.10
  13  -1 -15  245.38   38.10
 -13  -1  15  186.28   23.20
 -13  -1  15  217.68   29.70
  13  -1 -15  171.88   20.00
  13   1 -15  215.88   38.10
  13   1 -15  217.38   22.20
 -13   1  15  162.48   21.00
 -13   1  15  192.58   29.10
  11  -1 -15  493.35   31.10
  11  -1 -15  450.85   42.30
 -11  -1  15  487.25   33.10
 -11  -1  15  486.85   39.90
 -11   1  15  424.16   38.70
 -11   1  15  455.95   31.90
  11   1 -15  409.96   41.70
  11   1 -15  477.75   31.80
  -9  -1  15  287.47   31.40
   9  -1 -15  410.66   37.40
   9  -1 -15  344.87   24.90
  -9  -1  15  365.36   27.50
  -9   1  15  383.06   27.00
   9   1 -15  394.36   26.80
   9   1 -15  340.57   35.60
  -9   1  15  259.37   31.30
   7  -1 -15  683.03   46.60
   7  -1 -15  626.34   37.70
  -7  -1  15  590.14   42.30
  -7  -1  15  643.94   37.50
  -7   1  15  642.94   45.40
   7   1 -15  580.44   35.50
   7   1 -15  713.53   46.80
  -7   1  15  610.84   35.00
   5  -1 -15   42.70   17.60
  -5  -1  15   32.90   11.40
   5  -1 -15    4.90    7.30
  -5   1  15   18.60   15.60
  -5   1  15   20.00    9.20
   5   1 -15   31.40   10.20
   5   1 -15   17.80   14.10
   3  -1 -15  366.36   23.20
  -3  -1  15  432.56   27.50
  -3  -1  15  394.36   30.10
   3  -1 -15  346.37   32.30
  -3   1  15  345.77   32.60
   3   1 -15  381.46   25.80
   3   1 -15  368.76   30.50
  -3   1  15  387.36   24.20
   1  -1 -15   86.89   12.60
   1  -1 -15   86.89   19.80
  -1  -1  15  111.49   16.40
  -1  -1  15  101.99   17.80
  -1   1  15  110.29   13.80
   1   1 -15  114.59   18.70
   1   1 -15   99.59   14.70
   1  -1  15  138.39   21.20
  -1  -1 -15  163.68   23.80
   1   1  15  154.68   15.80
  -1   1 -15  161.58   18.50
  -3  -1 -15  539.75   56.19
  -3  -1 -15  501.65   37.60
   3  -1  15  512.85   32.40
   3   1  15  491.85   29.20
  -3   1 -15  510.95   31.20
  -3   1 -15  517.45   39.90
   5  -1  15  113.49   18.20
  -5  -1 -15   85.19   20.80
  -5  -1 -15   -3.90   19.80
   5   1  15  103.19   15.20
  -5   1 -15   83.29   20.00
  -5   1 -15  120.99   16.30
  -7  -1 -15  111.29   26.10
  -7  -1 -15  130.89   31.70
   7  -1  15  133.69   21.90
  -7   1 -15  165.68   23.70
   7   1  15  176.98   21.30
  -7   1 -15  172.68   19.50
   7   1  15  173.58   21.30
   9  -1  15  480.15   39.10
  -9  -1 -15  499.95   50.59
   9  -1  15  553.34   37.90
  -9   1 -15  374.76   32.50
  -9   1 -15  522.85   32.00
   9   1  15  489.55   34.10
   9   1  15  498.25   35.40
  11  -1  15   95.49   21.40
  11  -1  15   53.09   20.10
 -11  -1 -15   88.19   29.50
 -11   1 -15   81.79   16.60
  11   1  15   65.89   17.60
  11   1  15   84.99   20.20
 -11   1 -15   87.09   17.70
  13  -1  15  185.38   28.70
 -13  -1 -15  163.28   33.10
  13  -1  15  128.39   25.40
  13   1  15  192.68   27.50
  13   1  15  130.79   24.80
 -13   1 -15  137.79   22.30
 -13   1 -15  145.69   23.30
  15  -1  15   20.70   33.90
 -15  -1 -15   31.40   25.80
 -15   1 -15   13.60   15.40
  15   1  15   37.50   20.50
  15   1  15    8.20   18.20
 -15   1 -15   12.40   15.10
  17  -1  15   36.70   24.40
 -17  -1 -15   27.50   25.80
  17   1  15   10.50   19.50
 -17   1 -15   20.60   17.60
 -17   1 -15   28.00   16.70
 -26  -2  15    5.10   17.20
  26  -2 -15   -4.50   28.80
 -26   2  15   15.70   17.90
  26   2 -15   38.10   36.50
  24  -2 -15  126.09   43.70
 -24  -2  15   66.49   21.90
  24   2 -15   78.39   39.40
 -24   2  15   94.09   27.30
 -22  -2  15   13.90   16.30
  22  -2 -15    4.30   21.30
 -22   2  15   -9.30   13.80
  22   2 -15  -14.70   22.80
  20  -2 -15   16.30   25.20
 -20  -2  15    4.60   14.10
 -20   2  15   29.00   16.40
  20   2 -15   19.60   28.30
  18  -2 -15   -0.20   19.00
  18  -2 -15    0.90   13.30
 -18  -2  15   12.60   19.40
 -18  -2  15   24.70   16.00
 -18   2  15   18.40   17.90
  18   2 -15    5.90   12.60
 -18   2  15   32.70   23.40
  18   2 -15   -2.00   20.00
 -16  -2  15    8.90   15.80
 -16  -2  15   31.40   15.60
  16  -2 -15   15.10   12.50
  16  -2 -15   35.90   21.30
  16   2 -15   33.70   14.30
  16   2 -15   54.39   25.30
 -16   2  15   25.80   15.20
 -16   2  15   44.60   20.90
 -14  -2  15  402.06   40.60
  14  -2 -15  378.76   29.60
 -14  -2  15  430.46   33.70
  14  -2 -15  431.56   43.90
  14   2 -15  393.26   45.80
 -14   2  15  364.56   39.30
  14   2 -15  396.96   30.90
 -14   2  15  352.46   30.70
 -12  -2  15  609.24   40.40
  12  -2 -15  608.64   49.99
  12  -2 -15  652.03   37.60
 -12  -2  15  667.13   49.40
  12   2 -15  614.74   38.90
 -12   2  15  596.54   48.20
  12   2 -15  532.65   49.99
 -12   2  15  603.54   38.70
  10  -2 -15   30.20   17.00
  10  -2 -15   10.80    8.10
 -10  -2  15   -8.40   12.00
 -10  -2  15   12.60   10.80
 -10   2  15    5.60   14.40
  10   2 -15    6.20    9.20
  10   2 -15   -6.70   12.80
   8  -2 -15  270.47   32.00
  -8  -2  15  359.96   31.70
   8  -2 -15  330.07   25.20
  -8  -2  15  338.07   26.70
  -8   2  15  338.17   33.60
   8   2 -15  268.67   36.80
   8   2 -15  306.17   25.00
  -8   2  15  298.97   23.40
   6  -2 -15   -9.00   12.10
  -6  -2  15   -0.40   10.10
   6  -2 -15   -6.60    5.80
  -6  -2  15   14.90   10.90
  -6   2  15   -0.50    7.40
  -6   2  15    8.00   12.90
   6   2 -15    8.80   12.60
   6   2 -15    2.60    8.10
   4  -2 -15  329.17   20.00
   4  -2 -15  299.37   31.70
  -4  -2  15  281.37   24.80
  -4  -2  15  321.87   26.60
  -4   2  15  282.07   31.10
  -4   2  15  312.17   20.30
   4   2 -15  268.97   27.90
   4   2 -15  273.67   23.10
   2  -2 -15  220.98   32.80
   2  -2 -15  252.27   16.80
  -2  -2  15  222.08   22.60
  -2  -2  15  219.58   22.70
   2   2 -15  247.38   21.30
  -2   2  15  241.08   17.00
   2   2 -15  250.77   24.20
   0  -2  15   74.29   14.30
   0  -2  15   99.39   16.60
   0   2  15   66.19   10.00
   0   2 -15   95.39   15.70
   0   2 -15   78.59   14.40
   2  -2  15   -2.40   10.70
  -2  -2 -15   13.00   21.20
  -2   2 -15   -2.10    7.90
   2   2  15    9.00    7.20
  -4  -2 -15   74.39   27.30
  -4  -2 -15   48.80   20.50
   4  -2  15   59.59   15.20
  -4   2 -15   63.19   11.90
   4   2  15   79.89   11.40
  -4   2 -15   36.50    8.00
   6  -2  15   27.30   14.40
  -6  -2 -15   36.70   28.70
  -6  -2 -15   39.40   20.20
   6   2  15   51.29   12.10
   6   2  15   49.10   11.20
  -8  -2 -15   11.50   25.90
   8  -2  15    5.90   13.50
  -8  -2 -15    8.10   23.20
   8   2  15   14.00   11.00
   8   2  15   11.10   11.60
  10  -2  15   40.00   17.40
 -10  -2 -15   41.30   29.00
  10  -2  15   12.50   16.80
  10   2  15   19.00   13.70
  10   2  15   31.50   13.90
 -12  -2 -15   61.39   32.50
  12  -2  15   59.89   21.90
  12   2  15   82.49   18.90
  12   2  15   70.19   18.70
  14  -2  15    6.50   19.50
 -14  -2 -15   33.60   29.40
  14   2  15   26.60   18.60
  14   2  15   15.00   17.10
 -16  -2 -15   49.30   31.70
  16  -2  15   87.39   27.90
  16   2  15   16.00   19.80
  16   2  15    1.00   17.30
  27  -3 -15   25.30   32.60
 -27  -3  15   -2.40   16.00
  27   3 -15   -0.60   33.20
 -27   3  15   -9.30   16.90
 -25  -3  15   42.30   21.30
  25  -3 -15   -9.20   28.60
  25   3 -15   10.10   32.40
 -25   3  15   60.99   23.30
 -23  -3  15  278.27   37.10
  23  -3 -15  355.76   61.19
 -23   3  15  291.07   36.90
  23   3 -15  344.77   67.99
 -21  -3  15  318.97   46.10
  21  -3 -15  288.37   51.69
  21   3 -15  319.07   63.19
 -21   3  15  276.77   35.60
 -19  -3  15  152.48   28.70
  19  -3 -15   50.09   29.70
  19  -3 -15   83.29   33.20
  19   3 -15   81.69   34.40
 -19   3  15  107.89   23.90
 -17  -3  15  442.36   48.30
  17  -3 -15  426.76   35.20
  17  -3 -15  432.66   49.40
 -17  -3  15  423.66   38.10
  17   3 -15  424.96   36.30
  17   3 -15  464.25   57.29
 -17   3  15  477.05   48.60
 -17   3  15  521.25   39.40
  15  -3 -15  324.07   40.00
 -15  -3  15  301.17   30.00
  15  -3 -15  274.17   26.20
  15   3 -15  283.17   44.00
 -15   3  15  292.67   37.50
  15   3 -15  208.98   25.30
 -15   3  15  255.37   27.60
 -13  -3  15  309.97   36.60
  13  -3 -15  303.77   26.00
  13  -3 -15  353.36   39.20
 -13  -3  15  317.07   29.60
 -13   3  15  338.37   38.00
  13   3 -15  260.17   39.50
  13   3 -15  306.07   27.60
 -13   3  15  329.67   27.90
  11  -3 -15   20.40   18.80
 -11  -3  15   11.60   15.10
  11  -3 -15   23.00   10.70
 -11  -3  15   46.40   14.00
 -11   3  15   49.80   13.20
 -11   3  15   18.60   16.00
  11   3 -15   65.79   25.10
  11   3 -15   25.10   11.20
  -9  -3  15   90.99   18.70
   9  -3 -15   83.79   22.30
  -9  -3  15   78.79   20.30
   9  -3 -15   94.99   14.60
   9   3 -15   92.99   17.70
  -9   3  15   84.59   14.60
  -9   3  15  128.39   26.70
   9   3 -15   69.89   22.50
  -7  -3  15  211.68   25.40
   7  -3 -15  206.28   29.00
   7  -3 -15  200.98   16.70
  -7  -3  15  209.98   23.00
   7   3 -15  248.68   22.00
   7   3 -15  222.08   29.50
  -7   3  15  171.48   17.50
  -7   3  15  177.38   29.50
  -5  -3  15  218.38   22.50
   5  -3 -15  187.48   15.20
   5  -3 -15  211.38   30.20
  -5  -3  15  197.28   22.80
  -5   3  15  183.08   16.00
   5   3 -15  197.28   26.70
   5   3 -15  195.78   21.00
  -5   3  15  188.18   28.20
  -3  -3  15   73.19   15.00
   3  -3 -15   63.49    9.40
   3  -3 -15   77.99   21.70
  -3  -3  15   74.99   15.00
  -3   3  15   56.39    9.20
   3   3 -15   81.99   18.00
   3   3 -15   57.99   13.90
  -1  -3  15  724.43   42.20
  -1  -3  15  695.13   38.60
   1  -3 -15  745.93   51.09
  -1   3  15  707.03   31.90
   1   3 -15  640.34   40.30
   1   3 -15  742.93   41.70
  -1  -3 -15  353.96   36.50
   1  -3  15  335.27   28.40
  -1   3 -15  336.77   22.70
   1   3  15  331.67   17.60
  -3  -3 -15  385.76   39.30
  -3  -3 -15  304.17   48.90
   3  -3  15  438.96   31.90
   3   3  15  374.26   19.70
   3   3  15  358.86   20.10
  -5  -3 -15   -7.60   27.10
  -5  -3 -15   11.50   17.70
   5  -3  15   37.00   15.40
   5   3  15   33.70    8.50
   5   3  15   17.70    8.10
  -7  -3 -15  120.49   32.30
  -7  -3 -15  161.18   42.10
   7  -3  15  181.78   26.20
   7   3  15  149.59   16.40
   7   3  15  165.78   15.80
  -9  -3 -15   47.30   32.70
   9  -3  15  101.39   22.00
   9   3  15   67.99   13.70
   9   3  15   49.80   12.90
  11  -3  15   16.90   17.70
 -11  -3 -15   24.70   30.00
  11   3  15   23.10   13.10
  11   3  15   35.40   13.50
  13  -3  15   32.60   21.60
 -13  -3 -15   40.10   35.10
  13   3  15    5.70   13.30
  13   3  15   29.90   15.70
  15  -3  15    9.70   21.20
 -15  -3 -15   51.79   35.60
  15   3  15   -7.80   14.30
  15   3  15   13.60   17.80
 -26  -4  15   -3.90   15.70
  26  -4 -15   -2.20   29.40
  26   4 -15   14.10   35.80
 -26   4  15    6.40   19.40
  24  -4 -15   35.20   27.30
 -24  -4  15   10.60   17.30
  24   4 -15  -23.50   27.00
 -24   4  15   11.20   18.20
 -22  -4  15    1.50   14.40
  22  -4 -15   -8.40   19.90
 -22   4  15   19.40   18.10
  22   4 -15   27.60   32.20
 -20  -4  15   18.10   17.20
  20  -4 -15   -0.20   22.30
 -20   4  15   32.50   31.70
  20   4 -15   31.20   37.20
 -18  -4  15   59.29   18.90
  18  -4 -15  104.19   34.50
  18  -4 -15   54.99   18.00
 -18   4  15  100.79   23.70
  18   4 -15   93.89   37.80
 -16  -4  15  -25.20   11.90
  16  -4 -15   -8.70   17.30
 -16  -4  15   -8.10   15.00
  16  -4 -15  -16.60   17.50
 -16   4  15   37.50   15.40
 -16   4  15    5.30   17.40
  16   4 -15   53.59   31.20
  16   4 -15    4.80   13.30
  14  -4 -15   41.30   21.40
 -14  -4  15  -17.30   11.00
 -14  -4  15   -2.90   18.60
  14  -4 -15    4.90   10.90
 -14   4  15   28.10   15.60
  14   4 -15   33.80   13.20
  14   4 -15   -8.00   21.30
 -14   4  15   25.60   20.90
 -12  -4  15   -5.50   15.10
  12  -4 -15    1.10   14.90
 -12  -4  15    0.70   11.40
  12  -4 -15   20.70   10.30
  12   4 -15    4.20   10.20
 -12   4  15    5.40   10.40
 -12   4  15  -10.90   15.10
  12   4 -15   19.80   21.20
  10  -4 -15   64.09   23.60
 -10  -4  15  104.59   20.20
  10  -4 -15   71.69   13.50
 -10  -4  15   76.69   22.50
 -10   4  15   85.99   18.50
  10   4 -15  101.29   29.50
  10   4 -15   79.29   16.90
 -10   4  15   46.40   20.20
  -8  -4  15   47.50   14.70
  -8  -4  15   31.10   17.00
   8  -4 -15   51.59   21.10
   8  -4 -15   31.90    9.90
  -8   4  15   54.89   19.50
  -8   4  15   23.70   10.60
   8   4 -15   51.29   21.80
   8   4 -15   14.20   10.20
   6  -4 -15   52.99    9.70
  -6  -4  15   50.29   15.90
   6  -4 -15   40.40   18.40
  -6  -4  15   43.30   15.10
  -6   4  15   39.10   17.80
   6   4 -15   26.10   18.70
   6   4 -15   49.99   14.90
  -6   4  15   43.90   10.20
  -4  -4  15  -11.50    9.60
   4  -4 -15   -0.30    5.50
   4  -4 -15   18.80   18.70
  -4  -4  15    2.20    9.90
  -4   4  15    2.70    6.70
   4   4 -15  -14.60   13.30
   4   4 -15    8.90   10.00
   2  -4 -15    7.10   14.80
  -2  -4  15    5.30   11.80
  -2  -4  15   19.10   11.30
   2   4 -15   -2.40   11.90
   2   4 -15   19.50   11.50
  -2   4  15    9.30    4.20
   0  -4 -15   98.49   27.10
   0  -4  15   93.09   13.50
   0  -4  15   79.89   15.90
   0   4 -15   84.79   15.80
  -2  -4 -15  -16.80   14.50
   2  -4  15   24.50   14.10
  -2  -4 -15  -34.00   21.50
   4  -4  15   52.19   16.50
  -4  -4 -15   18.70   33.20
  -4  -4 -15   23.30   21.70
  -6  -4 -15   21.30   33.10
  -6  -4 -15   32.70   24.20
   6  -4  15   22.20   16.90
  -8  -4 -15   18.40   33.20
   8  -4  15   22.30   15.90
   8   4  15   17.40    8.30
   8   4  15   15.10    7.80
 -10  -4 -15  -23.00   26.90
  10  -4  15   12.60   18.50
  10   4  15   -2.70    8.70
  10   4  15   -3.90    9.00
 -12  -4 -15   40.90   38.20
  12  -4  15   21.40   18.20
  12   4  15   -0.10   11.30
  14  -4  15   58.99   25.00
  14   4  15   32.60   14.70
  14   4  15   47.90   18.10
  16  -4  15   -0.40   22.00
  16   4  15   16.80   16.30
  16   4  15   27.10   16.00
  25  -5 -15   -7.60   24.20
 -25  -5  15   18.40   20.10
  25   5 -15  -58.39   27.40
 -23  -5  15   32.00   19.30
  23  -5 -15   22.50   29.50
 -23   5  15    1.80   17.00
  23   5 -15  114.59   46.20
 -21  -5  15  102.59   25.90
  21  -5 -15  102.29   36.40
 -21   5  15   69.59   22.20
  21   5 -15  140.39   50.29
 -19  -5  15  160.58   28.90
  19  -5 -15  163.68   42.00
  19   5 -15  157.58   49.50
 -19   5  15  223.38   33.40
  17  -5 -15  202.78   27.10
 -17  -5  15  210.68   32.20
  17  -5 -15  238.58   43.20
 -17   5  15  200.78   28.60
  17   5 -15  305.17   58.89
  15  -5 -15   42.10   16.00
 -15  -5  15   41.10   18.00
  15  -5 -15   24.30   22.60
 -15  -5  15   12.30   21.10
  15   5 -15   11.70   13.50
 -15   5  15   59.39   18.20
  15   5 -15    6.90   26.20
 -15   5  15   10.00   23.00
  13  -5 -15   20.50   20.40
 -13  -5  15   49.90   25.40
 -13  -5  15  104.19   21.30
  13  -5 -15   71.89   17.30
 -13   5  15   46.20   25.00
 -13   5  15   78.19   17.80
  13   5 -15   68.59   17.70
  13   5 -15   94.79   35.60
  11  -5 -15    9.50   18.20
 -11  -5  15  -12.60   14.50
  11  -5 -15   15.50   10.40
 -11  -5  15    0.20   10.70
 -11   5  15   55.69   24.70
 -11   5  15   11.00   11.40
  11   5 -15    3.70   19.60
  11   5 -15   33.40   13.90
  -9  -5  15  177.28   28.40
   9  -5 -15  144.39   32.00
   9  -5 -15  136.49   16.50
  -9  -5  15  187.98   26.80
  -9   5  15  196.48   35.00
   9   5 -15  144.99   21.00
  -9   5  15  142.29   18.40
   9   5 -15  165.18   36.60
  -7  -5  15  252.67   26.80
   7  -5 -15  225.58   18.10
   7  -5 -15  207.48   34.00
  -7  -5  15  267.57   30.60
   7   5 -15  241.88   24.30
   7   5 -15  256.47   37.00
  -7   5  15  224.18   19.20
   5  -5 -15  211.38   32.10
  -5  -5  15  160.58   23.90
  -5  -5  15  147.59   25.00
   5  -5 -15  136.69   12.60
   5   5 -15  163.38   29.90
   5   5 -15  149.19   21.40
  -3  -5  15  390.06   33.00
   3  -5 -15  433.46   43.30
  -3  -5  15  383.26   30.60
   3   5 -15  412.46   32.70
   3   5 -15  383.66   37.60
  -1  -5  15  531.15   32.00
   1  -5 -15  629.74   51.49
  -1  -5  15  441.96   37.10
   1   5 -15  512.05   37.70
   1   5 -15  527.45   38.70
   1  -5  15    3.10   14.00
  -1  -5 -15   21.70   30.10
  -1  -5 -15   13.20   20.70
   3  -5  15  726.23   47.20
  -3  -5 -15  561.84   73.29
  -3  -5 -15  649.43   56.99
   5  -5  15   17.20   16.30
  -5  -5 -15   28.60   34.60
  -5  -5 -15   10.70   23.50
   7  -5  15  288.27   33.30
  -7  -5 -15  139.99   45.60
  -9  -5 -15  116.89   45.90
   9  -5  15   86.69   24.20
  11  -5  15   30.10   19.50
  11   5  15    3.10    6.60
  11   5  15   12.00    7.40
  13  -5  15   32.20   22.00
  13   5  15   15.30   10.40
  13   5  15   19.70   10.80
  15  -5  15    4.20   20.50
  15   5  15   24.70   13.40
  15   5  15   -0.50   11.80
 -24  -6  15   38.30   20.30
  24  -6 -15   43.00   29.80
  24   6 -15   -9.30   32.30
  22  -6 -15   42.20   28.50
 -22  -6  15   98.99   24.80
  22   6 -15   27.00   37.50
  20  -6 -15   -6.10   23.50
 -20  -6  15  -12.70   14.00
  20   6 -15   41.70   38.90
  18  -6 -15  298.47   43.10
 -18  -6  15  194.88   31.30
  18   6 -15  193.68   53.39
 -16  -6  15   43.60   19.80
  16  -6 -15   28.00   22.50
  16  -6 -15   54.19   18.10
  16   6 -15    1.80   29.70
  14  -6 -15   92.39   31.40
 -14  -6  15  122.79   23.40
  14  -6 -15  143.99   22.10
 -14  -6  15   69.79   25.00
  14   6 -15  111.89   41.60
 -12  -6  15  380.86   36.10
  12  -6 -15  425.36   47.30
  12  -6 -15  437.26   31.80
  12   6 -15  411.86   56.29
  12   6 -15  398.36   34.90
 -12   6  15  516.65   54.59
  10  -6 -15   72.49   26.30
 -10  -6  15   25.10   18.20
 -10  -6  15   21.90   16.90
  10  -6 -15   18.40   11.30
  10   6 -15  -12.70   22.00
 -10   6  15   28.60   25.60
  10   6 -15    1.10   11.20
  -8  -6  15   -6.70   12.60
   8  -6 -15    1.00   19.40
  -8  -6  15  -13.60   13.00
   8  -6 -15   20.60   10.00
   8   6 -15  -25.50    6.80
   8   6 -15   25.10   24.30
   6  -6 -15   16.00    7.70
  -6  -6  15   42.10   19.10
  -6  -6  15   15.10   13.70
   6  -6 -15   27.90   21.00
   6   6 -15   -3.20   10.80
   6   6 -15   22.10   22.90
  -4  -6  15  263.57   28.80
   4  -6 -15  287.27   39.00
   4  -6 -15  260.37   14.50
  -4  -6  15  186.88   26.50
   4   6 -15  310.87   38.50
   4   6 -15  226.48   27.70
   2  -6 -15  197.58   38.10
  -2  -6  15  234.18   28.00
  -2  -6  15  247.98   26.00
   2   6 -15  236.58   33.30
   2   6 -15  222.48   27.80
   0  -6 -15    4.50   19.10
   0  -6 -15  -41.40   24.30
   0  -6  15    6.90   14.30
   0  -6  15   -0.50    8.80
  -2  -6 -15  271.77   42.70
   2  -6  15  253.27   30.80
  -2  -6 -15  247.38   58.29
   4  -6  15    5.60   14.70
  -4  -6 -15  -41.80   25.40
  -4  -6 -15    6.90   22.10
   8  -6  15   18.60   19.20
  10  -6  15  -10.80   18.00
  12  -6  15   13.70   20.60
  14  -6  15   30.30   24.80
  23  -7 -15  107.59   38.00
 -23  -7  15   73.89   25.30
  23   7 -15  119.09   61.69
  21  -7 -15    1.70   27.60
 -21  -7  15   31.90   18.80
  21   7 -15  -24.40   33.80
 -19  -7  15   51.89   21.80
  19  -7 -15   84.09   32.20
  19   7 -15   28.30   35.50
 -17  -7  15  151.28   29.00
  17  -7 -15  189.08   42.30
  17   7 -15  155.28   51.89
 -15  -7  15   37.30   17.90
  15  -7 -15   15.20   23.30
  15  -7 -15   51.59   17.00
  15   7 -15   23.90   32.90
 -13  -7  15  115.39   23.80
  13  -7 -15   95.69   19.70
  13  -7 -15   77.49   26.40
 -13  -7  15   70.49   28.20
  13   7 -15  169.08   51.39
  11  -7 -15   66.89   15.60
 -11  -7  15  100.19   22.20
 -11  -7  15  144.39   36.30
  11  -7 -15  138.59   33.20
  11   7 -15  102.89   39.70
   9  -7 -15  133.19   18.20
   9  -7 -15  145.09   37.20
  -9  -7  15  176.08   28.50
  -9  -7  15  159.08   33.00
   9   7 -15  128.19   23.00
   9   7 -15   96.59   35.50
  -7  -7  15  303.77   34.20
   7  -7 -15  366.46   24.20
  -7  -7  15  332.87   39.40
   7  -7 -15  376.96   45.60
   7   7 -15  329.57   53.19
   7   7 -15  403.36   35.50
   5  -7 -15   89.99   11.30
  -5  -7  15  114.99   23.30
   5  -7 -15  131.89   32.50
  -5  -7  15   80.99   23.70
   5   7 -15   91.69   21.20
   5   7 -15  103.79   32.90
  -3  -7  15    7.20   14.80
  -3  -7  15   10.70   14.30
   3  -7 -15  -20.30   14.70
   3   7 -15  -23.10   21.80
   3   7 -15    2.20   12.20
   1  -7 -15   54.79   40.20
  -1  -7  15   50.89   16.40
  -1  -7  15   10.60   16.90
   1  -7 -15   22.50   26.10
   1   7 -15   72.79   23.50
   1  -7  15   22.00   10.70
  -1  -7 -15    5.80   20.90
   1  -7  15  -11.30   13.70
  -3  -7 -15   92.29   32.70
   5  -7  15   -6.80   14.30
   7  -7  15   75.59   21.60
   9  -7  15   37.50   22.70
  11  -7  15   34.50   21.50
  13  -7  15   -3.60   21.10
  22  -8 -15   99.89   40.10
 -22  -8  15   23.70   19.00
  22   8 -15  -33.20   35.20
  20  -8 -15   49.50   31.10
 -20  -8  15   68.19   24.10
  20   8 -15  139.59   53.69
 -18  -8  15   57.59   20.30
  18  -8 -15   50.29   31.20
  18   8 -15   85.79   42.30
  16  -8 -15   22.60   17.00
  16  -8 -15   -2.90   20.90
 -16  -8  15   16.20   16.50
  16   8 -15   -2.40   31.30
  14  -8 -15    7.30   13.30
 -14  -8  15   27.60   17.40
  14  -8 -15    2.30   19.30
 -12  -8  15  108.49   32.50
  12  -8 -15  113.69   19.60
 -12  -8  15  124.89   25.70
  12  -8 -15  113.19   32.60
  12   8 -15  101.69   41.20
  10  -8 -15   17.90   29.00
  10  -8 -15   -9.30    9.30
 -10  -8  15    2.20   18.80
  10   8 -15   -1.50   26.40
  -8  -8  15    7.90   16.10
  -8  -8  15   21.80   20.70
   8  -8 -15   25.30   10.70
   8  -8 -15  -24.70   19.90
   8   8 -15   15.80   26.10
  -6  -8  15  -13.60   14.80
   6  -8 -15    7.80    8.50
  -6  -8  15   12.10   14.30
   6  -8 -15   17.70   21.40
   6   8 -15   35.60   26.40
   4  -8 -15   17.10    5.60
  -4  -8  15    4.20   15.20
   4  -8 -15    7.60    5.20
  -4  -8  15  -22.50   15.00
   4  -8 -15    0.30   19.90
   4   8 -15   -4.50   23.70
  -2  -8  15   79.29   22.10
   2   8 -15   60.39   30.00
   0  -8  15   63.69   21.70
   0  -8 -15   62.29   30.60
   0  -8  15   81.59   19.80
  -2  -8 -15   34.30   28.40
   2  -8  15  -18.70   14.80
   2  -8  15   28.90   10.00
   2  -8  15   34.60   10.00
  -4  -8 -15   45.70   28.70
   4  -8  15   70.59   22.20
  -6  -8 -15   25.60   31.30
   6  -8  15   25.20   18.50
   8  -8  15  -24.00   15.50
  10  -8  15  -26.40   18.00
  19  -9 -15   21.20   23.50
 -19  -9  15    6.60   17.60
  19   9 -15   60.69   47.70
 -17  -9  15   61.79   24.40
  17  -9 -15   25.70   23.60
  17   9 -15    8.60   34.50
  15  -9 -15    4.60   25.50
 -15  -9  15    7.00   14.90
  15  -9 -15   10.60   13.80
  15   9 -15  -31.20   28.60
 -13  -9  15   32.80   18.40
  13  -9 -15   74.49   29.70
  13  -9 -15   72.79   21.00
  13   9 -15   22.80   33.20
 -11  -9  15   50.69   18.70
  11  -9 -15   24.80   13.80
  11  -9 -15   31.40   24.30
  11   9 -15   26.10   33.60
  -9  -9  15   26.40   17.40
   9  -9 -15    4.60   10.40
  -9  -9  15    4.60   21.60
   9  -9 -15   16.80   21.40
   9   9 -15    6.70   29.50
  -7  -9  15  194.78   36.60
  -7  -9  15  212.68   32.00
   7  -9 -15  206.08   20.70
   7  -9 -15  233.78   42.10
   7   9 -15  181.88   48.40
   5  -9 -15   10.10    7.60
  -5  -9  15   26.60   22.00
  -5  -9  15   37.10   19.00
   5  -9 -15   16.20    8.10
   5  -9 -15   15.60   23.90
   5   9 -15    0.70   26.00
  -3  -9  15   12.70   19.10
   3  -9 -15    2.80   20.50
  -3  -9  15    2.30   16.30
  -1  -9  15   73.79   23.10
   1  -9 -15   68.49   31.20
  -1  -9  15   72.19   21.30
   1  -9  15   59.99   22.30
   1  -9  15    9.60   15.00
  -1  -9 -15   42.10   28.00
  -3  -9 -15    2.60   27.20
   3  -9  15  -10.30   14.70
  -5  -9 -15  -21.30   25.50
   5  -9  15  -16.20   14.90
   7  -9  15   22.60   19.20
  -7  -9 -15   19.00   33.10
   9  -9  15   57.29   26.80
  18 -10 -15   33.50   30.20
 -18 -10  15   -1.90   16.40
  18  10 -15   43.50   48.40
 -16 -10  15   38.10   20.50
  16 -10 -15    1.80   22.50
  16  10 -15    7.10   44.20
 -14 -10  15   -8.40   15.20
  14 -10 -15   17.60   14.60
  14 -10 -15   20.30   22.50
  14  10 -15   31.30   40.00
  12 -10 -15   47.30   28.80
 -12 -10  15   12.40   18.40
  12  10 -15   14.20   36.10
 -10 -10  15   78.99   24.80
  10 -10 -15   -0.90   20.90
  10 -10 -15   51.79   15.30
  10  10 -15    9.60   32.20
  -8 -10  15   21.60   25.30
   8 -10 -15    6.70   23.70
   8 -10 -15   45.70   13.80
  -8 -10  15   55.09   21.90
   8 -10 -15   54.49   15.00
   8  10 -15   25.40   36.10
  -6 -10  15  -11.60   15.00
   6 -10 -15   12.00    9.80
  -6 -10  15   18.70   24.60
   6 -10 -15   33.80   10.90
   6 -10 -15   11.60   23.80
   6  10 -15   48.40   36.60
   4 -10 -15   10.90   27.00
  -4 -10  15   13.60   17.00
  -4 -10  15    7.80   21.90
   2 -10 -15  107.29   36.90
  -2 -10  15   60.09   22.10
  -2 -10  15   49.70   24.20
   0 -10 -15   36.00   27.70
   0 -10  15   50.39   21.90
   0 -10  15   44.30   21.30
   2 -10  15    5.20   13.30
   2 -10  15  -10.20   13.20
  -2 -10 -15  -35.90   27.60
   2 -10  15   -5.20   14.90
  -4 -10 -15   36.60   36.40
   4 -10  15   17.40   18.20
  -6 -10 -15   42.60   38.00
   6 -10  15   23.80   23.30
  13 -11 -15   -2.40   15.10
 -13 -11  15   13.60   17.50
  13 -11 -15   28.50   28.60
  13  11 -15  -55.69   30.50
 -11 -11  15   -8.30   15.30
  11 -11 -15   -3.80   23.00
  11 -11 -15   22.20   15.40
  11  11 -15  -34.60   32.10
   9 -11 -15   29.30   14.20
   9 -11 -15   -3.00   23.00
   9 -11 -15   25.20   13.00
  -9 -11  15   94.79   24.90
   9  11 -15   75.99   47.20
   7 -11 -15    8.90   28.10
   7 -11 -15   38.30   12.80
  -7 -11  15    5.90   18.00
   7 -11 -15   18.30   20.60
   7  11 -15   36.80   41.20
  -5 -11  15  -22.50   15.30
   5 -11 -15    4.60    8.30
   5 -11 -15   41.90   29.70
  -5 -11  15   16.20   24.00
   5 -11 -15   16.40    9.40
   3 -11 -15   18.60   26.50
  -3 -11  15   33.60   25.90
  -3 -11  15   13.60   20.10
   1 -11 -15   66.89   34.40
  -1 -11  15   -9.00   15.70
  -1 -11  15  -21.90   19.90
   1 -11  15   33.20   22.50
   1 -11  15  -16.60   16.30
  -1 -11 -15   11.50   27.50
  -3 -11 -15   21.40   29.30
   3 -11  15   40.10   23.30
   3 -11  15   60.19   16.10
   3 -11  15   55.19   17.90
   8 -12 -15   33.90   14.70
  -8 -12  15    4.30   19.30
   8 -12 -15   23.20   30.70
   8 -12 -15   30.70   14.00
   6 -12 -15   -5.10   24.50
  -6 -12  15   -1.00   18.00
   6 -12 -15   11.30   10.40
   6 -12 -15    8.60   14.20
  -4 -12  15    8.90   18.20
   4 -12 -15   -8.40   26.90
  -4 -12  15   25.90   27.80
  26   0 -16   -9.00   27.80
 -26   0  16  -16.30   15.50
  24   0 -16  403.36   59.89
 -24   0  16  368.06   40.40
 -22   0  16    0.40   14.80
  22   0 -16   72.79   33.50
 -20   0  16  959.30   61.69
  20   0 -16  987.70   81.39
  18   0 -16  843.52   70.19
 -18   0  16  793.72   63.49
 -18   0  16  870.61   55.09
  18   0 -16  844.82   52.49
  16   0 -16  307.57   42.00
 -16   0  16  294.47   37.20
 -16   0  16  307.77   30.10
 -14   0  16    5.10   14.10
 -14   0  16  -11.40    9.00
  14   0 -16  -10.70    7.70
  14   0 -16    0.40   16.90
  12   0 -16  373.26   40.30
 -12   0  16  344.47   36.50
 -12   0  16  453.75   31.80
  12   0 -16  396.56   29.20
 -10   0  16   77.89   16.10
 -10   0  16   92.59   22.60
  10   0 -16   93.19   15.40
  10   0 -16   52.79   20.20
  -8   0  16 1384.16   65.39
   8   0 -16 1329.07   75.79
  -8   0  16 1350.96   74.29
   8   0 -16 1364.56   64.59
  -6   0  16  533.65   40.20
   6   0 -16  534.45   31.50
  -6   0  16  496.65   31.80
  -4   0  16 1147.39   64.59
  -4   0  16 1260.67   57.79
   4   0 -16 1183.38   65.09
   4   0 -16 1205.98   56.99
   2   0 -16  267.87   21.90
  -2   0  16  303.27   23.00
  -2   0  16  267.07   32.50
   2   0 -16  356.56   29.60
   0   0 -16  860.51   50.09
   0   0  16  878.01   44.60
  -2   0 -16   22.20   13.60
   2   0  16    8.30    9.40
   4   0  16   17.10   19.80
  -4   0 -16   -0.80   21.80
  -4   0 -16    9.90   12.60
   6   0  16   -2.20   10.60
  -6   0 -16   19.30   20.80
  -6   0 -16   35.70   15.70
  -8   0 -16   29.90   21.80
   8   0  16   15.90   14.40
  -8   0 -16  -12.10   12.90
   8   0  16   18.20   14.30
  10   0  16   38.00   17.10
  10   0  16   81.49   20.40
 -10   0 -16   76.19   20.90
  12   0  16   80.09   21.90
 -12   0 -16  108.49   23.60
 -12   0 -16   85.29   25.80
  12   0  16   79.89   22.90
  14   0  16    1.30   19.50
 -14   0 -16    8.20   19.00
  14   0  16   37.30   20.20
 -14   0 -16   32.70   20.50
 -16   0 -16   57.29   37.20
 -16   0 -16   56.29   23.00
  16   0  16   43.30   35.60
  27  -1 -16   -7.40   30.00
 -27  -1  16   12.90   19.40
 -27   1  16   25.90   21.20
  27   1 -16   -9.10   26.90
  25  -1 -16   -5.30   26.90
 -25  -1  16    8.00   14.50
  25   1 -16   18.80   27.30
 -25   1  16    5.70   15.70
 -23  -1  16   14.80   16.10
  23  -1 -16    2.10   24.00
  23   1 -16    2.10   25.90
 -23   1  16   14.50   17.30
 -21  -1  16  130.69   26.60
  21  -1 -16  251.37   54.39
  21   1 -16  152.78   39.60
 -21   1  16  158.98   28.20
  19  -1 -16  213.28   31.10
 -19  -1  16  236.78   31.00
  19  -1 -16  343.67   47.00
  19   1 -16  294.07   54.49
 -19   1  16  278.67   31.90
 -17  -1  16   27.20   16.40
  17  -1 -16   72.09   29.80
  17  -1 -16   36.10   15.40
 -17  -1  16   28.70   22.50
 -17   1  16   13.10   15.00
 -17   1  16   34.60   20.40
  17   1 -16   67.79   30.60
  17   1 -16   32.50   15.30
  15  -1 -16  150.28   22.50
 -15  -1  16  138.39   36.30
 -15  -1  16  126.79   23.10
  15  -1 -16  168.18   35.10
  15   1 -16  168.28   21.60
  15   1 -16  148.59   34.30
 -15   1  16  153.88   24.00
  13  -1 -16  -10.70    7.10
 -13  -1  16    8.90   14.70
  13  -1 -16  -14.00   12.00
 -13  -1  16   -7.80   10.20
  13   1 -16   -7.40   14.90
  13   1 -16   -0.50    9.10
 -13   1  16   18.50   16.80
 -13   1  16   -2.60    9.40
  11  -1 -16   89.49   26.20
  11  -1 -16   52.49   12.70
 -11  -1  16   34.40   15.40
 -11  -1  16   59.69   15.00
 -11   1  16   47.70   14.00
 -11   1  16   72.09   22.50
  11   1 -16   57.79   24.10
  11   1 -16   30.80   12.40
   9  -1 -16   37.10   11.00
   9  -1 -16   16.10   15.80
  -9  -1  16   50.19   16.90
  -9  -1  16   52.59   14.30
  -9   1  16   69.39   20.50
   9   1 -16   50.09   12.30
   9   1 -16   24.90   17.10
  -9   1  16   67.29   16.40
  -7  -1  16  263.87   29.10
   7  -1 -16  325.57   22.70
  -7  -1  16  311.87   25.40
   7  -1 -16  290.07   31.80
  -7   1  16  281.07   22.90
  -7   1  16  324.87   31.90
   7   1 -16  315.87   24.20
  -5  -1  16  370.76   32.30
  -5  -1  16  357.06   27.90
   5  -1 -16  424.16   25.40
   5  -1 -16  343.27   34.10
   5   1 -16  437.46   34.80
  -5   1  16  408.96   35.90
  -5   1  16  392.26   25.90
   5   1 -16  407.26   27.20
   3  -1 -16   24.50    8.50
  -3  -1  16   62.39   16.30
   3  -1 -16   23.10   15.50
  -3   1  16   25.40   14.70
  -3   1  16   40.00   10.60
   3   1 -16   37.00   11.00
   3   1 -16   38.00   14.90
  -1  -1  16    3.30   17.50
   1  -1 -16   17.10   14.00
   1  -1 -16    6.10    7.50
  -1  -1  16   27.40   13.00
   1   1 -16   23.90   10.60
  -1   1  16   29.50    9.70
   1   1 -16   28.30   13.50
  -1  -1 -16   50.29   17.00
   1  -1  16   30.80   12.20
  -1   1 -16   27.10   12.60
   1   1  16   50.19   11.00
  -3  -1 -16   10.00   13.70
   3  -1  16   12.30   11.70
  -3  -1 -16   12.00   19.60
  -3   1 -16    5.70   10.00
  -3   1 -16   -9.50   14.50
   3   1  16    0.50    8.00
  -5  -1 -16    4.80   14.10
   5  -1  16    1.60   11.40
  -5  -1 -16  -13.60   22.70
   5   1  16    3.00   10.10
  -5   1 -16    8.10   15.50
  -5   1 -16   32.00   11.70
  -7  -1 -16   30.20   26.70
  -7  -1 -16   39.90   19.00
   7  -1  16   33.50   15.80
   7   1  16    2.10   13.40
   7   1  16   50.49   15.70
  -7   1 -16   26.60   15.90
  -7   1 -16   26.80   13.00
   9  -1  16   43.90   18.60
  -9  -1 -16    9.70   21.90
  -9  -1 -16   38.80   26.00
   9  -1  16   22.40   15.40
  -9   1 -16   20.60   13.90
   9   1  16   -1.00   12.60
  -9   1 -16   16.40   12.60
   9   1  16    7.90   14.10
  11  -1  16   20.10   16.20
 -11  -1 -16   12.90   21.00
  11  -1  16    6.60   16.50
 -11  -1 -16   25.60   24.90
  11   1  16    4.40   14.70
 -11   1 -16    2.90   12.40
 -11   1 -16    6.30   11.90
  11   1  16    7.40   14.50
 -13  -1 -16    9.20   20.70
 -13  -1 -16   -3.60   22.90
  13  -1  16   -9.10   16.90
  13   1  16   19.10   16.90
  13   1  16   24.00   16.10
 -13   1 -16   16.20   13.90
 -13   1 -16   -3.90   13.50
 -15  -1 -16   38.20   27.40
  15  -1  16   -2.10   21.10
  15   1  16   24.20   19.00
 -15   1 -16   24.40   13.90
 -15   1 -16   18.80   14.70
  15   1  16   -1.10   18.30
 -26  -2  16  253.67   38.00
  26  -2 -16  296.97   58.69
 -26   2  16  290.07   39.50
  26   2 -16  200.78   54.09
 -24  -2  16   21.40   18.90
  24  -2 -16  -26.70   18.80
 -24   2  16    2.60   15.10
  24   2 -16   -5.80   22.90
 -22  -2  16   89.89   24.10
  22  -2 -16  101.79   35.50
 -22   2  16   82.59   25.30
  22   2 -16   64.09   33.60
  20  -2 -16  754.32   86.09
 -20   2  16  768.02   53.69
  18  -2 -16  127.89   23.50
 -18  -2  16  103.99   30.50
  18  -2 -16  141.29   34.00
 -18  -2  16   93.49   21.40
 -18   2  16   68.79   20.60
  18   2 -16   96.19   37.40
  18   2 -16   97.89   22.90
 -18   2  16   73.59   27.50
  16  -2 -16 1090.59   76.09
  16  -2 -16 1089.49   59.09
 -16  -2  16 1017.60   71.19
 -16  -2  16 1045.60   60.89
  16   2 -16 1055.39   59.29
  16   2 -16 1037.60   79.49
 -16   2  16 1007.60   59.39
 -16   2  16  958.10   69.59
 -14  -2  16   15.30   17.10
 -14  -2  16   25.20   13.90
  14  -2 -16   24.80   12.20
  14  -2 -16   29.80   21.50
 -14   2  16   -7.80   14.50
  14   2 -16  -22.90   13.40
 -14   2  16   48.00   14.40
  14   2 -16   14.70   11.20
 -12  -2  16   -6.00   10.30
  12  -2 -16  -15.20    6.90
 -12  -2  16   14.70   14.70
  12  -2 -16   37.00   17.60
  12   2 -16   -6.30    8.30
 -12   2  16   -2.20    9.30
 -12   2  16   -7.90   12.60
  12   2 -16   -3.20   15.50
  10  -2 -16 1219.58   72.79
  10  -2 -16 1094.49   56.59
 -10  -2  16 1224.68   69.29
 -10  -2  16 1178.08   61.29
 -10   2  16 1183.18   71.79
  10   2 -16 1128.29   71.99
  10   2 -16 1171.78   59.89
 -10   2  16 1189.08   58.59
  -8  -2  16   40.60   16.60
   8  -2 -16   54.59   19.40
  -8  -2  16   70.99   16.00
   8  -2 -16   75.49   12.10
  -8   2  16   49.30   12.60
   8   2 -16   56.49   20.40
   8   2 -16   81.09   14.80
  -8   2  16   59.69   20.20
   6  -2 -16  215.98   18.10
  -6  -2  16  249.68   26.20
  -6  -2  16  204.38   22.80
   6  -2 -16  192.38   28.70
  -6   2  16  220.28   30.10
  -6   2  16  245.98   19.20
   6   2 -16  202.68   27.30
   6   2 -16  269.47   22.50
   4  -2 -16  345.67   33.80
  -4  -2  16  373.16   27.50
   4  -2 -16  326.27   21.30
  -4  -2  16  373.06   29.50
   4   2 -16  371.86   26.80
   4   2 -16  244.38   27.50
  -4   2  16  346.27   22.20
  -4   2  16  330.07   33.80
   2  -2 -16    3.10   12.90
  -2  -2  16  -15.50    8.40
  -2  -2  16    4.00    9.80
   2  -2 -16   15.30    7.20
   2   2 -16   -2.80    8.60
  -2   2  16   -4.90    6.60
   2   2 -16   13.50   11.70
   0  -2  16  441.46   32.60
   0  -2 -16  512.65   40.50
   0   2  16  493.65   26.50
   0   2 -16  475.65   31.10
  -2  -2 -16   93.39   32.50
  -2  -2 -16  122.09   25.10
   2  -2  16  169.08   21.20
  -2   2 -16  141.99   15.80
   2   2  16  128.29   14.60
  -4  -2 -16  130.69   35.00
  -4  -2 -16  116.19   24.50
   4  -2  16  103.39   19.20
  -4   2 -16   76.29   14.50
   4   2  16  140.99   15.30
  -4   2 -16   78.29   11.90
  -6  -2 -16   48.70   31.40
  -6  -2 -16  101.29   26.40
   6  -2  16   93.99   20.00
   6   2  16  111.99   16.20
   6   2  16  120.89   17.80
   8  -2  16   19.30   16.40
  -8  -2 -16   35.60   21.00
  -8  -2 -16   33.40   29.50
   8   2  16   18.30   11.10
   8   2  16   35.30   12.60
  10  -2  16  100.29   23.00
 -10  -2 -16  155.98   34.20
 -10  -2 -16  112.89   37.00
  10  -2  16   77.19   22.70
  10   2  16   84.39   17.90
  10   2  16  139.09   19.90
  12  -2  16   29.40   20.20
 -12  -2 -16   15.50   29.90
  12   2  16   41.90   16.50
  12   2  16   24.20   16.00
 -14  -2 -16   96.19   36.20
  14  -2  16   94.29   26.90
  14   2  16  114.99   23.10
  14   2  16   81.29   21.40
  16  -2  16   31.10   24.60
 -16  -2 -16   76.39   34.70
  16   2  16    4.80   18.00
  16   2  16   34.00   21.10
  27  -3 -16   -3.80   26.20
 -27  -3  16  -19.90   15.90
 -27   3  16  -10.60   18.60
  27   3 -16   -4.90   35.50
  25  -3 -16   25.50   27.60
 -25  -3  16   19.70   19.20
  25   3 -16  -18.00   28.90
 -25   3  16   30.80   18.60
 -23  -3  16   32.10   20.70
  23  -3 -16    5.40   24.20
  23   3 -16   36.30   35.60
 -23   3  16   26.60   19.00
  21  -3 -16   -3.00   21.80
 -21  -3  16    7.20   16.00
  21   3 -16   -4.50   23.40
 -21   3  16   63.39   21.00
 -19  -3  16   13.80   17.30
  19  -3 -16   -1.30   21.60
 -19   3  16   14.90   15.20
  19   3 -16   17.80   26.20
 -17  -3  16  265.67   31.10
  17  -3 -16  215.08   27.10
  17  -3 -16  302.47   43.00
 -17  -3  16  242.58   38.20
  17   3 -16  287.77   52.69
  17   3 -16  267.07   29.10
 -17   3  16  256.27   30.60
 -17   3  16  283.97   40.00
  15  -3 -16  -17.60    9.70
  15  -3 -16    2.20   20.20
 -15  -3  16  -10.00   14.80
 -15  -3  16   -3.60   13.20
  15   3 -16   -2.90   11.00
 -15   3  16  -11.90   11.60
 -15   3  16  -12.50   17.20
  15   3 -16   34.20   26.20
 -13  -3  16   21.80   17.70
  13  -3 -16   20.70   10.60
 -13  -3  16   14.00   12.80
  13  -3 -16   36.70   19.90
 -13   3  16   20.80   13.20
  13   3 -16    9.90   21.20
  13   3 -16   16.10   12.80
 -13   3  16   15.60   19.20
  11  -3 -16  202.38   36.50
 -11  -3  16  206.38   29.30
  11  -3 -16  133.29   18.30
 -11  -3  16  168.88   25.20
  11   3 -16  225.98   35.20
 -11   3  16  234.88   32.70
  11   3 -16  190.48   22.20
 -11   3  16  226.58   22.10
  -9  -3  16  224.88   25.40
   9  -3 -16  271.37   20.70
   9  -3 -16  213.98   31.50
  -9  -3  16  253.67   29.70
   9   3 -16  211.28   23.30
  -9   3  16  236.88   33.60
   9   3 -16  227.48   33.70
  -9   3  16  285.07   22.70
  -7  -3  16   42.70   14.60
  -7  -3  16   48.90   17.80
   7  -3 -16   51.29   10.70
   7  -3 -16   61.59   21.40
   7   3 -16   54.39   13.60
  -7   3  16   65.99   13.10
  -7   3  16   79.89   23.50
   7   3 -16   48.20   22.40
   5  -3 -16  133.99   26.90
  -5  -3  16  142.39   20.50
   5  -3 -16  166.88   14.50
  -5   3  16  136.59   14.80
  -5   3  16  127.49   28.10
   5   3 -16  218.38   26.40
   5   3 -16  142.89   19.00
   3  -3 -16   10.00   15.40
  -3  -3  16    4.50   10.70
   3  -3 -16    6.90    6.20
  -3  -3  16  -11.00   10.00
   3   3 -16   -7.20   11.50
   3   3 -16    6.20    9.00
  -3   3  16   -0.50    6.40
  -1  -3  16  113.59   17.90
  -1  -3  16  155.98   21.00
   1  -3 -16  182.48   30.20
   1   3 -16  144.49   19.90
  -1   3  16  138.89   12.20
   1   3 -16  155.88   19.70
  -1  -3 -16   34.30   19.10
   1  -3  16   24.50   13.00
  -1   3 -16   19.30    9.90
   1   3  16   24.70    6.50
  -3  -3 -16   20.30   17.20
  -3  -3 -16   -7.70   27.10
   3  -3  16   26.60   15.50
   3   3  16   15.30    7.00
   3   3  16    8.40    6.90
  -5  -3 -16   20.50   22.40
  -5  -3 -16   -0.50   28.60
   5  -3  16    7.10   15.00
   5   3  16  -11.10    7.10
   5   3  16   16.30    8.00
   7  -3  16  -15.50   13.70
  -7  -3 -16   25.40   31.00
  -7  -3 -16   47.90   24.80
   7   3  16    6.50    8.70
   7   3  16    1.90    9.30
  -9  -3 -16   38.10   33.30
   9  -3  16  -10.90   14.90
  -9  -3 -16   44.30   28.50
   9   3  16   61.89   14.30
   9   3  16   31.60   10.70
  11  -3  16   -0.70   16.30
 -11  -3 -16   32.70   36.20
  11   3  16   21.30   16.50
  11   3  16   14.20   13.20
 -13  -3 -16   -2.10   34.80
  13  -3  16   30.20   20.10
  13   3  16   23.50   15.10
  13   3  16   31.40   15.30
 -15  -3 -16   14.80   35.10
  15  -3  16    3.60   18.90
  15   3  16   26.20   18.00
  15   3  16   19.00   16.30
  26  -4 -16   60.59   34.80
 -26  -4  16   83.89   26.80
 -26   4  16   36.80   22.10
  26   4 -16   13.60   33.10
  24  -4 -16   -6.70   23.60
 -24  -4  16   36.90   19.60
 -24   4  16   -8.30   17.50
  24   4 -16   -2.40   32.70
  22  -4 -16   13.80   25.30
 -22  -4  16  -13.30   14.30
 -22   4  16    3.10   16.10
  22   4 -16   -9.60   25.80
 -20  -4  16  329.37   40.80
  20  -4 -16  461.85   54.29
  20   4 -16  419.26   63.29
 -18  -4  16   66.09   22.80
  18  -4 -16   88.39   21.60
  18  -4 -16   73.19   29.10
 -18   4  16   68.99   20.50
  18   4 -16   86.99   36.00
  16  -4 -16  997.40   75.39
 -16  -4  16 1051.99   75.29
 -16  -4  16 1088.59   63.99
 -16   4  16 1050.19   75.49
  16   4 -16 1003.90   84.39
  16   4 -16 1108.09   62.99
 -16   4  16 1101.19   62.19
  14  -4 -16  543.95   51.19
 -14  -4  16  495.25   40.00
  14  -4 -16  568.04   37.30
 -14   4  16  510.75   38.10
  14   4 -16  502.35   57.19
 -14   4  16  519.15   51.39
  14   4 -16  547.45   39.40
  12  -4 -16  201.38   33.50
 -12  -4  16  226.58   32.50
 -12  -4  16  209.78   26.50
  12  -4 -16  236.78   22.90
 -12   4  16  243.28   24.40
 -12   4  16  327.87   54.79
  12   4 -16  192.18   42.00
  12   4 -16  239.98   29.60
  10  -4 -16  670.93   53.49
  10  -4 -16  667.83   37.00
 -10  -4  16  690.83   44.10
 -10  -4  16  593.54   48.40
  10   4 -16  616.44   55.19
 -10   4  16  628.94   53.69
  10   4 -16  624.74   40.80
   8  -4 -16   17.60    9.20
   8  -4 -16    0.10   16.50
  -8  -4  16  -16.30   12.00
  -8  -4  16   17.70   13.30
   8   4 -16  -20.70    7.10
  -8   4  16  -19.60   14.00
  -8   4  16    1.90    8.90
   8   4 -16   19.70   17.70
   6  -4 -16  240.58   37.90
  -6  -4  16  238.08   26.90
   6  -4 -16  244.68   17.10
  -6  -4  16  167.68   24.30
   6   4 -16  165.28   30.70
  -6   4  16  156.28   30.60
   6   4 -16  228.58   23.60
  -6   4  16  222.58   17.80
  -4  -4  16   10.50   11.30
   4  -4 -16    3.70    5.50
   4  -4 -16   -5.40   15.00
  -4  -4  16    2.10   11.60
  -4   4  16   -1.20    6.10
   4   4 -16   19.30   12.60
   4   4 -16   11.40   15.90
  -2  -4  16   55.59   14.10
   2  -4 -16   57.39   21.00
  -2  -4  16   49.70   16.30
   2   4 -16   38.80   16.60
  -2   4  16   44.40    6.20
   2   4 -16   37.80   12.60
   0  -4  16  100.59   14.40
   0  -4  16   94.79   19.90
   0  -4 -16  110.59   27.80
   0   4 -16  127.99   19.50
  -2  -4 -16  138.09   29.80
  -2  -4 -16  158.78   43.40
   2  -4  16  130.09   22.40
   4  -4  16   21.10   15.00
  -4  -4 -16   -2.50   26.00
  -4  -4 -16   58.89   25.00
  -6  -4 -16  166.28   45.40
  -6  -4 -16  228.48   39.70
   8  -4  16  -18.40   14.20
  -8  -4 -16    2.20   29.80
  -8  -4 -16  -11.50   25.10
   8   4  16    3.20    7.60
   8   4  16    4.70    7.70
  10  -4  16   97.09   25.00
 -10  -4 -16  238.08   55.29
  10   4  16  162.98   17.40
  10   4  16  139.39   16.30
  12  -4  16   -6.30   18.60
 -12  -4 -16   27.60   38.80
  12   4  16   10.40   11.10
  14  -4  16   91.59   27.20
  14   4  16  100.29   24.50
  14   4  16   68.69   16.30
  25  -5 -16  -26.40   20.20
 -25  -5  16   28.50   21.00
 -25   5  16   13.80   19.00
  25   5 -16  -16.70   27.40
  23  -5 -16  -23.70   21.20
 -23  -5  16   17.90   17.30
  23   5 -16  -23.70   27.50
 -23   5  16   13.70   21.00
 -21  -5  16   29.50   18.20
  21  -5 -16   28.70   26.60
  21   5 -16    8.30   29.50
 -21   5  16   79.39   23.40
 -19  -5  16    6.80   16.00
  19  -5 -16   63.09   31.10
 -19   5  16   54.49   20.60
  19   5 -16   49.50   31.70
  17  -5 -16   92.79   31.10
  17  -5 -16  156.18   24.80
 -17  -5  16  222.58   41.80
  17   5 -16  179.38   47.50
 -17   5  16  124.19   25.20
  15  -5 -16   18.30   12.40
 -15  -5  16   32.90   16.40
 -15  -5  16    1.80   17.10
  15  -5 -16   17.10   24.40
  15   5 -16   25.80   29.00
 -15   5  16   61.99   42.90
 -15   5  16   75.29   18.60
  13  -5 -16    7.80   11.40
 -13  -5  16   -3.00   13.00
  13  -5 -16   -5.60   17.10
 -13   5  16   22.30   21.90
 -13   5  16   -1.60   10.30
  13   5 -16   16.40   12.90
  13   5 -16   31.10   26.90
 -11  -5  16  165.08   31.60
  11  -5 -16  154.28   18.70
  11  -5 -16  161.78   32.30
 -11  -5  16  107.49   22.20
 -11   5  16  136.49   35.30
  11   5 -16  148.49   23.10
 -11   5  16  141.39   20.00
  11   5 -16  140.19   36.10
  -9  -5  16  179.48   25.50
   9  -5 -16  167.18   33.60
  -9  -5  16  147.99   29.30
   9  -5 -16  112.29   15.30
  -9   5  16  112.39   17.00
   9   5 -16  106.79   32.20
  -9   5  16  111.09   31.60
   9   5 -16  108.19   20.00
   7  -5 -16   30.40    9.20
  -7  -5  16   41.60   16.80
   7  -5 -16    4.70   18.90
  -7  -5  16   15.80   15.70
   7   5 -16   28.10   22.30
   7   5 -16   46.00   23.30
  -7   5  16   20.00   10.10
   5  -5 -16   12.80    6.50
  -5  -5  16   34.10   14.80
  -5  -5  16   15.90   13.50
   5  -5 -16    1.60   17.00
   5   5 -16    7.90   12.80
   5   5 -16   -5.00   14.90
   3  -5 -16    7.70   18.90
  -3  -5  16    9.60   12.20
  -3  -5  16   14.90   13.70
   3   5 -16    8.20   20.70
   3   5 -16   30.60   19.40
  -1  -5  16    1.40   12.70
   1  -5 -16  -20.40   15.00
  -1  -5  16   -2.30    9.90
   1   5 -16   16.90   15.30
   1   5 -16   12.80   14.60
  -1  -5 -16  307.17   41.50
  -1  -5 -16  211.38   71.99
   1  -5  16  318.97   32.20
  -3  -5 -16  -15.90   19.50
  -3  -5 -16    1.30   31.90
   3  -5  16   -3.50   13.10
  -5  -5 -16  -18.80   28.30
   5  -5  16   71.49   21.80
  -5  -5 -16   47.70   26.70
  -7  -5 -16    4.40   27.20
   7  -5  16   21.70   20.90
  -7  -5 -16   16.00   33.00
   9  -5  16   39.60   19.30
  11  -5  16   61.79   24.30
  13  -5  16   21.50   21.40
  13   5  16  -14.30    8.40
  13   5  16   -8.10    8.60
 -24  -6  16   45.00   22.70
  24  -6 -16   41.60   28.30
  24   6 -16   88.69   49.30
 -22  -6  16   -8.60   14.60
  22  -6 -16    0.30   24.00
  22   6 -16   -6.60   31.40
 -20  -6  16  142.89   28.50
  20  -6 -16   36.50   27.80
  20   6 -16   77.89   43.00
  18  -6 -16   -0.40   20.50
 -18  -6  16   -2.90   17.10
 -18   6  16   -2.10   14.10
  18   6 -16   19.60   33.50
 -16  -6  16  278.37   33.00
  16  -6 -16  252.57   28.50
  16   6 -16  236.08   55.09
 -16   6  16  276.37   31.70
  14  -6 -16  375.56   31.60
 -14  -6  16  368.06   44.80
 -14  -6  16  386.66   35.60
  14  -6 -16  288.97   43.10
  14   6 -16  324.47   52.99
 -14   6  16  354.66   32.60
 -12  -6  16  110.99   23.90
  12  -6 -16  140.29   35.50
  12  -6 -16  115.19   18.90
  12   6 -16   74.49   32.10
 -12   6  16   71.99   33.50
  12   6 -16  161.98   26.90
  10  -6 -16   70.29   14.70
 -10  -6  16   51.19   21.80
  10  -6 -16   42.00   23.90
 -10  -6  16   83.39   20.50
 -10   6  16  117.79   35.40
  10   6 -16  109.19   36.90
  10   6 -16   96.09   21.60
  -8  -6  16   31.10   16.00
   8  -6 -16   -0.50    7.80
   8  -6 -16    2.40   20.50
  -8  -6  16   -4.40   13.70
   8   6 -16  -37.90   18.10
   8   6 -16   -2.80   12.00
  -6  -6  16   79.19   20.10
  -6  -6  16   65.29   20.30
   6  -6 -16   59.09   10.40
   6  -6 -16   89.09   30.90
   6   6 -16   61.49   27.80
   6   6 -16   62.59   18.20
  -4  -6  16   92.69   21.10
  -4  -6  16  110.59   22.20
   4  -6 -16   86.39    8.50
   4  -6 -16  109.39   29.50
   4   6 -16   90.19   27.50
   4   6 -16   79.49   19.80
   2  -6 -16   33.10   24.00
  -2  -6  16   51.79   15.10
  -2  -6  16   55.29   20.30
   2   6 -16   49.50   17.60
   2   6 -16  -16.00   15.70
   0  -6 -16   62.99   26.70
   0  -6  16   17.70   15.60
   0  -6  16   49.80   11.40
   0  -6 -16   42.20   37.60
  -2  -6 -16  187.48   40.00
  -2  -6 -16   54.19   37.80
   2  -6  16  101.89   22.30
  -4  -6 -16   29.30   37.50
  -4  -6 -16   32.40   25.90
   4  -6  16   21.80   16.70
  -6  -6 -16  156.38   37.90
   6  -6  16  158.28   28.50
   8  -6  16    9.10   20.10
  10  -6  16   74.69   26.40
  12  -6  16   16.10   18.80
  23  -7 -16   16.20   27.80
 -23  -7  16   -2.60   15.70
  23   7 -16   15.30   41.60
 -21  -7  16   93.89   26.90
  21  -7 -16  132.39   39.80
  21   7 -16  188.58   62.99
 -19  -7  16   37.80   20.20
  19  -7 -16    1.90   23.90
  19   7 -16   28.50   37.40
  17  -7 -16  -16.30   16.80
 -17  -7  16   -0.60   16.40
  17   7 -16  -38.30   25.60
 -15  -7  16  204.58   31.40
  15  -7 -16  275.07   42.60
  15  -7 -16  167.28   25.30
  15   7 -16  189.08   49.60
 -13  -7  16   -9.10   17.70
  13  -7 -16   11.10   12.50
  13   7 -16   33.20   32.60
  11  -7 -16  169.88   37.60
 -11  -7  16  254.17   43.70
  11  -7 -16  144.39   20.40
 -11  -7  16  112.59   24.40
  11   7 -16   90.89   34.90
  -9  -7  16  112.79   23.90
  -9  -7  16  120.09   29.60
   9  -7 -16  160.98   37.10
   9  -7 -16  116.99   17.10
   9   7 -16  125.19   38.20
   7  -7 -16   -6.20   20.00
  -7  -7  16   12.40   15.90
  -7  -7  16  -10.60   16.50
   7  -7 -16   15.00    8.40
   7   7 -16  -23.50   22.50
  -5  -7  16  117.59   23.60
   5  -7 -16   91.09   10.80
  -5  -7  16   93.79   23.20
   5  -7 -16   80.59   28.00
   5   7 -16  111.99   33.20
  -3  -7  16   -0.10   13.80
   3  -7 -16    3.90   23.70
  -3  -7  16  -23.90   11.90
   3   7 -16   -0.90   21.40
  -1  -7  16   31.70   14.10
   1  -7 -16   41.60   25.70
  -1  -7  16   35.10   18.30
  -1  -7 -16  106.99   32.10
   1  -7  16   94.39   35.90
   1  -7  16  136.19   14.30
  -3  -7 -16    8.00   28.40
   3  -7  16   21.60   18.70
  -5  -7 -16   34.10   29.70
   5  -7  16   49.60   20.00
   7  -7  16   39.30   20.50
  -7  -7 -16  -12.20   23.80
   9  -7  16   10.00   20.10
  11  -7  16   -0.20   18.40
 -22  -8  16   -2.30   19.10
  22  -8 -16    6.40   25.70
  22   8 -16   32.40   47.40
 -20  -8  16  181.98   32.90
  20  -8 -16  162.28   40.80
  20   8 -16   71.59   49.90
  18  -8 -16    7.10   20.60
 -18  -8  16   14.80   17.00
  18   8 -16   -5.50   30.60
  16  -8 -16  120.69   22.80
 -16  -8  16   76.09   23.40
  16  -8 -16  108.19   35.40
  16   8 -16  124.09   50.49
  14  -8 -16    0.20   25.00
 -14  -8  16   23.00   16.00
  14  -8 -16    9.90   15.70
  12  -8 -16   54.19   26.40
 -12  -8  16   33.10   18.60
  12  -8 -16   30.10   13.80
 -12  -8  16   11.30   21.20
  12   8 -16   -1.90   30.00
  10  -8 -16   73.19   15.80
  10  -8 -16   30.00   26.90
 -10  -8  16   81.59   28.10
 -10  -8  16  101.19   23.70
  10   8 -16   58.69   32.70
   8  -8 -16   38.70   12.90
   8  -8 -16   84.19   28.30
  -8  -8  16  114.39   30.50
  -8  -8  16  145.19   27.90
   8   8 -16  132.79   40.80
   6  -8 -16   21.20   24.50
  -6  -8  16   49.00   22.90
   6  -8 -16  -15.10    6.50
  -6  -8  16    6.80   15.60
   6   8 -16   -3.80   25.90
   4  -8 -16  102.59   32.60
  -4  -8  16  140.99   26.30
  -4  -8  16   85.39   23.50
   4   8 -16  117.49   34.10
   2  -8 -16   14.00   24.40
  -2  -8  16   92.59   21.60
  -2  -8  16   55.79   19.00
   0  -8 -16   47.10   28.40
   0  -8  16   50.39   15.30
   0  -8  16   44.20   20.10
  -2  -8 -16   26.90   25.90
   2  -8  16   15.60   17.40
   4  -8  16  117.69   27.10
  -4  -8 -16  137.19   39.30
   6  -8  16    6.90   19.10
  -6  -8 -16   45.90   32.10
  -8  -8 -16   32.60   34.00
   8  -8  16   26.00   20.30
  10  -8  16   36.10   23.80
 -19  -9  16    6.30   16.40
  19  -9 -16    1.90   23.00
  19   9 -16   38.10   44.00
 -17  -9  16  116.09   26.40
  17  -9 -16   88.49   34.80
  17   9 -16   40.70   44.70
 -15  -9  16   20.50   17.70
  15  -9 -16    9.60   13.70
  15  -9 -16   -2.00   20.30
  15   9 -16   52.19   38.70
  13  -9 -16  -32.20   18.70
 -13  -9  16   32.50   21.50
  13  -9 -16    1.40   14.90
  13   9 -16   11.80   31.50
  11  -9 -16   75.39   17.30
  11  -9 -16   19.50   24.10
 -11  -9  16  103.79   25.80
  11   9 -16   38.00   34.80
  -9  -9  16   77.89   29.80
   9  -9 -16   88.69   16.90
  -9  -9  16   83.59   24.10
   9  -9 -16   67.69   33.00
   9   9 -16  101.39   43.60
  -7  -9  16   45.60   23.90
  -7  -9  16    7.20   17.90
   7  -9 -16   22.70   10.20
   7  -9 -16   24.70   11.00
   7  -9 -16   32.60   24.60
   7   9 -16   13.30   30.00
  -5  -9  16   41.90   20.30
   5  -9 -16   15.90   24.20
   5  -9 -16   62.69    8.80
  -5  -9  16   77.99   25.80
   5  -9 -16   51.19    8.30
   5   9 -16   22.00   28.50
  -3  -9  16   39.30   20.10
   3  -9 -16   45.20   30.50
  -3  -9  16    1.80   16.30
   1  -9 -16   34.40   28.30
  -1  -9  16   18.20   16.50
  -1  -9  16   -1.00   16.00
   1  -9  16   46.70   20.70
   1  -9  16  104.99   18.90
  -1  -9 -16   61.99   30.70
   3  -9  16  -29.80   13.20
  -3  -9 -16   38.10   31.90
   5  -9  16   45.20   21.60
  -5  -9 -16   31.00   34.10
  -7  -9 -16   -1.60   32.70
   7  -9  16  -17.60   18.90
  16 -10 -16  -13.60   21.20
 -16 -10  16   14.00   18.40
  16  10 -16  150.08   55.49
 -14 -10  16    2.10   15.30
  14 -10 -16   25.30   15.70
  14 -10 -16  -28.10   21.20
  14  10 -16   33.40   39.90
  12 -10 -16   71.59   32.00
  12 -10 -16   21.80   14.80
 -12 -10  16   -6.20   15.30
  12  10 -16   10.50   33.60
  10 -10 -16   24.60   21.20
  10 -10 -16   -0.80   10.40
 -10 -10  16    2.10   15.20
  10  10 -16   30.20   38.40
   8 -10 -16  -16.00   18.50
  -8 -10  16   -8.50   20.00
   8 -10 -16   13.10   11.40
   8 -10 -16   -8.80   22.30
  -8 -10  16   -7.60   17.20
   8  10 -16  -24.90   30.70
   6 -10 -16   38.60   10.30
   6 -10 -16   50.59   10.80
  -6 -10  16   52.79   22.20
   6 -10 -16   53.89   28.80
   6  10 -16   18.10   33.70
   4 -10 -16   -4.60   21.40
  -4 -10  16    1.10   18.30
  -4 -10  16    5.70   17.10
  -2 -10  16  -15.90   16.20
   2 -10 -16   16.00   29.90
  -2 -10  16   23.00   22.00
   0 -10  16   62.39   24.00
   0 -10  16   67.79   26.10
   0 -10 -16   56.49   31.20
   2 -10  16    3.70   11.40
  -2 -10 -16   10.10   24.50
   2 -10  16   31.90   13.60
   2 -10  16   16.40   19.90
  -4 -10 -16   -2.10   27.80
   4 -10  16   -3.00   17.80
  -6 -10 -16   18.50   30.60
   6 -10  16   -5.80   19.40
  13 -11 -16   -7.30   26.70
 -13 -11  16  -26.70   14.90
  13 -11 -16   22.90   16.30
  13  11 -16   16.70   41.90
  11 -11 -16    4.70   27.00
  11 -11 -16    2.30   13.00
 -11 -11  16   -0.10   16.50
  11 -11 -16   17.00   14.10
  11  11 -16  -28.00   34.50
   9 -11 -16   70.69   16.80
  -9 -11  16   25.10   18.70
   9 -11 -16  109.39   37.80
   9 -11 -16   36.20   14.60
   9  11 -16   15.50   37.80
   7 -11 -16    8.30   25.40
   7 -11 -16   -7.70    9.10
  -7 -11  16  -26.80   15.40
   7  11 -16  -15.30   35.30
   5 -11 -16  119.09   39.50
  -5 -11  16   -8.70   17.30
  -5 -11  16   25.60   25.70
  -3 -11  16  -13.40   15.00
   3 -11 -16   40.70   30.90
  -3 -11  16   -4.40   22.60
  -1 -11  16   26.30   20.30
  -1 -11  16   35.60   23.40
   1 -11 -16  -10.70   26.20
   1 -11  16   27.00   21.80
   1 -11  16   21.10   18.70
  -1 -11 -16    0.40   27.90
  26   0 -17   41.30   32.60
 -26   0  17  -19.30   14.30
 -24   0  17   -2.20   16.10
  24   0 -17  -13.20   21.20
  22   0 -17    1.90   21.20
 -22   0  17   27.20   17.50
 -20   0  17   -9.70   13.50
 -18   0  17   10.60   20.80
  18   0 -17   -9.50   18.30
  18   0 -17  -14.00    9.00
 -18   0  17   21.20   14.60
  16   0 -17   -5.50    9.40
  16   0 -17   -0.50   16.50
 -16   0  17   -0.50   12.30
 -16   0  17   -3.40   14.20
  14   0 -17    5.40   10.80
  14   0 -17    3.90   17.80
 -14   0  17   -9.10   12.60
 -14   0  17  -19.20    8.80
 -12   0  17   13.50   14.60
  12   0 -17   16.20   10.50
  12   0 -17   -3.70   14.40
 -12   0  17    6.80   10.90
  10   0 -17   -1.20    8.90
 -10   0  17    6.80   10.50
  10   0 -17  -11.40   13.10
 -10   0  17    2.20   12.40
  -8   0  17    7.80    9.90
   8   0 -17   -1.30   14.30
  -8   0  17   18.60   15.70
   8   0 -17   -2.70    7.50
   6   0 -17    4.70    7.70
   6   0 -17    7.40   13.80
  -6   0  17  -17.20   11.20
  -4   0  17   -8.90    8.70
  -4   0  17   -4.80   11.90
   4   0 -17   12.20   13.20
   4   0 -17   -3.10    7.80
   2   0 -17   -5.90    8.00
  -2   0  17   -8.80    8.40
  -2   0  17   20.40   15.80
   2   0 -17   37.70   14.60
   0   0 -17   11.80   12.90
   0   0  17   -1.00    9.30
  -2   0 -17   17.40   13.90
   2   0  17   -3.70   11.40
  -4   0 -17   -6.40   19.10
   4   0  17   15.60   12.50
  -4   0 -17   14.70   13.80
   6   0  17   10.60   12.80
  -6   0 -17   16.80   24.40
  -6   0 -17    3.80   14.60
   8   0  17   17.50   14.90
  -8   0 -17   10.30   14.70
   8   0  17   -5.00   13.10
  -8   0 -17  -22.50   19.10
  10   0  17   -3.80   15.60
  10   0  17   13.10   15.40
 -10   0 -17   10.20   16.30
 -12   0 -17   12.90   17.90
 -12   0 -17   13.30   20.40
  12   0  17   21.50   17.00
  12   0  17   28.00   18.20
  14   0  17   -8.90   16.60
 -14   0 -17   15.60   19.20
 -14   0 -17   -3.70   17.60
 -27  -1  17   27.80   21.70
  27  -1 -17   11.30   32.00
 -27   1  17   33.40   23.60
  27   1 -17   30.40   31.70
 -25  -1  17  121.39   29.90
  25  -1 -17   84.49   40.90
 -25   1  17  102.29   27.00
  25   1 -17  138.79   48.10
  23  -1 -17  239.08   52.79
 -23  -1  17  153.28   30.70
 -23   1  17  246.48   33.60
  23   1 -17  256.27   54.09
 -21  -1  17  127.09   27.20
  21  -1 -17  113.79   43.30
  21   1 -17   50.99   29.90
 -21   1  17  117.79   26.70
 -19  -1  17  102.39   22.40
  19  -1 -17   55.19   28.20
 -19   1  17   46.40   17.90
  19   1 -17   93.89   34.50
  17  -1 -17  456.55   52.19
 -17  -1  17  399.16   37.70
 -17  -1  17  428.06   47.00
  17  -1 -17  469.15   36.70
 -17   1  17  474.55   48.20
  17   1 -17  493.25   37.30
  17   1 -17  524.25   55.59
 -17   1  17  502.35   39.90
  15  -1 -17  319.87   41.40
 -15  -1  17  315.67   30.60
  15  -1 -17  258.77   25.90
 -15  -1  17  237.88   38.20
 -15   1  17  279.87   28.50
  15   1 -17  320.57   42.30
 -15   1  17  237.88   34.60
  13  -1 -17  250.17   35.50
 -13  -1  17  229.48   25.10
  13  -1 -17  212.58   22.40
 -13  -1  17  194.28   30.00
  13   1 -17  213.58   22.90
 -13   1  17  244.18   32.80
 -13   1  17  175.78   22.70
  13   1 -17  209.58   33.50
 -11  -1  17   46.90   17.70
 -11  -1  17  112.49   19.60
  11  -1 -17   48.10   21.10
  11  -1 -17   24.20   11.40
 -11   1  17   83.09   16.40
  11   1 -17   90.89   25.20
 -11   1  17   67.69   21.80
  11   1 -17   19.00   10.60
  -9  -1  17  484.45   40.70
   9  -1 -17  544.45   44.50
   9  -1 -17  466.15   31.10
  -9  -1  17  508.65   34.50
  -9   1  17  525.85   33.30
   9   1 -17  504.45   33.40
  -9   1  17  481.95   42.70
   9   1 -17  595.34   45.70
  -7  -1  17  645.94   38.60
   7  -1 -17  641.34   35.50
   7  -1 -17  697.13   48.20
  -7  -1  17  560.54   43.10
   7   1 -17  590.24   45.80
  -7   1  17  774.52   49.50
   7   1 -17  588.24   36.70
  -7   1  17  590.44   36.00
   5  -1 -17   11.40   14.20
  -5  -1  17    6.20   12.90
   5  -1 -17   -7.50    7.50
  -5  -1  17    2.40    9.80
   5   1 -17   15.40    9.90
  -5   1  17   -1.30    8.40
  -5   1  17   12.10   15.10
   5   1 -17   18.90   14.40
   3  -1 -17  303.47   21.90
  -3  -1  17  290.27   33.50
  -3  -1  17  354.16   26.60
   3  -1 -17  337.57   33.00
  -3   1  17  289.97   31.70
  -3   1  17  315.67   23.20
   3   1 -17  326.57   30.00
   3   1 -17  321.07   24.70
  -1  -1  17   55.39   14.40
   1  -1 -17   33.90   18.30
   1  -1 -17   58.69   12.20
  -1  -1  17   73.79   18.30
   1   1 -17   43.40   14.40
   1   1 -17   29.00   10.80
  -1   1  17   52.99   11.70
  -1  -1 -17  284.37   30.60
   1  -1  17  243.18   24.30
  -1   1 -17  301.57   25.90
   1   1  17  320.47   22.90
   3  -1  17  429.76   30.90
  -3  -1 -17  412.06   36.40
  -3  -1 -17  378.96   49.10
  -3   1 -17  439.96   29.80
   3   1  17  388.76   27.10
  -5  -1 -17    9.50   24.70
   5  -1  17   -1.20   13.40
  -5  -1 -17    3.40   16.80
  -5   1 -17   -1.70   16.10
  -5   1 -17   -1.90   11.00
   5   1  17    2.20   11.10
  -7  -1 -17   57.29   27.30
   7  -1  17   79.09   18.40
  -7   1 -17   73.79   19.50
   7   1  17   82.89   17.90
  -7   1 -17  104.19   17.60
   7   1  17   95.29   17.30
   9  -1  17   -9.00   16.60
  -9  -1 -17   13.30   17.50
   9  -1  17  -24.80   13.10
  -9  -1 -17    7.00   25.10
  -9   1 -17    2.10   12.80
  -9   1 -17   -4.10   11.80
   9   1  17   28.60   15.60
   9   1  17   25.10   13.80
  11  -1  17    7.90   18.00
 -11  -1 -17   -2.80   20.20
  11  -1  17   15.20   20.10
 -11  -1 -17   62.39   29.10
 -11   1 -17   16.20   12.90
  11   1  17   22.90   16.90
  11   1  17   16.60   15.40
 -11   1 -17   39.80   14.40
  13  -1  17   12.10   18.70
 -13  -1 -17    2.30   21.10
 -13  -1 -17   36.00   26.50
 -13   1 -17   15.60   12.70
  13   1  17  -22.10   16.10
  13   1  17   49.99   25.90
 -13   1 -17   17.80   13.80
 -15  -1 -17   28.40   26.60
 -15  -1 -17  -12.30   22.20
  15  -1  17   31.70   22.80
 -15   1 -17    0.00   12.00
 -15   1 -17   19.40   13.00
  15   1  17   15.30   19.60
  15   1  17  -17.60   16.20
 -26  -2  17   63.29   24.60
  26  -2 -17    1.40   28.40
  26   2 -17    4.70   30.00
 -26   2  17   28.20   20.30
 -24  -2  17   62.69   23.50
  24  -2 -17   48.20   32.60
  24   2 -17  133.69   52.79
 -24   2  17   37.10   20.90
  22  -2 -17   36.80   28.10
 -22  -2  17   10.40   15.30
 -22   2  17   25.00   18.10
  22   2 -17    1.10   25.70
 -20  -2  17   56.39   19.30
  20  -2 -17   47.40   28.40
  20   2 -17   11.10   23.40
 -20   2  17   38.70   17.30
 -18  -2  17  417.36   39.10
  18  -2 -17  426.16   51.49
  18  -2 -17  524.65   38.30
  18   2 -17  492.75   58.09
 -18   2  17  420.46   38.50
 -16  -2  17  213.58   34.50
 -16  -2  17  214.98   28.00
  16  -2 -17  247.48   44.90
 -16   2  17  204.98   38.50
  16   2 -17  215.68   46.00
 -16   2  17  181.88   25.90
  16   2 -17  207.18   25.80
 -14  -2  17   37.60   16.40
  14  -2 -17   14.60   11.10
 -14  -2  17   12.40   15.80
  14  -2 -17    5.50   18.30
  14   2 -17   32.70   24.40
 -14   2  17   54.19   26.00
 -14   2  17   37.50   14.50
 -12  -2  17   51.49   15.10
  12  -2 -17   16.30   17.70
 -12  -2  17   21.20   15.40
  12  -2 -17   33.50   10.90
  12   2 -17   45.50   22.30
  12   2 -17   11.70   10.90
 -12   2  17   24.30   12.80
 -12   2  17   21.30   19.30
  10  -2 -17  187.08   32.70
 -10  -2  17  149.99   26.90
 -10  -2  17  160.08   21.80
  10  -2 -17  165.78   17.90
  10   2 -17  130.49   20.00
 -10   2  17  105.19   25.40
 -10   2  17  167.58   19.80
  10   2 -17  194.98   33.50
  -8  -2  17    9.60   13.20
   8  -2 -17   10.90    8.90
   8  -2 -17   -5.80   13.50
  -8  -2  17   -1.80    9.30
   8   2 -17   12.70   10.60
  -8   2  17    0.90   14.10
  -8   2  17    1.30    8.80
   8   2 -17   21.00   17.00
  -6  -2  17  715.33   41.80
   6  -2 -17  619.34   48.40
  -6  -2  17  668.23   44.50
   6  -2 -17  713.93   35.90
   6   2 -17  638.04   39.40
   6   2 -17  621.24   46.40
  -6   2  17  632.14   35.80
  -6   2  17  676.83   50.19
   4  -2 -17  378.06   25.10
  -4  -2  17  440.76   31.50
  -4  -2  17  411.26   34.10
   4  -2 -17  470.15   40.60
  -4   2  17  493.95   40.70
   4   2 -17  417.86   29.90
  -4   2  17  480.65   26.90
   4   2 -17  421.96   35.00
   2  -2 -17   48.70   20.90
   2  -2 -17   55.89   10.00
  -2  -2  17   51.39   15.30
  -2  -2  17   53.09   14.40
   2   2 -17   47.70   13.50
  -2   2  17   55.39   10.60
   2   2 -17   13.00   13.40
   0  -2 -17   71.69   20.80
   0  -2  17   19.70   12.00
   0   2  17   13.60    8.20
   0   2 -17   17.70   11.40
  -2  -2 -17   16.40   18.00
  -2  -2 -17   43.20   26.90
   2  -2  17   22.10   13.80
   2   2  17   47.00   10.70
  -2   2 -17   31.50   11.20
  -4  -2 -17   89.99   34.00
  -4  -2 -17   17.90   18.80
   4  -2  17   50.49   16.10
  -4   2 -17   74.29   14.90
   4   2  17   56.39   11.80
  -4   2 -17   60.79   10.60
   6  -2  17  196.58   26.20
  -6  -2 -17  158.08   31.00
  -6  -2 -17  139.39   41.10
   6   2  17  155.98   29.00
   6   2  17  176.18   18.90
   8  -2  17  -19.20   13.50
  -8  -2 -17    7.60   18.90
  -8  -2 -17    3.70   32.00
   8   2  17   -5.50   10.20
   8   2  17    2.70   12.30
 -10  -2 -17   44.80   30.70
 -10  -2 -17   29.70   22.70
  10  -2  17   18.80   17.00
  10  -2  17   14.40   18.30
  10   2  17   45.20   15.10
  10   2  17   21.10   15.50
 -12  -2 -17    3.50   24.90
 -12  -2 -17   34.20   32.70
  12  -2  17   -6.90   17.80
  12   2  17  -12.40   14.30
  12   2  17   -6.80   13.80
 -14  -2 -17  -16.20   23.80
 -14  -2 -17   31.10   31.60
  14  -2  17    8.30   19.00
  14   2  17  -27.30   14.80
  14   2  17   31.30   18.20
 -27  -3  17   18.20   19.60
  27  -3 -17   89.59   42.30
 -27   3  17   17.60   18.90
  27   3 -17    7.50   39.50
 -25  -3  17   45.50   24.30
  25  -3 -17   -9.10   23.70
 -25   3  17   14.50   18.00
  25   3 -17   14.90   33.80
  23  -3 -17  334.77   53.69
 -23  -3  17  446.76   43.00
 -23   3  17  377.56   41.40
  23   3 -17  352.36   65.49
 -21  -3  17  106.39   26.70
  21  -3 -17   50.49   30.90
 -21   3  17  131.99   28.50
  21   3 -17   72.99   36.70
 -19  -3  17  233.28   43.40
 -19   3  17  263.27   31.90
 -17  -3  17  185.18   27.80
  17  -3 -17  147.99   24.60
  17  -3 -17  274.07   47.30
 -17  -3  17  131.09   32.80
 -17   3  17  161.48   27.50
  17   3 -17  199.28   46.80
 -15  -3  17   48.10   16.60
  15  -3 -17   61.29   25.50
 -15  -3  17   73.79   27.30
  15  -3 -17   57.69   16.20
  15   3 -17   11.20   22.40
 -15   3  17   25.80   14.50
  15   3 -17   44.20   15.40
 -15   3  17   49.70   23.70
  13  -3 -17 1040.10   71.39
  13  -3 -17 1020.30   54.39
 -13  -3  17 1071.49   69.19
 -13  -3  17  980.60   58.09
 -13   3  17 1092.09   57.19
  13   3 -17 1030.90   76.59
  13   3 -17  910.71   59.69
 -13   3  17 1064.49   71.29
  11  -3 -17   20.60   10.70
 -11  -3  17   16.90   12.70
  11  -3 -17   12.10   20.40
 -11  -3  17    0.90   13.50
 -11   3  17  -19.10   16.30
  11   3 -17   -8.30   15.40
  11   3 -17   15.20   11.70
 -11   3  17   -5.90    9.00
  -9  -3  17   33.70   13.90
   9  -3 -17   20.80   10.40
   9  -3 -17   31.00   17.60
  -9  -3  17   34.60   17.50
  -9   3  17   29.50   19.20
   9   3 -17   46.60   14.50
   9   3 -17   -2.90   16.00
  -9   3  17   20.80   11.70
  -7  -3  17 1028.80   55.09
   7  -3 -17  990.00   47.50
  -7  -3  17  955.80   57.69
   7  -3 -17  984.00   64.59
  -7   3  17  954.40   65.79
   7   3 -17  934.71   69.19
  -7   3  17  960.50   48.30
   7   3 -17 1000.30   53.79
  -5  -3  17  118.89   21.30
  -5  -3  17   97.19   19.20
   5  -3 -17  134.89   13.60
   5  -3 -17  125.39   27.40
   5   3 -17  106.89   22.50
   5   3 -17  156.18   19.60
  -5   3  17  108.19   27.40
  -5   3  17  137.69   14.60
   3  -3 -17  293.37   17.50
  -3  -3  17  268.67   25.90
   3  -3 -17  261.47   32.90
  -3  -3  17  234.98   25.70
   3   3 -17  187.08   22.70
  -3   3  17  262.27   18.00
   3   3 -17  232.08   26.80
   1  -3 -17   11.80   16.50
  -1  -3  17   20.10   13.10
  -1  -3  17   14.10   11.80
   1   3 -17   23.30   13.30
  -1   3  17    2.80    5.90
   1   3 -17   14.70   12.70
  -1  -3 -17   70.89   24.30
   1  -3  17   55.99   16.90
  -1   3 -17   77.29   14.00
   1   3  17   75.19   10.60
   3  -3  17  125.79   21.40
  -3  -3 -17   53.79   33.20
  -3  -3 -17  127.49   28.50
   3   3  17  109.99   12.60
   3   3  17   93.69   12.90
  -5  -3 -17  232.58   38.00
  -5  -3 -17  123.19   42.60
   5  -3  17  133.09   22.90
   5   3  17  175.48   16.70
   5   3  17  166.98   15.70
  -7  -3 -17   19.80   28.40
  -7  -3 -17   -3.50   19.70
   7  -3  17   14.50   16.90
   7   3  17   -0.50    9.00
   7   3  17   -8.60    8.60
  -9  -3 -17   69.19   29.90
   9  -3  17   11.50   17.50
  -9  -3 -17   73.99   39.00
   9   3  17   54.59   12.80
 -11  -3 -17    8.00   24.50
 -11  -3 -17   29.20   37.10
  11  -3  17   13.90   21.20
  11   3  17    7.70   13.50
 -13  -3 -17   59.29   38.20
  13  -3  17   62.99   24.30
  13   3  17  140.59   22.00
  13   3  17   74.89   19.10
 -26  -4  17   12.70   18.10
  26  -4 -17   12.50   28.40
  26   4 -17   11.60   35.90
 -26   4  17   60.99   25.40
  24  -4 -17   -2.60   23.20
 -24  -4  17   18.20   19.70
  24   4 -17    3.60   34.20
 -24   4  17   -9.90   17.00
  22  -4 -17  137.49   37.40
 -22  -4  17   86.59   25.00
 -22   4  17   84.89   25.10
  22   4 -17  148.69   49.00
 -20  -4  17   74.79   22.30
  20  -4 -17   77.09   32.00
  20   4 -17   -1.30   27.30
 -18  -4  17   82.79   28.40
  18  -4 -17   62.59   17.50
  18   4 -17   50.99   32.60
 -18   4  17   45.40   18.60
  16  -4 -17  258.77   45.00
 -16  -4  17  251.57   38.30
 -16  -4  17  236.18   29.90
  16  -4 -17  256.17   44.20
 -16   4  17  212.28   27.90
  16   4 -17  147.99   40.80
 -14  -4  17  570.44   51.29
 -14  -4  17  481.95   40.20
  14  -4 -17  485.15   35.60
  14  -4 -17  536.55   51.29
  14   4 -17  571.24   58.99
  14   4 -17  510.45   38.80
 -14   4  17  551.64   39.00
 -14   4  17  504.95   53.19
  12  -4 -17   -8.10   16.20
 -12  -4  17   14.60   17.30
  12  -4 -17   20.80   10.90
 -12  -4  17   40.90   16.80
  12   4 -17   15.50   21.70
 -12   4  17   -5.40   10.10
 -12   4  17    2.20   21.40
  12   4 -17    6.50   11.90
 -10  -4  17   77.99   24.10
  10  -4 -17   20.70   20.00
 -10  -4  17   41.00   15.00
  10  -4 -17   57.19   13.20
  10   4 -17   54.19   23.60
  -8  -4  17   33.40   15.10
   8  -4 -17   19.20   18.60
   8  -4 -17   15.20   10.90
  -8  -4  17   45.80   17.90
  -8   4  17   22.80   10.00
  -8   4  17    1.80   16.30
   8   4 -17   19.20   11.80
   8   4 -17    7.00   16.90
  -6  -4  17   87.89   19.20
  -6  -4  17   91.89   20.50
   6  -4 -17  127.99   30.60
   6  -4 -17   94.09   12.70
   6   4 -17  102.59   27.40
  -6   4  17   73.09   27.60
  -6   4  17  109.79   14.10
   6   4 -17  170.98   24.90
  -4  -4  17  -25.60    8.10
   4  -4 -17   12.90    6.10
   4  -4 -17  -21.40   14.00
  -4  -4  17   -1.40   11.10
   4   4 -17   13.90   12.30
  -4   4  17    0.50    6.20
   4   4 -17    6.60   14.40
   2  -4 -17   45.80   20.90
  -2  -4  17   37.20   15.00
  -2  -4  17   47.90   14.40
   2   4 -17   33.20   16.40
   2   4 -17   25.00   12.60
  -2   4  17   41.10    6.90
   0  -4  17  281.67   22.00
   0  -4  17  314.77   30.20
   0  -4 -17  274.17   37.00
   0   4 -17  263.57   25.50
  -2  -4 -17  234.78   50.29
  -2  -4 -17  528.15   49.10
   2  -4  17  456.95   36.70
  -4  -4 -17   45.00   24.60
   4  -4  17   33.30   16.80
  -4  -4 -17    2.90   30.70
  -6  -4 -17   16.50   22.40
   6  -4  17   10.20   17.00
  -8  -4 -17  -10.00   21.80
   8  -4  17  -33.20   13.80
  -8  -4 -17  -33.50   30.00
   8   4  17    5.80    7.10
   8   4  17    5.70    7.30
 -10  -4 -17   32.70   38.00
  10  -4  17   34.80   22.20
 -10  -4 -17   52.39   32.50
  10   4  17   20.70   10.10
  10   4  17    8.10    9.70
  12  -4  17   18.30   20.20
  12   4  17    4.80   10.10
  14  -4  17   32.60   23.70
  14   4  17   26.10   15.00
 -25  -5  17    3.00   18.00
  25  -5 -17   99.99   42.50
  25   5 -17   41.40   38.00
 -25   5  17   16.40   19.40
  23  -5 -17   62.49   31.00
 -23  -5  17   29.10   18.20
 -23   5  17   51.09   23.20
  23   5 -17   69.39   41.50
  21  -5 -17   50.29   29.70
 -21  -5  17   -5.80   15.60
  21   5 -17   35.80   37.60
 -21   5  17   33.20   19.50
 -19  -5  17  -20.70   14.70
  19  -5 -17   -3.50   19.60
  19   5 -17  -12.00   24.50
 -19   5  17    5.80   16.20
  17  -5 -17  137.79   42.80
  17  -5 -17  110.99   22.70
 -17  -5  17  101.59   24.00
 -17   5  17  111.19   22.40
  17   5 -17   58.49   36.00
 -15  -5  17    6.70   18.70
 -15  -5  17    7.50   13.50
  15  -5 -17  -11.90   10.50
  15  -5 -17  -31.50   14.70
  15   5 -17  -27.60   21.90
 -15   5  17    8.80   12.10
  13  -5 -17    0.10   11.60
  13  -5 -17   14.80   19.90
 -13  -5  17   15.20   15.00
 -13  -5  17    6.60   18.50
 -13   5  17   26.50   14.20
 -13   5  17    8.60   23.50
  13   5 -17  -16.40   24.00
  13   5 -17  -10.90   10.40
  11  -5 -17  183.78   37.30
 -11  -5  17  228.38   27.80
  11  -5 -17  198.68   20.30
 -11  -5  17  197.28   34.30
  11   5 -17  187.18   41.30
 -11   5  17  243.38   43.90
  11   5 -17  193.88   25.50
 -11   5  17  180.78   21.90
  -9  -5  17  673.73   51.29
  -9  -5  17  642.64   45.40
   9  -5 -17  648.54   56.29
   9  -5 -17  681.03   36.90
   9   5 -17  675.53   59.49
  -9   5  17  633.94   58.49
   9   5 -17  698.73   44.90
  -9   5  17  647.94   38.00
  -7  -5  17   96.59   21.00
   7  -5 -17  145.89   14.90
  -7  -5  17   79.39   21.30
   7  -5 -17   81.39   26.60
   7   5 -17  167.18   22.90
  -7   5  17  116.39   15.00
   7   5 -17  114.19   30.20
  -5  -5  17   51.29   18.30
  -5  -5  17   39.70   16.50
   5  -5 -17   -8.70   15.60
   5  -5 -17   30.20    7.60
   5   5 -17   46.60   22.40
   5   5 -17   40.90   16.00
  -3  -5  17  262.27   26.20
   3  -5 -17  216.88   38.50
  -3  -5  17  250.07   29.00
   3   5 -17  243.78   33.10
   3   5 -17  241.68   28.20
  -1  -5  17   19.20   16.30
  -1  -5  17   36.70   12.30
   1  -5 -17   14.70   21.70
   1   5 -17   34.50   16.40
  -1  -5 -17  112.79   31.70
   1  -5  17   91.59   20.40
  -1  -5 -17   74.89   37.80
   3  -5  17   43.20   19.20
  -3  -5 -17   31.30   35.10
  -3  -5 -17   33.00   22.90
   5  -5  17   20.00   18.60
  -5  -5 -17  -21.40   29.70
  -5  -5 -17  -21.30   21.10
  -7  -5 -17   80.49   41.90
  -7  -5 -17  116.79   33.90
   7  -5  17   92.99   21.60
   9  -5  17   56.69   23.90
  -9  -5 -17   64.99   31.80
  11  -5  17    3.00   20.30
  13  -5  17   43.10   26.00
  13   5  17   45.30   10.00
  13   5  17   47.50   10.40
  24  -6 -17  168.18   48.40
 -24  -6  17   64.89   24.20
  24   6 -17  158.18   58.09
 -22  -6  17   14.80   18.60
  22  -6 -17   28.10   25.40
  22   6 -17    3.50   34.00
  20  -6 -17   66.09   32.20
 -20  -6  17   51.89   22.70
  20   6 -17   78.49   44.50
 -20   6  17   64.29   23.30
  18  -6 -17  100.89   35.40
 -18  -6  17  163.58   29.00
 -18   6  17  157.58   27.30
  18   6 -17  153.58   49.99
  16  -6 -17   47.20   17.70
  16  -6 -17   61.29   30.40
 -16  -6  17  100.29   24.20
 -16   6  17   75.59   21.30
  16   6 -17   57.39   35.10
  14  -6 -17   27.90   24.60
 -14  -6  17   39.10   24.20
 -14  -6  17   44.50   19.30
  14  -6 -17   49.90   16.20
 -14   6  17   20.00   15.10
  14   6 -17   49.10   33.10
 -12  -6  17   83.79   27.00
  12  -6 -17  100.49   18.40
 -12  -6  17  116.59   23.90
  12  -6 -17  111.39   30.40
  12   6 -17  141.39   41.70
 -12   6  17  154.48   23.30
  10  -6 -17   27.90   11.10
 -10  -6  17  -10.70   12.50
  10  -6 -17   11.80   20.50
 -10  -6  17   41.30   20.50
 -10   6  17   26.90   30.90
  10   6 -17   18.90   25.00
  10   6 -17   39.40   16.30
   8  -6 -17  344.57   23.70
  -8  -6  17  354.06   35.20
   8  -6 -17  330.47   44.10
  -8  -6  17  341.47   37.90
   8   6 -17  333.47   33.00
   8   6 -17  356.86   47.30
  -6  -6  17   41.80   17.60
  -6  -6  17    5.30   14.20
   6  -6 -17   18.10    8.20
   6  -6 -17   11.40   19.80
   6   6 -17   27.90   23.20
   6   6 -17   -3.00   13.80
  -4  -6  17   26.50   15.20
  -4  -6  17   27.00   16.00
   4  -6 -17  107.09   29.60
   4   6 -17    2.40   14.20
   4   6 -17   56.39   25.30
   2  -6 -17   -8.40   19.40
  -2  -6  17   -7.60   11.90
  -2  -6  17  -16.50   12.60
   2   6 -17    0.80   15.70
   2   6 -17   11.30   18.60
   0  -6  17   58.09   20.00
   0  -6 -17    5.10   33.50
   0  -6 -17   49.30   25.80
   0  -6  17   18.70    9.60
   2  -6  17   94.49   23.90
  -2  -6 -17   40.80   26.30
  -2  -6 -17    0.40   36.70
   4  -6  17   32.60   20.90
  -4  -6 -17   28.80   26.20
   6  -6  17   -5.00   16.00
  -6  -6 -17   41.10   27.80
  -8  -6 -17   22.00   28.20
   8  -6  17  -14.90   16.50
  10  -6  17    5.90   23.70
 -10  -6 -17  -14.10   30.20
  12  -6  17  -27.40   19.50
 -23  -7  17   70.79   25.10
  23  -7 -17   61.69   34.00
  23   7 -17  145.89   60.99
 -21  -7  17    5.90   17.20
  21  -7 -17   54.09   31.50
  21   7 -17   55.29   42.50
  19  -7 -17   31.60   25.80
 -19  -7  17   92.29   25.60
  19   7 -17   81.09   40.70
 -17  -7  17  129.69   25.90
  17  -7 -17  128.29   31.30
  17  -7 -17  179.58   41.20
  17   7 -17  121.89   46.70
  15  -7 -17   15.10   21.00
  15  -7 -17   -1.20   12.20
 -15  -7  17    4.10   15.00
  15   7 -17  -11.20   27.70
  13  -7 -17  139.99   21.90
  13  -7 -17  183.18   42.50
 -13  -7  17  201.48   29.00
 -13  -7  17  143.99   35.30
  13   7 -17  234.68   54.29
  11  -7 -17   18.90   11.90
 -11  -7  17   17.40   21.00
  11   7 -17   14.40   27.60
   9  -7 -17   53.19   13.00
  -9  -7  17   63.79   21.00
   9  -7 -17   41.80   25.70
  -9  -7  17   70.79   24.90
   9   7 -17   44.60   29.00
   7  -7 -17  263.07   43.40
  -7  -7  17  261.17   34.90
   7  -7 -17  239.18   19.40
  -7  -7  17  316.67   34.70
   7   7 -17  291.77   46.60
   5  -7 -17  271.77   42.80
  -5  -7  17  225.88   31.30
   5  -7 -17  218.88   13.80
  -5  -7  17  219.58   30.80
   5   7 -17  253.07   42.80
  -3  -7  17   -8.40   19.10
  -3  -7  17  -17.70   12.30
   3  -7 -17   20.30   23.60
   3   7 -17   -4.00   20.90
   1  -7 -17   28.40   23.60
  -1  -7  17   13.60   12.40
   1  -7  17   21.20   18.00
  -1  -7 -17   -3.10   27.70
  -3  -7 -17   47.30   28.50
   3  -7  17   21.90   18.80
   5  -7  17   15.60   19.00
  -5  -7 -17    9.20   27.80
  -7  -7 -17   27.00   31.70
   7  -7  17    9.30   19.20
   9  -7  17    4.10   19.40
  -9  -7 -17  -34.10   26.60
  11  -7  17  -13.70   20.90
  20  -8 -17   -5.00   20.60
 -20  -8  17   18.50   19.50
  20   8 -17   26.70   42.00
 -18  -8  17    8.00   17.90
  18  -8 -17   88.89   33.30
  18   8 -17  118.79   54.19
  16  -8 -17    7.00   22.70
 -16  -8  17   11.30   16.50
  16  -8 -17    9.20   13.80
  16   8 -17   33.40   38.50
 -14  -8  17    1.50   15.20
  14  -8 -17  -24.60   19.60
 -12  -8  17  108.09   36.20
  12  -8 -17   45.00   14.80
  12  -8 -17   32.30   25.80
 -12  -8  17   34.00   19.70
  12   8 -17   -6.60   29.50
 -10  -8  17   36.80   22.60
  10  -8 -17    7.60   10.50
  10  -8 -17   -9.60   21.10
 -10  -8  17   31.20   21.40
  10   8 -17  -13.40   24.10
   8  -8 -17  377.16   31.30
  -8  -8  17  402.16   39.50
   8  -8 -17  455.35   52.19
  -8  -8  17  423.96   45.10
   8   8 -17  412.06   63.59
  -6  -8  17   72.69   25.30
   6  -8 -17   31.60    8.90
   6  -8 -17   67.59   33.40
  -6  -8  17    5.20   16.70
   6   8 -17   23.40   29.80
   4  -8 -17   50.09   26.90
  -4  -8  17   -4.80   15.10
  -4  -8  17   31.00   18.50
   4   8 -17   35.20   29.80
  -2  -8  17   12.90   18.90
   2  -8 -17    2.60   26.40
   0  -8  17   44.40   19.30
   0  -8  17   38.70   13.90
   0  -8 -17   32.90   26.30
  -2  -8 -17   19.40   26.90
   2  -8  17    2.30   16.10
  -4  -8 -17   69.99   35.00
   4  -8  17   55.19   22.00
   6  -8  17  -18.70   15.70
  -6  -8 -17   -2.80   29.40
   8  -8  17   68.99   26.70
  -8  -8 -17   69.69   34.90
  19  -9 -17    6.20   23.20
 -19  -9  17   47.20   23.30
  19   9 -17   78.69   54.09
  17  -9 -17   24.20   26.80
 -17  -9  17   52.39   20.80
  17   9 -17   13.40   36.50
  15  -9 -17   52.59   31.50
 -15  -9  17   32.70   20.60
  15  -9 -17   14.50   15.50
  15   9 -17   21.00   35.60
  13  -9 -17  176.28   24.40
  13  -9 -17  190.98   42.60
 -13  -9  17  134.59   26.70
  13   9 -17  111.29   45.50
  11  -9 -17   18.40   13.80
 -11  -9  17    1.50   14.60
  11  -9 -17   17.60   22.30
  11   9 -17   26.10   33.10
  -9  -9  17  -12.90   15.20
  -9  -9  17   -1.20   20.30
   9  -9 -17   34.70   26.90
   9  -9 -17   19.20   11.70
   9   9 -17   33.30   32.40
   7  -9 -17   40.10   27.50
   7  -9 -17   71.09   12.20
  -7  -9  17   83.49   27.30
  -7  -9  17   75.89   23.10
   7  -9 -17   57.69   12.60
   7   9 -17   33.30   34.80
  -5  -9  17   -8.50   17.40
   5  -9 -17  -12.80   21.70
  -5  -9  17   20.10   20.50
   5   9 -17    0.40   28.20
  -3  -9  17   68.39   23.10
  -3  -9  17   90.59   24.80
   3  -9 -17   73.79   32.90
  -1  -9  17   34.80   20.10
   1  -9 -17   37.80   26.50
   1  -9  17    7.80   10.60
   1  -9  17    2.50   16.10
  -1  -9 -17   45.70   29.60
   1  -9  17   16.20   12.50
   3  -9  17   -3.90   17.80
  -3  -9 -17   23.40   31.10
   5  -9  17   22.50   21.70
  -5  -9 -17    8.20   27.50
   7  -9  17  -16.70   17.40
  -7  -9 -17   22.60   32.40
  16 -10 -17   -2.00   24.60
 -16 -10  17   -5.40   17.40
  16  10 -17   10.10   36.20
  14 -10 -17  141.89   40.30
  14 -10 -17   66.49   19.40
 -14 -10  17  109.09   27.80
  14  10 -17   84.99   48.80
  12 -10 -17   35.30   29.10
 -12 -10  17   32.90   20.00
  12 -10 -17    5.30   14.00
  12  10 -17   14.80   39.80
  10 -10 -17   21.00   25.90
  10 -10 -17   17.10   13.50
 -10 -10  17    7.30   17.50
  10  10 -17   18.50   36.00
  -8 -10  17   23.90   22.50
   8 -10 -17    6.80   11.10
   8 -10 -17  -10.20    9.80
  -8 -10  17    3.10   18.20
   8 -10 -17  -30.50   17.80
   8  10 -17   21.70   35.10
   6 -10 -17   13.70    7.50
   6 -10 -17   12.80    7.90
  -6 -10  17  -11.00   18.50
   6 -10 -17   -2.70   22.70
   6  10 -17   46.50   39.10
  -4 -10  17   73.09   25.80
  -4 -10  17   35.70   23.20
   4 -10 -17   -9.30   22.20
   2 -10 -17   12.90   28.60
  -2 -10  17   16.30   18.80
  -2 -10  17   31.70   20.90
   0 -10 -17   -0.80   27.60
   0 -10  17   25.60   18.40
   0 -10  17    4.20   18.40
  -2 -10 -17   16.20   27.30
   2 -10  17  -35.20   12.40
  -4 -10 -17   70.39   38.00
   4 -10  17   37.60   22.80
 -13 -11  17   13.70   20.30
  13 -11 -17   21.50   27.10
  13 -11 -17    1.10   15.60
  13  11 -17  -22.10   38.50
 -11 -11  17   -0.40   16.20
  11 -11 -17   21.10   14.40
  11 -11 -17   -6.20   24.50
  11 -11 -17    7.60   13.70
  11  11 -17   12.20   41.70
   9 -11 -17   30.20   13.60
   9 -11 -17   22.40   25.60
   9 -11 -17   18.10   12.80
  -9 -11  17   28.50   21.10
   9  11 -17   25.50   41.80
   7 -11 -17   13.50   10.20
   7 -11 -17   -9.80   22.80
   7 -11 -17    2.90    8.60
  -7 -11  17   -6.00   20.30
   7  11 -17   55.89   43.50
  -5 -11  17    6.90   23.20
   5 -11 -17   -4.10   23.10
  -5 -11  17   -5.40   18.70
   3 -11 -17   19.60   28.00
  -3 -11  17   73.69   28.90
  -3 -11  17   18.20   20.60
  -1 -11  17   36.60   22.30
  -1 -11  17   28.30   23.90
   1 -11 -17    9.50   25.20
 -26   0  18  212.78   36.70
  26   0 -18  263.97   63.09
 -24   0  18   -5.30   15.70
  24   0 -18   16.80   27.00
 -22   0  18  218.98   36.20
  22   0 -18  226.98   52.99
  20   0 -18  295.87   48.00
 -18   0  18   12.20   14.90
  18   0 -18  -32.60   16.60
  18   0 -18   18.00   13.80
 -16   0  18 1477.45   89.99
  16   0 -18 1559.04   97.59
 -16   0  18 1450.95   77.39
  16   0 -18 1433.86   75.49
  14   0 -18  770.62   60.39
  14   0 -18  593.24   40.80
 -14   0  18  656.73   43.80
  12   0 -18  940.41   66.29
 -12   0  18  934.91   53.09
  12   0 -18 1033.40   52.79
 -12   0  18  854.41   61.49
 -10   0  18  231.48   30.30
  10   0 -18  249.08   22.30
 -10   0  18  210.18   22.70
  10   0 -18  240.28   37.50
  -8   0  18    4.50   13.60
   8   0 -18    2.10   15.10
  -8   0  18    7.60   11.00
   8   0 -18  -14.30    7.70
  -6   0  18 1047.50   54.39
   6   0 -18 1066.69   53.69
  -6   0  18 1042.80   63.39
   6   0 -18 1173.48   66.09
   4   0 -18    5.10    8.70
  -4   0  18    7.60   14.30
  -2   0  18    2.50   14.50
   2   0 -18    1.40    7.70
   2   0 -18  -11.00   11.10
  -2   0  18    6.60   11.10
   0   0 -18    4.00   13.50
   2   0  18  192.28   21.80
  -2   0 -18  200.38   25.90
  -4   0 -18   95.29   21.50
  -4   0 -18   94.19   34.50
   4   0  18  127.89   20.40
  -6   0 -18  515.55   38.80
   6   0  18  492.25   34.70
  -6   0 -18  349.17   46.70
   8   0  18    6.10   15.20
  -8   0 -18    2.20   15.50
  -8   0 -18   12.00   29.50
   8   0  18    3.10   14.20
 -10   0 -18  239.68   29.60
  10   0  18  235.48   31.60
  10   0  18  268.67   30.40
 -12   0 -18   22.70   25.90
  12   0  18   43.50   20.00
 -12   0 -18   61.99   21.20
  12   0  18   51.79   21.00
 -14   0 -18   77.09   24.70
 -14   0 -18   53.09   23.00
  14   0  18  101.59   26.30
  27  -1 -18   99.29   42.00
 -27  -1  18   50.89   22.00
 -27   1  18   23.50   21.80
  27   1 -18    1.60   29.90
  25  -1 -18   26.80   29.50
 -25  -1  18   40.20   21.70
 -25   1  18   65.89   24.50
  25   1 -18   38.50   32.40
 -23  -1  18    6.10   16.20
  23  -1 -18   -4.20   25.10
 -23   1  18   31.30   18.40
  23   1 -18  -24.80   21.10
  21  -1 -18   61.49   29.70
 -21  -1  18   43.60   21.20
  21   1 -18   30.20   27.40
 -21   1  18   68.99   21.40
 -19  -1  18   16.00   15.90
  19  -1 -18   38.60   33.40
  19   1 -18   59.29   28.60
 -19   1  18   27.30   15.70
 -17  -1  18  147.69   26.10
 -17  -1  18  124.29   32.00
  17  -1 -18  140.09   24.10
  17  -1 -18  148.99   38.10
 -17   1  18  163.48   26.10
  17   1 -18  104.89   33.60
  17   1 -18  155.68   25.10
 -17   1  18  168.08   37.20
  15  -1 -18  649.93   58.29
 -15  -1  18  617.94   44.90
 -15  -1  18  675.93   55.19
  15  -1 -18  712.03   43.40
  15   1 -18  692.23   44.20
 -15   1  18  695.03   55.59
  15   1 -18  639.04   58.89
 -15   1  18  614.14   43.80
  13  -1 -18   23.50   11.60
  13  -1 -18    5.90   17.00
 -13  -1  18   38.70   15.00
 -13  -1  18    3.50   15.50
 -13   1  18   -4.70   11.60
  13   1 -18   40.10   24.30
 -13   1  18   35.00   18.80
  13   1 -18   16.20   11.00
 -11  -1  18  463.45   34.60
 -11  -1  18  462.55   41.70
  11  -1 -18  463.25   31.90
  11  -1 -18  520.45   46.30
 -11   1  18  467.65   43.30
  11   1 -18  461.05   33.50
  11   1 -18  470.25   45.00
 -11   1  18  493.55   33.90
  -9  -1  18    5.50   11.00
  -9  -1  18   11.30   13.20
   9  -1 -18   21.90   10.40
   9  -1 -18   35.30   18.50
   9   1 -18    1.70    9.50
  -9   1  18  -14.70    8.40
   9   1 -18   17.20   17.40
  -9   1  18   31.80   18.60
   7  -1 -18    7.40   14.10
  -7  -1  18  -16.90   10.70
  -7  -1  18   27.60   11.60
   7  -1 -18   15.30    8.90
  -7   1  18  -10.90    9.30
   7   1 -18   13.20    9.40
  -7   1  18   23.40   17.80
   7   1 -18    1.40   14.70
  -5  -1  18   32.80   11.80
   5  -1 -18  -13.20   12.30
  -5  -1  18    4.20   12.80
   5  -1 -18    6.10    8.60
  -5   1  18   24.70   18.00
   5   1 -18   15.70   16.80
   5   1 -18   13.90   11.10
  -5   1  18   31.00   11.10
   3  -1 -18  104.49   22.90
   3  -1 -18  154.08   26.50
  -3  -1  18  136.89   19.30
  -3  -1  18  145.19   24.20
  -3   1  18  113.09   16.50
   3   1 -18  105.69   21.20
   3   1 -18  108.79   16.80
  -3   1  18   80.99   21.60
  -1  -1  18  361.46   27.30
   1  -1 -18  336.17   33.70
   1   1 -18  291.97   25.30
  -1   1  18  317.97   23.80
   1   1 -18  298.67   28.90
   1  -1  18   -0.30   10.10
   1   1  18   16.30   11.00
  -1   1 -18   11.90   12.10
  -3  -1 -18   17.70   26.10
   3  -1  18   -8.60   11.80
  -3   1 -18  -14.60   11.50
   3   1  18   37.50   11.80
  -3   1 -18   11.60   19.90
  -5  -1 -18  -25.20   22.50
   5  -1  18  -16.40   12.50
  -5   1 -18  -20.20   11.20
  -5   1 -18   50.09   20.90
  -7  -1 -18  -10.60   16.80
   7  -1  18   28.40   15.20
  -7  -1 -18   38.30   30.60
   7   1  18   20.30   15.60
  -7   1 -18    8.90   16.30
  -7   1 -18   27.90   13.00
   7   1  18   22.60   13.20
   9  -1  18   41.50   20.00
   9  -1  18   22.00   17.20
  -9  -1 -18   44.10   29.40
  -9  -1 -18   26.60   20.40
  -9   1 -18   23.50   12.60
  -9   1 -18    1.20   12.50
   9   1  18   21.50   15.00
   9   1  18   29.70   14.50
 -11  -1 -18    7.50   25.60
  11  -1  18   10.80   17.90
  11  -1  18   68.39   22.10
 -11  -1 -18   21.50   20.30
  11   1  18   23.20   17.90
 -11   1 -18   17.40   12.10
  11   1  18   22.70   18.00
 -11   1 -18    7.90   12.30
  13  -1  18   63.59   25.80
 -13  -1 -18    2.20   21.10
 -13  -1 -18   -0.30   24.10
  13   1  18   18.10   18.60
  13   1  18   18.00   18.60
  26  -2 -18  218.98   53.29
 -26  -2  18  192.78   35.80
 -26   2  18  159.78   33.90
  26   2 -18  242.78   57.09
 -24  -2  18   15.50   16.60
  24  -2 -18   50.19   36.20
  24   2 -18   41.10   35.30
 -24   2  18   31.20   20.90
  22  -2 -18  146.39   43.90
 -22  -2  18  211.58   34.80
 -22   2  18  267.67   34.00
  22   2 -18  217.58   50.39
 -20  -2  18  520.55   43.80
  20  -2 -18  442.96   55.09
 -20   2  18  537.25   49.30
  20   2 -18  576.44   64.99
  18  -2 -18   89.09   19.70
  18  -2 -18   29.90   25.60
 -18  -2  18   52.89   19.40
  18   2 -18   57.39   29.60
 -18   2  18   54.49   18.90
 -16  -2  18 1571.74   99.59
  16  -2 -18 1692.23  105.49
 -16  -2  18 1809.22   90.79
  16  -2 -18 1915.91   94.79
 -16   2  18 1794.92  103.59
  16   2 -18 1835.72  111.49
 -16   2  18 1841.32   89.29
  16   2 -18 1647.54   86.89
  14  -2 -18    7.00   11.20
 -14  -2  18   -7.90   13.10
  14  -2 -18  -22.50   14.20
 -14   2  18    2.10   19.40
  14   2 -18   11.60   12.80
 -14   2  18   14.80   13.20
  14   2 -18   -6.40   16.40
 -12  -2  18  428.26   40.70
 -12  -2  18  470.65   35.00
  12  -2 -18  393.16   30.20
  12  -2 -18  417.36   44.10
 -12   2  18  408.46   31.60
  12   2 -18  390.96   31.80
  12   2 -18  498.05   47.60
 -12   2  18  506.45   46.50
  10  -2 -18  670.13   52.09
 -10  -2  18  553.64   40.10
  10  -2 -18  620.14   37.00
 -10  -2  18  652.63   48.80
 -10   2  18  583.34   37.70
  10   2 -18  587.94   38.90
  10   2 -18  704.13   53.09
 -10   2  18  676.43   51.79
   8  -2 -18  -15.40   14.20
  -8  -2  18   19.60   14.60
  -8  -2  18   17.20   11.90
   8  -2 -18   25.40   10.60
   8   2 -18   17.30   16.60
   8   2 -18   22.10   11.30
  -8   2  18   24.00   19.00
  -8   2  18    7.50   10.10
   6  -2 -18   -3.20   15.10
  -6  -2  18    4.60   13.20
  -6  -2  18    7.90   11.30
  -6   2  18    1.80    9.20
   6   2 -18    4.70    9.90
  -6   2  18   10.50   15.30
  -4  -2  18  191.58   28.50
   4  -2 -18  156.28   16.40
  -4  -2  18  180.98   22.40
   4  -2 -18  202.88   31.90
  -4   2  18  150.08   27.60
   4   2 -18  143.59   23.80
   4   2 -18  168.18   20.20
  -4   2  18  144.49   17.00
  -2  -2  18  122.09   19.30
   2  -2 -18  131.79   28.60
   2  -2 -18   76.49   11.70
  -2  -2  18  129.19   21.30
   2   2 -18   76.69   17.90
  -2   2  18   75.29   12.30
   2   2 -18  102.89   17.50
   0  -2 -18   49.00   19.60
   0  -2  18   52.39   16.50
   0   2 -18   72.49   16.00
   0   2  18   56.99   11.60
  -2  -2 -18   -5.30   17.10
  -2  -2 -18  -13.50   22.70
   2  -2  18   -8.00   10.90
  -2   2 -18    9.60   17.40
  -2   2 -18   -3.70   10.00
   2   2  18  -11.50    8.80
  -4  -2 -18  -10.90   26.60
  -4  -2 -18    0.70   17.80
   4  -2  18  -17.90   12.30
  -4   2 -18    8.00    8.70
  -4   2 -18    5.90   12.70
   4   2  18   12.30   10.90
   6  -2  18   59.29   18.80
  -6  -2 -18   41.20   31.30
  -6  -2 -18   82.89   25.70
   6   2  18   50.79   13.30
   6   2  18   42.30   14.80
   8  -2  18   47.00   18.40
  -8  -2 -18   30.20   21.40
  -8  -2 -18   28.30   32.30
   8   2  18   19.10   13.90
 -10  -2 -18   31.20   23.70
  10  -2  18    7.20   16.90
 -10  -2 -18   29.00   30.60
  10   2  18  -12.70   12.00
  10   2  18   28.40   15.70
 -12  -2 -18  -16.00   29.60
  12  -2  18   -8.00   22.00
 -12  -2 -18   -2.70   23.60
  12   2  18   13.10   16.40
  12   2  18  -13.50   13.60
 -14  -2 -18   47.60   29.80
  14  -2  18   72.49   25.40
  14   2  18   56.59   24.70
  14   2  18   47.70   20.20
 -25  -3  18  -10.80   15.60
  25  -3 -18   -5.80   24.50
 -25   3  18   -3.50   16.20
  25   3 -18  102.69   49.60
  23  -3 -18   51.49   31.50
 -23  -3  18    4.80   17.10
 -23   3  18   82.79   25.10
  23   3 -18   31.50   33.10
 -21  -3  18  -13.20   13.10
  21  -3 -18    1.90   23.50
  21   3 -18   11.10   26.80
 -21   3  18  -15.20   12.80
  19  -3 -18  148.39   38.70
 -19  -3  18  129.79   25.90
  19   3 -18   30.30   33.70
 -19   3  18  159.58   27.30
  17  -3 -18   76.79   19.50
  17  -3 -18   58.19   29.30
 -17  -3  18   57.79   21.30
 -17   3  18   75.89   20.40
  17   3 -18  132.79   37.00
  15  -3 -18   47.20   15.70
  15  -3 -18   46.90   25.40
 -15  -3  18    6.50   16.60
 -15  -3  18   12.60   18.00
 -15   3  18   55.49   18.20
 -15   3  18   84.69   28.90
  15   3 -18   -1.90   13.30
  15   3 -18   85.09   33.30
  13  -3 -18   -9.60    9.30
 -13  -3  18   13.70   14.30
  13  -3 -18   -0.40   18.00
 -13  -3  18   11.70   16.80
  13   3 -18   18.80   13.60
 -13   3  18  -25.10    9.30
 -13   3  18  -10.40   13.70
  13   3 -18    8.20   20.40
 -11  -3  18  218.58   31.60
  11  -3 -18  268.87   37.40
  11  -3 -18  209.18   21.70
 -11  -3  18  270.67   27.50
 -11   3  18  209.18   23.20
  11   3 -18  205.98   27.30
  11   3 -18  244.48   36.80
  -9  -3  18   93.29   23.60
   9  -3 -18   97.49   25.80
  -9  -3  18   89.39   19.20
   9  -3 -18   99.69   16.00
  -9   3  18  113.39   16.70
   9   3 -18  130.59   29.80
  -9   3  18  115.99   31.60
   9   3 -18  117.79   20.60
   7  -3 -18   38.90   11.00
   7  -3 -18   63.59   23.80
  -7  -3  18   39.20   14.20
  -7  -3  18   -2.10   12.50
   7   3 -18    5.40   11.10
  -7   3  18   39.80   11.10
   7   3 -18   32.80   17.20
  -7   3  18   58.59   22.90
  -5  -3  18   37.80   15.30
  -5  -3  18   29.80   15.30
   5  -3 -18   13.00    8.10
   5  -3 -18   -5.60   14.50
   5   3 -18   15.80   10.90
  -5   3  18    9.70   16.70
   5   3 -18   35.00   16.40
  -5   3  18   20.00    9.30
  -3  -3  18    6.30   12.40
   3  -3 -18    4.90    7.40
   3  -3 -18  -21.40   14.70
  -3  -3  18   -1.40   12.30
   3   3 -18   13.40   13.20
  -3   3  18   -0.80    7.20
   3   3 -18   21.30   12.70
  -1  -3  18  192.48   24.50
  -1  -3  18  186.78   22.30
   1  -3 -18  140.49   29.80
  -1   3  18  198.18   15.50
   1   3 -18  170.48   22.90
   1   3 -18  161.78   22.60
  -1  -3 -18  114.69   29.10
   1  -3  18   86.49   19.60
  -1   3 -18   66.39   14.30
   1   3  18   70.79   10.60
   3  -3  18  225.18   28.30
  -3  -3 -18  259.77   38.00
  -3  -3 -18   88.99   40.80
   3   3  18  233.78   17.70
   3   3  18  237.58   17.10
  -5  -3 -18  102.99   41.40
   5  -3  18   59.09   18.10
  -5  -3 -18   92.79   28.10
   5   3  18   48.20   10.70
   5   3  18   63.49   11.30
  -7  -3 -18   11.20   24.60
  -7  -3 -18   -8.50   30.90
   7  -3  18   -9.00   15.40
   7   3  18   -0.40    8.70
   7   3  18   -4.20    9.60
  -9  -3 -18   43.40   42.10
   9  -3  18   62.09   22.00
  -9  -3 -18  -24.90   21.70
 -11  -3 -18   31.70   36.50
 -11  -3 -18  -13.10   24.50
  11  -3  18    9.70   21.10
  11   3  18   14.10   13.10
  13  -3  18   30.10   23.60
 -13  -3 -18   54.89   38.20
 -13  -3 -18   -4.10   29.20
  13   3  18  -12.30   12.60
  13   3  18   29.50   16.50
  26  -4 -18   31.20   30.30
 -26  -4  18   41.80   20.60
  26   4 -18   94.39   45.70
 -26   4  18    1.80   17.90
  24  -4 -18  124.49   40.40
 -24  -4  18   89.99   25.90
 -24   4  18   73.69   25.50
  24   4 -18   95.39   44.10
 -22  -4  18  127.49   29.10
  22  -4 -18   97.49   38.30
 -22   4  18  152.68   30.40
  22   4 -18  299.07   62.69
 -20  -4  18  273.17   34.50
  20  -4 -18  281.27   46.60
  20   4 -18  264.97   60.59
 -20   4  18  347.47   45.10
  18  -4 -18  129.59   24.30
 -18  -4  18  176.38   32.10
  18  -4 -18  235.18   46.30
 -18   4  18   98.09   23.90
  16  -4 -18  714.13   50.99
 -16  -4  18  798.32   53.39
 -16  -4  18  811.82   64.29
  16  -4 -18  789.22   65.89
  16   4 -18  716.73   71.49
 -16   4  18  765.92   49.99
 -14  -4  18   39.00   17.60
  14  -4 -18   42.10   15.50
 -14  -4  18  101.39   29.60
  14  -4 -18   21.10   21.20
 -14   4  18   51.39   16.80
  14   4 -18   26.50   16.30
 -14   4  18   27.50   29.50
  14   4 -18   43.40   28.20
 -12  -4  18  181.98   26.60
 -12  -4  18  222.28   36.80
  12  -4 -18  190.88   21.30
  12  -4 -18  187.88   36.40
 -12   4  18  184.78   23.30
 -12   4  18  341.77   51.59
  12   4 -18  182.68   25.30
  12   4 -18  259.07   45.00
 -10  -4  18   -0.10   15.40
  10  -4 -18   15.70   10.20
 -10  -4  18  -10.50   11.20
  10  -4 -18    8.30   17.90
  10   4 -18   -7.40   16.90
 -10   4  18   26.50   22.60
 -10   4  18    4.10   10.10
  10   4 -18   19.30   12.90
  -8  -4  18   14.30   15.70
  -8  -4  18   23.10   14.70
   8  -4 -18   35.80   20.90
  -8   4  18    5.50    9.50
   8   4 -18   50.89   23.40
   6  -4 -18  457.95   25.60
   6  -4 -18  375.36   43.10
  -6  -4  18  457.75   36.60
  -6  -4  18  441.76   35.50
   6   4 -18  428.16   34.30
  -6   4  18  425.66   26.60
   6   4 -18  441.66   47.20
   4  -4 -18  284.07   37.60
  -4  -4  18  223.08   26.70
  -4  -4  18  270.17   28.20
   4  -4 -18  223.38   15.90
   4   4 -18  183.08   25.40
  -4   4  18  227.08   17.00
   4   4 -18  188.68   28.90
  -2  -4  18  144.09   22.10
   2  -4 -18  191.98   34.80
  -2  -4  18  183.98   25.60
   2   4 -18  197.28   28.50
  -2   4  18  161.28   12.00
   0  -4 -18  281.97   38.80
   0  -4  18  235.68   28.90
   0   4 -18  236.48   24.50
  -2  -4 -18   30.60   33.50
  -2  -4 -18  -21.80   18.80
   2  -4  18  -16.70   12.10
  -4  -4 -18   -1.90   21.30
   4  -4  18   13.90   17.30
  -6  -4 -18   16.70   21.90
   6  -4  18    3.50   16.40
  -6  -4 -18  -11.20   29.20
   8  -4  18   36.80   24.20
  -8  -4 -18  -30.50   22.50
  -8  -4 -18   17.40   36.90
   8   4  18   35.90    8.50
   8   4  18   34.70    8.50
  10  -4  18   27.80   21.30
 -10  -4 -18  -24.60   29.70
 -10  -4 -18  -20.30   25.70
  10   4  18   20.00    9.80
  10   4  18    5.10    9.90
 -12  -4 -18   41.50   31.70
  12  -4  18   34.50   25.10
  12   4  18   -8.30   17.70
  12   4  18   22.80   11.70
  25  -5 -18   50.29   28.20
 -25  -5  18   53.69   21.50
  25   5 -18   30.90   37.90
 -25   5  18   40.80   23.00
  23  -5 -18   37.00   29.80
 -23  -5  18    6.30   18.30
 -23   5  18   17.60   16.00
  23   5 -18   10.40   33.70
 -21  -5  18  162.58   31.10
  21  -5 -18  228.98   48.60
 -21   5  18  201.78   33.10
  21   5 -18  164.08   50.99
  19  -5 -18  237.88   46.60
 -19  -5  18  185.28   31.70
 -19   5  18  162.98   29.40
  19   5 -18  150.68   50.59
  17  -5 -18  129.29   33.30
 -17  -5  18   78.59   21.80
  17  -5 -18  121.79   23.00
 -17   5  18  117.19   24.50
  17   5 -18   38.90   42.80
 -15  -5  18    2.20   18.40
  15  -5 -18    6.00   21.40
  15  -5 -18    4.90   12.00
 -15  -5  18   35.60   17.00
 -15   5  18    8.00   12.40
  15   5 -18  -14.40   24.70
  13  -5 -18    7.10   11.30
 -13  -5  18    0.70   18.90
  13  -5 -18   43.80   24.00
 -13  -5  18  -22.70   12.20
  13   5 -18   20.10   28.40
 -13   5  18   -0.70   10.50
 -11  -5  18   56.79   22.30
 -11  -5  18   77.89   21.50
  11  -5 -18   47.30   26.30
  11  -5 -18   39.10   12.60
 -11   5  18   38.80   14.30
  11   5 -18  121.09   35.70
 -11   5  18   14.70   26.30
  11   5 -18   31.70   15.20
   9  -5 -18  136.79   16.60
  -9  -5  18  152.68   25.90
  -9  -5  18   72.19   23.80
   9  -5 -18  112.59   33.90
  -9   5  18   90.09   33.20
   9   5 -18   97.49   20.40
  -9   5  18  136.69   18.00
   9   5 -18   92.89   29.90
  -7  -5  18   45.00   18.50
   7  -5 -18   27.80    9.90
   7  -5 -18   29.20   23.30
  -7  -5  18   21.10   16.40
   7   5 -18   58.79   25.80
   7   5 -18   39.80   15.80
  -7   5  18   19.80    9.90
   5  -5 -18   41.20    8.30
  -5  -5  18   12.50   15.30
   5  -5 -18   51.29   25.70
  -5  -5  18   61.29   18.60
  -5   5  18   31.10    9.00
   5   5 -18  -13.40   16.90
   5   5 -18   39.30   17.50
  -3  -5  18    7.50   11.70
   3  -5 -18   12.30   21.40
  -3  -5  18    7.70   14.20
   3   5 -18  -13.50   10.40
   3   5 -18  -38.20   15.70
   1  -5 -18   14.80   20.90
  -1  -5  18    7.20   15.10
  -1  -5  18   14.10   12.30
   1   5 -18   17.40   15.20
  -1  -5 -18   14.80   33.70
   1  -5  18    5.20   13.70
  -1  -5 -18   28.90   24.50
  -3  -5 -18   11.40   19.60
   3  -5  18  -12.20   14.50
  -3  -5 -18   45.50   37.20
  -5  -5 -18    5.30   32.50
  -5  -5 -18   45.20   27.70
   7  -5  18   26.90   18.40
  -7  -5 -18   12.80   25.50
  -9  -5 -18   -0.90   29.40
   9  -5  18  -11.00   17.70
 -11  -5 -18  -11.40   28.70
  11  -5  18    7.70   21.90
  24  -6 -18   28.20   28.80
 -24  -6  18   15.20   20.40
  24   6 -18   -3.90   36.80
 -22  -6  18  -28.80   13.70
  22  -6 -18   -3.00   23.50
 -22   6  18    2.10   17.60
  22   6 -18   -4.20   30.70
 -20  -6  18  178.08   33.70
  20  -6 -18   83.09   36.30
 -20   6  18  117.29   27.00
  20   6 -18  111.69   47.50
 -18  -6  18   53.29   20.70
  18  -6 -18   32.00   25.90
  18   6 -18   87.19   43.00
 -18   6  18  101.19   23.50
  16  -6 -18  351.96   33.50
  16  -6 -18  368.86   48.00
 -16  -6  18  447.06   39.80
 -16   6  18  357.36   35.70
  16   6 -18  438.66   86.59
  14  -6 -18   75.29   17.30
  14  -6 -18  104.69   34.30
 -14  -6  18   96.49   22.70
 -14  -6  18   92.79   29.30
 -14   6  18   91.39   21.00
  14   6 -18   67.19   32.40
  12  -6 -18  144.59   20.20
 -12  -6  18  182.28   37.80
  12  -6 -18  237.18   46.50
 -12  -6  18  167.18   29.30
 -12   6  18  199.98   24.30
  12   6 -18  159.28   44.90
  10  -6 -18    9.90   20.20
 -10  -6  18   35.30   15.50
  10  -6 -18   33.60   10.50
 -10  -6  18  -10.40   17.70
  10   6 -18   45.90   27.60
  -8  -6  18   90.99   26.00
  -8  -6  18  133.29   26.00
   8  -6 -18  118.69   34.50
   8  -6 -18  102.99   15.20
   8   6 -18  100.99   33.10
  -6  -6  18  236.78   31.10
   6  -6 -18  299.47   44.00
   6  -6 -18  276.97   18.60
  -6  -6  18  279.57   33.00
   6   6 -18  365.26   43.80
   6   6 -18  297.97   42.40
  -4  -6  18   10.20   16.40
  -4  -6  18   10.80   14.30
   4  -6 -18   39.30   27.10
   4   6 -18   25.80   22.80
  -2  -6  18   44.60   18.20
   2  -6 -18   76.89   29.40
  -2  -6  18   83.79   17.20
   2   6 -18   55.19   21.10
   0  -6 -18    0.30   25.20
   0  -6  18   44.50   10.30
   0  -6  18   41.30   19.00
  -2  -6 -18   -3.00   19.90
  -4  -6 -18  158.88   37.60
   4  -6  18   96.49   23.30
   6  -6  18   -9.20   17.80
  -6  -6 -18  -15.40   31.00
   8  -6  18    4.60   18.90
  -8  -6 -18  -35.20   25.50
 -10  -6 -18   91.29   40.30
  10  -6  18   54.59   25.80
  23  -7 -18  -10.10   24.70
 -23  -7  18    2.30   17.70
  23   7 -18   12.10   40.20
 -21  -7  18  108.59   28.50
  21  -7 -18  183.08   46.40
  21   7 -18  101.69   49.40
 -19  -7  18    6.20   16.00
  19  -7 -18   12.20   23.30
  19   7 -18  -34.10   27.40
 -17  -7  18   67.39   23.30
  17  -7 -18   11.00   18.50
  17  -7 -18   12.30   18.80
  17   7 -18    3.50   34.00
  15  -7 -18  212.48   45.70
 -15  -7  18  210.88   31.50
  15  -7 -18  167.38   26.50
 -13  -7  18  -22.20   14.10
  13  -7 -18  -19.50    9.20
  13  -7 -18   51.49   27.70
 -13  -7  18    4.10   13.20
  13   7 -18  -28.00   25.30
  11  -7 -18   86.29   16.70
  11  -7 -18  114.69   34.20
 -11  -7  18   67.79   28.40
 -11  -7  18  134.49   26.40
  11   7 -18   51.89   34.80
  -9  -7  18  -11.40   15.00
   9  -7 -18  -35.20   17.60
   9  -7 -18    1.20    9.70
  -9  -7  18  -10.10   16.30
   9   7 -18   11.10   23.40
  -7  -7  18  173.28   31.30
   7  -7 -18  112.39   14.60
   7   7 -18  217.18   43.40
  -5  -7  18  274.77   33.50
   5  -7 -18  372.56   71.79
   5   7 -18  258.37   46.50
   3  -7 -18    0.70   29.40
  -3  -7  18   -6.90   15.00
   3   7 -18   22.20   26.20
  -1  -7  18  -23.10   14.40
  -1  -7  18   -1.40   11.20
   1  -7  18   27.20   17.80
  -1  -7 -18   46.20   29.80
   3  -7  18   86.89   24.10
  -3  -7 -18    4.10   25.70
   5  -7  18  -14.80   17.80
  -5  -7 -18    4.20   28.50
   7  -7  18   10.10   18.10
  -7  -7 -18  -16.10   25.90
  -9  -7 -18    9.00   33.10
   9  -7  18   -9.40   19.00
 -20  -8  18    0.40   16.40
  20  -8 -18   41.50   30.50
  20   8 -18   29.20   43.80
  18  -8 -18    4.40   22.30
 -18  -8  18    3.40   16.30
  18   8 -18   -6.60   31.30
  16  -8 -18  162.88   26.90
 -16  -8  18  178.18   34.90
  16  -8 -18  202.58   44.10
  16   8 -18  182.48   53.99
  14  -8 -18   18.70   23.00
  14  -8 -18  -14.40   13.20
 -14  -8  18  -16.60   13.30
  14   8 -18    5.70   31.40
  12  -8 -18    9.90   12.00
 -12  -8  18   -2.70   13.60
  12  -8 -18  -23.30   19.00
  12   8 -18    5.00   31.60
 -10  -8  18  222.58   40.70
  10  -8 -18   50.59   28.60
  10  -8 -18  136.09   19.40
 -10  -8  18  128.79   26.90
  10   8 -18  136.09   42.20
  -8  -8  18  246.38   39.90
  -8  -8  18  280.77   34.70
   8  -8 -18  246.88   20.40
   8  -8 -18  222.98   45.70
   8   8 -18  206.88   49.80
  -6  -8  18   -2.40   18.00
   6  -8 -18    0.10    5.70
   6  -8 -18   25.70   25.40
  -6  -8  18   22.20   19.00
   6   8 -18   25.90   27.60
   4  -8 -18  -23.10   22.00
  -4  -8  18   -7.40   14.90
  -4  -8  18  -10.70   15.90
   4   8 -18  -38.40   20.90
  -2  -8  18   28.30   18.10
  -2  -8  18    0.10   14.80
   2  -8 -18   33.20   26.70
   0  -8  18   74.09   23.50
   0  -8 -18   10.50   28.70
   0  -8  18   19.50   11.40
  -2  -8 -18   21.30   27.40
   2  -8  18   -3.00   16.00
  -4  -8 -18   47.10   31.60
   4  -8  18    9.70   20.90
  -6  -8 -18    5.10   28.20
   6  -8  18    7.60   18.60
   8  -8  18   70.99   26.80
  -8  -8 -18   74.49   37.00
  19  -9 -18   31.30   29.90
 -19  -9  18   35.70   23.70
  19   9 -18   -6.00   35.80
  17  -9 -18  -18.00   20.10
 -17  -9  18   31.50   19.10
  17   9 -18   20.30   38.50
 -15  -9  18    5.10   15.10
  15  -9 -18   55.59   30.60
  15  -9 -18   15.70   16.00
  15   9 -18    9.00   33.60
 -13  -9  18    2.80   15.80
  13  -9 -18   21.90   14.50
  13  -9 -18   27.80   25.70
  13   9 -18   32.20   34.30
  11  -9 -18   11.70   12.20
 -11  -9  18   65.19   21.90
  11  -9 -18   49.10   27.90
  11   9 -18    8.80   35.60
   9  -9 -18   86.19   15.70
  -9  -9  18  151.78   35.70
  -9  -9  18   95.89   27.00
   9  -9 -18   73.99   31.00
   9   9 -18   95.69   41.40
   7  -9 -18   62.49   11.40
   7  -9 -18   90.39   12.60
  -7  -9  18   74.19   26.50
   7  -9 -18   55.39   30.30
  -7  -9  18   73.49   24.30
   7   9 -18   98.59   37.60
  -5  -9  18   30.20   21.00
   5  -9 -18  -26.60   19.20
  -5  -9  18    6.60   17.30
   5   9 -18   10.50   33.80
   3  -9 -18    2.60   23.30
  -3  -9  18    7.10   16.50
  -3  -9  18    8.90   19.00
   1  -9 -18   58.69   34.60
  -1  -9  18   12.40   15.50
  -1  -9  18   -2.20   16.50
  -1  -9 -18   -4.20   28.80
   1  -9  18  -24.70   14.40
  -3  -9 -18   21.60   31.10
   3  -9  18    3.60   18.20
  -5  -9 -18    0.90   30.00
   5  -9  18   -4.40   19.30
  16 -10 -18    5.40   26.70
 -16 -10  18  -32.30   12.20
  16  10 -18    5.90   39.40
 -14 -10  18   47.40   21.10
  14 -10 -18   -7.40   23.10
  14 -10 -18    5.90   14.00
  14  10 -18    6.90   33.30
  12 -10 -18   43.30   28.40
 -12 -10  18   20.80   18.10
  12 -10 -18   42.10   16.30
  12  10 -18   74.09   48.00
  10 -10 -18   25.60   25.20
 -10 -10  18   31.50   20.10
  10 -10 -18   -0.10   11.10
  10  10 -18   19.30   37.00
   8 -10 -18   14.20   10.40
  -8 -10  18   11.50   17.50
   8 -10 -18   -4.40    9.50
  -8 -10  18   31.60   27.40
   8 -10 -18   31.10   28.00
   8  10 -18   40.20   38.20
  -6 -10  18  116.39   38.00
   6 -10 -18  106.29   36.10
  -6 -10  18  137.79   29.40
   6  10 -18  147.09   44.30
  -4 -10  18   49.20   24.30
   4 -10 -18    9.60   27.60
  -4 -10  18   20.20   19.50
  -2 -10  18   13.60   18.60
   2 -10 -18   32.70   28.10
  -2 -10  18   21.70   19.10
   0 -10 -18  -33.50   23.00
   0 -10  18   39.70   16.40
   0 -10  18    7.80   17.30
  -2 -10 -18  -11.00   27.90
   2 -10  18   24.30   21.50
 -11 -11  18   22.60   21.00
  11 -11 -18   19.40   14.60
  11 -11 -18   53.69   32.70
  11 -11 -18   28.20   15.30
  11  11 -18  -23.40   33.50
   9 -11 -18   29.30   12.90
   9 -11 -18   -1.90   23.10
  -9 -11  18   18.90   20.00
   9 -11 -18   36.00   16.10
   9  11 -18   16.50   48.40
   7 -11 -18   26.50    9.20
   7 -11 -18   59.39   32.80
  -7 -11  18   57.39   25.90
   7 -11 -18   36.20    9.40
  -7 -11  18   37.10   32.30
   7  11 -18   25.70   40.50
   5 -11 -18   22.60   29.30
  -5 -11  18   28.50   21.00
  -5 -11  18   75.09   33.20
  -3 -11  18   15.00   22.60
   3 -11 -18    8.00   29.60
  -3 -11  18   28.80   20.80
  26   0 -19   -4.50   26.00
 -26   0  19   -6.50   17.00
 -24   0  19   -2.50   15.40
  24   0 -19    3.10   26.80
 -22   0  19   17.90   17.60
  22   0 -19   23.70   25.50
 -20   0  19    7.40   15.30
  20   0 -19  -21.80   19.70
 -18   0  19    3.50   13.10
  18   0 -19   -4.90   19.70
  16   0 -19   -7.40   10.60
 -16   0  19  -16.70   13.80
  16   0 -19   -9.30   19.60
 -16   0  19    0.50   12.50
  14   0 -19   11.40   11.40
  14   0 -19   21.00   21.40
 -14   0  19   -1.50   14.50
 -14   0  19    5.50   13.00
 -12   0  19    5.00   16.40
  12   0 -19  -25.60   13.10
 -12   0  19  -19.80    9.90
  12   0 -19   23.60   11.80
 -10   0  19   -9.80   12.00
  10   0 -19  -30.70   10.20
  10   0 -19    1.30   10.20
 -10   0  19   -0.40   10.40
   8   0 -19    1.60   15.50
  -8   0  19   -6.20    9.80
  -8   0  19   14.90   17.00
   8   0 -19   -7.00    8.80
   6   0 -19    9.50   15.40
   6   0 -19  -13.80    7.60
  -6   0  19   -8.30   13.30
  -6   0  19  -11.30    8.50
   4   0 -19   15.40    9.10
   4   0 -19   -8.20   12.90
  -4   0  19   16.50   10.90
  -4   0  19   -0.10   15.30
  -2   0  19   -4.10    9.60
   2   0 -19   -0.70   17.20
   2   0 -19   -7.40    9.00
   0   0 -19   -4.50   13.30
   0   0  19   -5.40   10.90
   2   0  19   -9.00   10.70
  -2   0 -19   32.20   26.60
  -2   0 -19  -15.80   12.90
  -4   0 -19   20.60   17.40
  -4   0 -19  -11.90   28.10
   4   0  19    6.20   12.60
   6   0  19   -4.60   13.50
  -6   0 -19   32.10   18.40
  -8   0 -19   11.70   16.90
   8   0  19    2.30   15.60
   8   0  19   -4.40   14.80
 -10   0 -19  -16.40   15.70
  10   0  19   10.30   15.20
  10   0  19   15.60   21.10
 -12   0 -19   11.40   18.30
  12   0  19   -6.00   16.10
  12   0  19   -7.20   17.20
  27  -1 -19    0.50   26.20
 -27  -1  19   38.40   21.50
 -27   1  19   41.20   21.90
  27   1 -19    0.30   32.40
  25  -1 -19   34.00   31.20
 -25  -1  19   47.10   23.90
  25   1 -19   37.00   34.50
 -25   1  19   48.90   21.90
  23  -1 -19  404.66   56.79
 -23  -1  19  244.28   35.20
  23   1 -19  331.97   66.69
 -23   1  19  336.47   37.80
  21  -1 -19  -18.80   21.10
 -21  -1  19    7.40   16.60
  21   1 -19  -18.30   18.50
 -21   1  19    0.50   13.00
  19  -1 -19   27.30   28.60
 -19  -1  19   -5.80   14.70
 -19   1  19    8.00   15.50
 -17  -1  19   95.99   22.80
 -17  -1  19   93.29   38.50
  17  -1 -19  103.09   35.80
  17  -1 -19   98.99   21.50
 -17   1  19   74.79   20.10
  17   1 -19  112.49   22.40
  17   1 -19   82.19   29.90
  15  -1 -19   18.20   21.30
  15  -1 -19   82.19   23.80
 -15  -1  19   24.10   18.90
 -15  -1  19   16.50   15.80
 -15   1  19   23.40   14.30
  15   1 -19    3.30   11.60
 -15   1  19   18.80   18.80
  15   1 -19   29.60   24.50
  13  -1 -19  952.00   68.19
 -13  -1  19  944.71   64.39
  13  -1 -19  808.22   49.99
 -13  -1  19  917.21   54.39
 -13   1  19  970.10   53.69
  13   1 -19  871.11   67.99
 -13   1  19  947.11   79.19
  13   1 -19  932.71   52.69
 -11  -1  19    8.00   16.40
  11  -1 -19   -5.10    8.80
 -11  -1  19   -1.80   12.60
  11  -1 -19    4.70   17.60
  11   1 -19   18.40   11.30
 -11   1  19    6.70   11.10
  11   1 -19   17.40   17.60
 -11   1  19    9.90   16.60
  -9  -1  19  403.66   37.50
   9  -1 -19  393.16   39.80
  -9  -1  19  408.06   31.50
   9  -1 -19  371.26   27.70
  -9   1  19  363.06   28.20
   9   1 -19  330.27   28.40
   9   1 -19  352.46   38.90
  -9   1  19  388.06   39.40
  -7  -1  19  686.83   48.30
  -7  -1  19  632.54   40.90
   7  -1 -19  663.23   50.29
   7  -1 -19  649.64   37.50
   7   1 -19  692.73   40.80
   7   1 -19  667.33   50.29
  -7   1  19  641.04   50.69
  -7   1  19  670.93   39.10
  -5  -1  19  252.57   24.70
  -5  -1  19  274.27   30.40
   5  -1 -19  275.37   21.90
   5  -1 -19  222.08   31.10
   5   1 -19  260.87   30.90
   5   1 -19  214.18   22.40
  -5   1  19  257.57   22.30
  -5   1  19  240.28   33.40
  -3  -1  19  338.27   27.70
   3  -1 -19  312.97   33.50
  -3  -1  19  295.37   32.40
   3  -1 -19  300.37   23.70
  -3   1  19  336.17   24.80
   3   1 -19  275.37   25.80
   3   1 -19  317.87   31.30
   1  -1 -19  413.66   37.40
  -1  -1  19  348.87   29.60
   1   1 -19  369.16   29.70
   1   1 -19  388.96   32.80
  -1   1  19  411.16   27.70
  -1  -1 -19  117.49   25.70
   1  -1  19  130.09   20.30
  -1   1 -19  101.69   20.20
   1   1  19   83.39   15.50
   3  -1  19   44.30   15.70
  -3  -1 -19   -8.40   26.80
  -3  -1 -19    9.20   17.80
  -3   1 -19   22.60   14.10
   3   1  19    7.70   12.60
  -3   1 -19    9.10   21.90
   5  -1  19    1.80   14.40
  -5  -1 -19   18.30   19.80
  -5  -1 -19   44.30   33.00
  -5   1 -19   -4.00   12.40
   5   1  19  -14.20   11.70
  -5   1 -19   11.40   20.30
  -7  -1 -19    2.20   24.10
  -7  -1 -19   33.50   20.30
   7  -1  19   29.80   16.40
   7   1  19   49.50   17.30
  -7   1 -19   35.50   18.10
   7   1  19   41.90   14.00
  -7   1 -19   18.50   13.00
   9  -1  19    4.20   17.20
  -9  -1 -19   29.90   21.60
  -9  -1 -19   12.10   27.70
   9  -1  19    9.20   15.80
   9   1  19    5.90   14.30
  -9   1 -19   13.30   13.60
  -9   1 -19   24.80   12.50
   9   1  19    4.80   13.70
 -11  -1 -19  -12.00   19.40
  11  -1  19   31.90   19.80
 -11  -1 -19   53.69   30.50
  11   1  19   35.30   18.30
  11   1  19   23.30   16.70
 -13  -1 -19   17.20   24.40
  13  -1  19   44.50   23.30
 -13  -1 -19   47.90   28.70
  13   1  19   32.50   20.90
  13   1  19   46.40   19.40
 -26  -2  19    5.40   16.10
  26  -2 -19   43.10   37.10
  26   2 -19   25.70   31.40
 -26   2  19   77.19   26.00
 -24  -2  19  167.98   31.10
  24  -2 -19   91.19   35.80
 -24   2  19  209.78   36.40
  24   2 -19   90.69   37.10
  22  -2 -19   21.30   23.20
 -22  -2  19    3.40   17.20
 -22   2  19   13.70   17.10
  22   2 -19  -10.90   25.50
  20  -2 -19  104.59   37.50
 -20  -2  19    4.10   16.30
  20   2 -19   88.89   36.80
 -18  -2  19   -7.80   13.30
  18  -2 -19   -0.80   11.70
  18  -2 -19  -35.50   18.10
  18   2 -19  -28.30   19.20
 -18   2  19   20.80   14.40
  16  -2 -19   27.30   14.20
  16  -2 -19   80.29   27.20
 -16  -2  19   15.20   15.40
 -16  -2  19   21.00   20.60
  16   2 -19   26.30   15.00
 -16   2  19   10.50   20.80
  16   2 -19   35.10   30.30
 -16   2  19   29.90   14.30
 -14  -2  19   31.90   14.90
  14  -2 -19  -29.80   18.40
 -14  -2  19   34.70   21.50
  14  -2 -19   26.60   12.70
 -14   2  19   35.30   15.40
 -14   2  19   28.00   22.30
  14   2 -19   26.60   14.20
  14   2 -19   39.30   25.90
 -12  -2  19    4.70   15.40
  12  -2 -19   10.10   18.90
 -12  -2  19    2.00   14.60
  12  -2 -19  -12.50    8.80
  12   2 -19    8.60   18.70
 -12   2  19   13.70   11.70
  12   2 -19   -1.80   11.90
 -12   2  19  -17.50   15.00
  10  -2 -19  144.19   32.40
  10  -2 -19  149.09   18.50
 -10  -2  19  158.18   23.20
 -10  -2  19  197.08   32.70
  10   2 -19  140.49   30.10
 -10   2  19  196.18   35.70
  10   2 -19  161.18   23.50
 -10   2  19  156.68   21.00
   8  -2 -19  111.59   27.20
  -8  -2  19   86.99   22.50
   8  -2 -19   80.29   13.80
  -8  -2  19   91.49   17.80
  -8   2  19   99.39   27.80
   8   2 -19  159.88   29.60
   8   2 -19  124.29   20.20
  -6  -2  19   10.00   14.30
   6  -2 -19   24.40    9.40
  -6  -2  19  -18.10   10.40
   6  -2 -19   43.10   20.70
   6   2 -19    6.40   11.70
  -6   2  19    9.30   19.60
   6   2 -19   18.00   16.40
  -6   2  19   -5.70    8.60
   4  -2 -19   -0.80    8.10
  -4  -2  19   15.00   14.40
   4  -2 -19    1.20   15.30
  -4  -2  19   -5.10   10.80
   4   2 -19    6.90   13.20
  -4   2  19   -3.60    8.60
   4   2 -19    8.90   11.60
  -2  -2  19   52.09   15.50
  -2  -2  19   10.80   15.50
   2  -2 -19   52.39   20.30
   2  -2 -19   28.40   10.80
  -2   2  19   48.50   12.10
   2   2 -19   36.00   15.20
   2   2 -19   46.70   14.80
   0  -2  19   19.20   14.10
   0  -2 -19   35.10   20.90
   0   2 -19    8.10   11.90
   0   2  19   39.10   10.80
   2  -2  19   94.89   19.40
  -2  -2 -19   53.79   33.50
  -2  -2 -19   57.89   23.60
  -2   2 -19   65.49   14.20
   2   2  19  123.59   16.40
  -2   2 -19   37.10   21.40
  -4  -2 -19  -12.10   15.40
   4  -2  19   14.20   14.60
  -4  -2 -19   44.90   34.90
  -4   2 -19   33.80   14.00
   4   2  19   26.30   11.40
  -4   2 -19   12.50    9.20
   6  -2  19   19.80   15.40
  -6  -2 -19   -9.50   18.60
  -6  -2 -19    5.20   30.70
   6   2  19   -6.00   10.40
   6   2  19    6.90   12.00
  -8  -2 -19  -33.70   18.00
   8  -2  19   13.90   16.00
  -8  -2 -19    5.30   30.50
   8   2  19   19.20   16.50
   8   2  19  -15.40   12.80
  10  -2  19  -17.30   17.20
 -10  -2 -19  -21.60   19.40
 -10  -2 -19  -32.50   27.40
  10   2  19   -1.70   13.70
  10   2  19   15.80   15.60
 -12  -2 -19   28.50   25.90
  12  -2  19   22.00   21.40
 -12  -2 -19   -7.60   29.80
  12   2  19    1.30   15.50
  12   2  19   -0.30   14.10
 -25  -3  19  170.38   33.90
  25  -3 -19  164.28   47.00
  25   3 -19  140.89   49.90
 -25   3  19  133.49   30.60
 -23  -3  19   79.19   24.10
  23  -3 -19   58.99   32.00
  23   3 -19   50.59   35.60
 -23   3  19   46.90   21.50
 -21  -3  19   64.49   21.20
  21  -3 -19   56.69   30.70
  21   3 -19   71.69   35.40
 -21   3  19  104.19   26.30
 -19  -3  19  490.95   42.30
  19  -3 -19  420.66   53.19
  19   3 -19  451.15   60.39
 -19   3  19  470.45   41.20
  17  -3 -19  256.67   48.40
  17  -3 -19  228.18   26.80
 -17  -3  19  182.38   29.60
 -17   3  19  207.48   27.90
  17   3 -19  283.77   54.89
  15  -3 -19  151.68   22.20
 -15  -3  19  147.79   35.40
  15  -3 -19  216.68   40.70
 -15  -3  19  198.18   27.20
 -15   3  19  178.38   26.40
  15   3 -19   87.09   32.20
 -15   3  19  183.68   45.10
  15   3 -19  193.28   29.60
  13  -3 -19  721.53   43.30
 -13  -3  19  729.33   64.79
 -13  -3  19  711.33   47.70
  13  -3 -19  586.24   56.39
 -13   3  19  758.62   60.39
 -13   3  19  739.33   45.40
  13   3 -19  702.93   46.40
  13   3 -19  741.93   64.39
  11  -3 -19   10.40   19.20
  11  -3 -19   35.80   12.00
 -11  -3  19   74.79   23.40
 -11  -3  19   42.30   15.80
 -11   3  19   38.30   24.20
 -11   3  19   55.79   15.40
  11   3 -19   82.49   27.60
  11   3 -19   93.59   18.40
  -9  -3  19  141.19   27.80
  -9  -3  19  160.48   23.90
   9  -3 -19  161.38   18.40
   9  -3 -19  163.48   33.40
   9   3 -19  171.58   22.70
  -9   3  19  204.68   42.30
   9   3 -19  194.28   31.90
  -7  -3  19   48.50   16.40
  -7  -3  19   34.10   16.30
   7  -3 -19   41.70   20.90
   7  -3 -19   42.70   17.40
  -7   3  19   40.60   22.60
  -7   3  19   37.10   11.70
   7   3 -19   37.10   14.30
   7   3 -19   30.20   18.40
   5  -3 -19    4.10    8.30
  -5  -3  19    0.70   13.90
   5  -3 -19  -14.30   15.00
  -5  -3  19   -6.10   11.90
   5   3 -19    1.30   14.40
  -5   3  19  -10.30    8.80
   5   3 -19   22.40   13.10
  -3  -3  19   22.00   14.70
   3  -3 -19   18.60    8.10
   3  -3 -19   26.70   20.90
  -3  -3  19    8.70   13.60
   3   3 -19   10.00   15.50
   3   3 -19   13.60   13.10
  -3   3  19    1.20    8.60
  -1  -3  19   68.59   18.20
   1  -3 -19   41.10   22.20
  -1  -3  19   59.29   16.60
  -1   3  19   69.49   10.90
   1   3 -19   70.39   17.60
   1  -3  19   31.70   16.80
  -1  -3 -19   85.79   26.80
  -1   3 -19   64.49   14.10
   1   3  19   48.80    9.90
   3  -3  19    1.40   15.40
  -3  -3 -19  -14.20   29.90
  -3  -3 -19   -2.40   19.10
   3   3  19    7.50    8.60
   3   3  19   -4.10    8.10
  -5  -3 -19   76.09   28.70
   5  -3  19   65.49   18.80
  -5  -3 -19  109.79   40.70
   5   3  19  100.29   14.60
   5   3  19   82.69   13.00
  -7  -3 -19   92.39   42.60
  -7  -3 -19   80.19   28.30
   7  -3  19   58.89   20.20
   7   3  19   61.09   13.60
   7   3  19   92.29   14.00
   9  -3  19  -16.00   27.90
  -9  -3 -19   36.00   38.90
  -9  -3 -19   -0.30   22.40
   9   3  19   20.90   11.90
 -11  -3 -19   20.00   34.20
 -11  -3 -19   53.59   29.80
  11  -3  19   28.00   20.90
  11   3  19   38.50   15.70
 -13  -3 -19   21.00   31.10
  13  -3  19    6.60   24.90
  13   3  19  -12.50   13.00
  13   3  19   35.10   17.30
 -26  -4  19   33.60   23.80
  26  -4 -19   -8.30   22.60
  26   4 -19  -18.40   32.20
 -26   4  19   -5.30   17.00
  24  -4 -19   17.30   27.50
 -24  -4  19   24.10   19.70
 -24   4  19  -25.30   14.50
  24   4 -19   41.90   43.00
  22  -4 -19   35.00   26.80
 -22  -4  19   50.59   21.80
 -22   4  19   35.90   19.60
  22   4 -19   16.00   33.40
 -20  -4  19   14.80   17.80
  20  -4 -19    7.10   26.60
 -20   4  19   22.30   16.00
  20   4 -19   -2.60   28.40
 -18  -4  19   -7.30   13.60
  18  -4 -19   33.60   15.10
  18  -4 -19   25.70   23.40
  18   4 -19   -9.30   23.00
 -18   4  19   17.30   16.00
 -16  -4  19    7.50   17.30
  16  -4 -19   14.00   12.60
  16  -4 -19   -8.30   27.80
  16   4 -19    4.30   23.50
 -16   4  19   50.29   16.90
 -14  -4  19   22.60   19.70
  14  -4 -19   64.39   24.90
  14  -4 -19   43.70   14.40
 -14  -4  19   55.79   19.20
 -14   4  19   41.70   15.60
  14   4 -19  105.39   36.50
  12  -4 -19   30.80   12.50
 -12  -4  19   52.79   22.40
  12  -4 -19   24.70   20.30
 -12  -4  19   43.30   16.70
 -12   4  19   18.40   25.60
 -12   4  19   22.90   13.50
  12   4 -19   -1.90   21.00
  12   4 -19   17.40   14.10
  10  -4 -19   78.99   15.10
  10  -4 -19   12.10   21.50
 -10  -4  19   44.90   17.10
 -10  -4  19   32.50   18.30
 -10   4  19   38.80   13.80
  10   4 -19   42.90   16.00
  10   4 -19   44.80   25.30
 -10   4  19   14.10   24.50
  -8  -4  19   20.00   16.10
   8  -4 -19   18.10   11.20
   8  -4 -19   35.70   23.10
  -8  -4  19   13.50   17.00
  -8   4  19    8.40   21.30
   8   4 -19   17.70   21.00
  -8   4  19   47.40   12.80
   8   4 -19   45.50   15.70
   6  -4 -19  -28.60   14.80
  -6  -4  19   12.80   14.30
   6  -4 -19    4.70    8.20
  -6  -4  19    4.40   13.30
  -6   4  19   12.80    9.10
   6   4 -19   22.50   26.40
   6   4 -19  -14.80   10.70
  -4  -4  19  110.79   23.10
   4  -4 -19  102.79   28.90
   4  -4 -19  102.79   12.10
   4   4 -19   50.89   20.20
   4   4 -19  120.59   22.00
  -4   4  19   95.89   13.00
  -2  -4  19   12.50   12.60
   2  -4 -19    2.60   21.20
  -2  -4  19    0.80   13.90
   2   4 -19   22.00   17.20
  -2   4  19   -1.80    6.00
   2   4 -19   -4.80   12.20
   0  -4  19  106.49   20.90
   0  -4 -19  121.39   30.60
   0   4 -19  102.09   17.50
  -2  -4 -19   52.99   25.30
   2  -4  19   56.89   19.80
  -2  -4 -19   29.60   62.69
  -4  -4 -19  -61.39   29.00
   4  -4  19    1.50   15.70
  -4  -4 -19   40.20   26.00
  -6  -4 -19   37.00   26.50
   6  -4  19  -10.00   14.80
  -6  -4 -19  -50.19   28.10
  -8  -4 -19   -4.20   23.00
   8  -4  19   19.60   18.30
  -8  -4 -19   -7.90   33.30
 -10  -4 -19  -12.20   25.20
  10  -4  19   26.50   20.00
  10   4  19    0.70    9.10
  10   4  19    6.10    9.10
  12  -4  19   29.70   23.90
 -12  -4 -19    8.90   29.30
  12   4  19   16.80   12.70
  12   4  19   27.80   11.80
  25  -5 -19    6.60   26.00
 -25  -5  19   -6.30   15.60
  25   5 -19  -11.60   34.90
 -25   5  19   28.00   21.50
  23  -5 -19  167.08   48.00
 -23  -5  19  254.47   36.20
 -23   5  19  130.49   29.80
  23   5 -19  237.08   63.19
  21  -5 -19   37.40   28.20
 -21  -5  19   67.29   23.30
  21   5 -19   63.09   40.80
 -21   5  19   99.59   26.00
 -19  -5  19   17.50   17.20
  19  -5 -19   23.90   24.60
 -19   5  19   17.80   17.60
  19   5 -19    1.70   30.30
 -17  -5  19  484.95   42.70
  17  -5 -19  389.46   51.09
  17  -5 -19  405.86   35.80
 -17   5  19  452.65   38.30
  15  -5 -19  265.67   50.59
  15  -5 -19  187.28   23.80
 -15  -5  19  267.47   50.89
 -15  -5  19  188.78   33.20
 -15   5  19  213.28   27.30
  15   5 -19  289.97   55.09
  13  -5 -19  480.65   51.09
  13  -5 -19  392.96   31.10
 -13  -5  19  485.35   40.30
 -13  -5  19  431.36   46.30
 -13   5  19  442.86   34.30
  13   5 -19  338.37   53.09
  11  -5 -19   37.00   12.30
 -11  -5  19   35.00   22.70
  11  -5 -19   -2.70   17.20
 -11  -5  19   27.40   16.20
  11   5 -19   14.50   24.60
 -11   5  19   59.59   14.80
  -9  -5  19  191.78   33.60
  -9  -5  19  106.39   23.80
   9  -5 -19  174.08   37.30
   9  -5 -19  167.38   18.10
  -9   5  19  134.99   37.60
  -9   5  19  157.78   19.60
   9   5 -19  202.78   42.50
   9   5 -19  126.39   23.70
   7  -5 -19  -13.00   18.40
  -7  -5  19  -13.40   14.20
   7  -5 -19    6.60    8.40
  -7  -5  19   -4.10   13.90
   7   5 -19   22.70   17.10
   7   5 -19   12.80   20.20
  -7   5  19   -1.90    8.10
   5  -5 -19    5.30    6.70
  -5  -5  19    5.80   16.50
  -5  -5  19  -10.00   13.00
   5  -5 -19  -25.20   19.50
  -5   5  19    0.50    7.50
   5   5 -19   21.10   17.10
   5   5 -19    1.40   18.20
  -3  -5  19  290.37   32.00
   3  -5 -19  239.28   41.40
  -3  -5  19  183.98   25.30
   3   5 -19  239.08   33.30
   3   5 -19  272.07   31.00
   1  -5 -19   10.70   20.20
  -1  -5  19   -7.20   15.10
  -1  -5  19  -15.30    9.50
   1   5 -19   15.90   15.70
  -1  -5 -19   32.50   25.30
  -1  -5 -19   54.09   38.00
   1  -5  19  116.19   23.90
  -3  -5 -19   31.80   26.30
  -3  -5 -19   32.70   39.90
   3  -5  19   15.80   17.20
   5  -5  19   27.30   20.40
  -5  -5 -19  -21.90   21.30
  -7  -5 -19   90.49   32.20
   7  -5  19  142.39   27.70
   9  -5  19    1.40   19.20
  -9  -5 -19   59.99   42.50
  11  -5  19   -1.30   20.30
 -11  -5 -19  -10.80   28.20
  24  -6 -19    6.70   26.00
 -24  -6  19   18.10   19.20
  24   6 -19   29.70   38.40
  22  -6 -19   30.10   28.50
 -22  -6  19   -8.20   16.30
  22   6 -19   23.60   34.40
 -22   6  19    3.70   16.30
  20  -6 -19   86.99   36.20
 -20  -6  19   44.20   20.40
 -20   6  19   29.50   19.60
  20   6 -19   25.10   33.30
 -18  -6  19    0.50   16.00
  18  -6 -19   19.20   24.50
 -18   6  19   44.40   18.50
  18   6 -19   39.40   34.90
 -16  -6  19   23.10   17.60
  16  -6 -19   -4.60   11.60
  16  -6 -19  -17.30   16.10
 -16   6  19    5.70   14.50
  14  -6 -19   26.90   14.10
 -14  -6  19   29.50   22.80
  14  -6 -19   31.70   26.20
 -14  -6  19   22.10   17.70
 -14   6  19   24.60   14.80
  14   6 -19   37.60   30.50
 -12  -6  19   46.40   23.80
  12  -6 -19   20.80   29.20
 -12  -6  19   31.10   22.60
  12  -6 -19   39.00   13.90
  12   6 -19  104.29   37.90
 -12   6  19   18.50   14.00
  10  -6 -19   24.10   23.40
 -10  -6  19   73.29   25.40
 -10  -6  19   28.20   17.30
  10  -6 -19   43.00   12.40
  10   6 -19   47.60   27.50
  -8  -6  19  178.58   29.50
   8  -6 -19  125.89   15.90
  -8  -6  19  143.19   29.00
   8  -6 -19  130.79   35.20
   8   6 -19  129.49   35.10
   6  -6 -19   35.80   25.30
  -6  -6  19   30.10   18.10
  -6  -6  19   19.60   16.90
   6  -6 -19   43.70    9.10
   6   6 -19    9.80   23.90
  -4  -6  19    2.40   14.30
   4  -6 -19   15.70   20.70
  -4  -6  19    7.80   16.00
   4   6 -19    7.50   19.50
  -2  -6  19   12.50   13.90
  -2  -6  19   20.90   17.00
   2  -6 -19    1.20   21.20
   2   6 -19    6.60   19.60
   0  -6 -19  -14.90   19.90
   0  -6  19  -20.20   25.40
  -2  -6 -19  -31.00   20.90
   2  -6  19   -3.40   16.90
   4  -6  19   61.59   23.50
   6  -6  19   50.99   22.90
  -6  -6 -19   87.79   34.90
  -8  -6 -19  -15.10   27.10
   8  -6  19   -3.70   18.50
 -10  -6 -19   -8.80   26.50
  10  -6  19   -3.00   21.80
 -21  -7  19   -1.10   17.10
  21  -7 -19   45.30   31.30
  21   7 -19    8.20   36.00
  19  -7 -19   44.20   28.10
 -19  -7  19   79.49   24.10
  19   7 -19   83.19   43.60
 -17  -7  19   -5.60   14.90
  17  -7 -19   19.30   23.70
  17  -7 -19   20.20   18.10
  17   7 -19    6.40   31.40
 -15  -7  19   30.80   18.60
  15  -7 -19   21.30   15.70
  15  -7 -19    3.10   20.10
  15   7 -19   -7.00   40.30
  13  -7 -19  197.28   23.50
 -13  -7  19  168.88   30.20
 -13  -7  19  220.48   47.90
  13  -7 -19  201.78   46.10
  13   7 -19  177.88   48.60
 -11  -7  19   14.20   21.60
  11  -7 -19   20.10   11.90
  11  -7 -19   62.99   28.20
 -11  -7  19   22.20   16.20
  11   7 -19   -1.30   26.90
   9  -7 -19   15.80   10.30
   9  -7 -19  -20.10   18.90
  -9  -7  19   -2.30   15.60
  -9  -7  19   -1.90   16.30
   9   7 -19   -2.40   23.40
  -7  -7  19  262.07   35.40
  -7  -7  19  249.48   33.80
   7  -7 -19  209.88   17.20
   7  -7 -19  192.08   39.50
   7   7 -19  352.26   54.79
   5  -7 -19  151.68   35.70
  -5  -7  19  175.48   28.70
  -5  -7  19  171.38   27.80
   5   7 -19  115.89   35.90
  -3  -7  19   39.20   18.60
   3  -7 -19   75.69   31.00
   3   7 -19   69.29   28.00
   1  -7 -19   32.70   27.00
  -1  -7  19   -4.60   14.50
  -1  -7  19   14.60   12.60
   1  -7  19    5.50   15.00
  -1  -7 -19   -2.30   25.90
  -3  -7 -19   20.70   27.10
   3  -7  19  -14.90   16.10
  -5  -7 -19   68.59   31.30
   5  -7  19   49.00   23.40
  -7  -7 -19   -5.50   27.60
   7  -7  19  -13.60   17.50
   9  -7  19  -17.20   20.10
  -9  -7 -19  -21.20   29.40
  20  -8 -19   -7.10   21.10
 -20  -8  19   -0.60   17.70
  20   8 -19  -15.10   35.20
  18  -8 -19   30.20   26.50
 -18  -8  19   21.30   19.30
  18   8 -19  -19.10   33.90
  16  -8 -19   37.70   30.90
  16  -8 -19  -10.70   11.90
 -16  -8  19  -16.50   16.50
  16   8 -19   -4.20   36.80
 -14  -8  19  254.17   33.50
  14  -8 -19  181.88   42.30
  14  -8 -19  139.49   22.80
  14   8 -19  155.18   52.29
  12  -8 -19   25.90   13.40
 -12  -8  19   10.60   15.30
  12  -8 -19   -5.30   21.60
  12   8 -19   22.70   32.50
 -10  -8  19   85.79   22.30
  10  -8 -19   73.19   33.60
  10  -8 -19   50.99   14.30
 -10  -8  19   -1.40   19.50
  10   8 -19   61.49   35.40
  -8  -8  19  114.89   29.20
  -8  -8  19   86.19   22.70
   8  -8 -19  122.79   33.60
   8  -8 -19  121.99   16.00
   8   8 -19  137.99   40.90
  -6  -8  19   22.10   19.60
  -6  -8  19   25.50   22.10
   6  -8 -19    9.50   24.20
   6   8 -19   11.40   23.40
  -4  -8  19  106.29   24.90
  -4  -8  19   74.19   21.80
   4  -8 -19   74.99   34.60
   4   8 -19   78.19   36.50
   2  -8 -19  -16.90   19.60
  -2  -8  19   17.30   20.10
  -2  -8  19   30.90   15.60
   0  -8  19   -2.20   17.40
   0  -8 -19    9.20   27.40
   2  -8  19  -16.90   14.80
  -2  -8 -19  117.29   38.30
  -4  -8 -19    8.90   28.60
   4  -8  19    6.00   18.80
  -6  -8 -19   57.19   39.90
   6  -8  19   16.40   19.80
  17  -9 -19   26.30   29.60
 -17  -9  19   -9.60   15.50
  17   9 -19    1.70   32.60
  15  -9 -19  -12.00   12.90
 -15  -9  19    4.20   16.80
  15  -9 -19   20.20   22.60
  15   9 -19   77.29   44.10
  13  -9 -19   45.60   16.90
 -13  -9  19  102.19   26.30
  13  -9 -19   40.00   28.50
  13   9 -19  127.89   49.40
  11  -9 -19   41.80   15.00
  11  -9 -19   38.60   27.20
 -11  -9  19   47.50   21.10
  11   9 -19   23.50   32.90
  -9  -9  19   94.79   29.50
   9  -9 -19   98.89   36.00
   9  -9 -19  124.29   21.70
  -9  -9  19   86.19   25.00
   9   9 -19   48.30   35.40
   7  -9 -19   26.30    8.20
  -7  -9  19   16.90   19.30
  -7  -9  19   36.40   21.90
   7  -9 -19   26.00    8.60
   7  -9 -19   -2.40   23.60
   7   9 -19   29.30   30.50
   5  -9 -19   27.80   27.70
  -5  -9  19   34.90   20.90
  -5  -9  19    9.90   19.60
   5   9 -19    3.30   29.00
  -3  -9  19  100.89   25.90
  -3  -9  19   75.39   24.80
   3  -9 -19   92.29   34.90
  -1  -9  19   65.79   17.90
  -1  -9  19   33.50   20.20
   1  -9 -19   51.99   31.00
  -1  -9 -19    9.60   27.50
   1  -9  19  -10.60   14.90
  -3  -9 -19  -14.80   30.10
   3  -9  19   15.30   18.30
   5  -9  19  -16.50   18.20
  -5  -9 -19  -14.10   29.40
  14 -10 -19   -4.20   25.00
 -14 -10  19   19.80   20.80
  14 -10 -19    1.80   14.10
  14  10 -19  -24.20   35.00
  12 -10 -19   33.40   14.70
  12 -10 -19   -8.70   22.10
 -12 -10  19    3.50   15.60
  12  10 -19   84.79   45.40
  10 -10 -19   -1.10   23.40
  10 -10 -19   18.60   12.40
 -10 -10  19   37.70   21.60
  10  10 -19   58.19   41.00
  -8 -10  19   24.50   24.60
   8 -10 -19    2.10    9.20
   8 -10 -19    1.50    9.30
  -8 -10  19    6.10   18.10
   8 -10 -19  -20.80   22.70
   8  10 -19   -3.00   30.40
   6 -10 -19   17.90   27.70
  -6 -10  19   -8.20   20.50
  -6 -10  19   47.40   23.80
   6  10 -19   -7.70   32.90
  -4 -10  19   96.89   28.20
  -4 -10  19   94.59   28.50
   4 -10 -19   34.60   30.00
  -2 -10  19   33.60   20.90
   2 -10 -19  -10.00   24.70
  -2 -10  19   -7.70   17.10
   0 -10  19   25.80   13.60
   0 -10  19   22.40   13.50
   0 -10  19   40.00   22.50
   0 -10 -19   -5.70   29.00
  -7 -11  19   17.80   26.30
   7 -11 -19  -16.60   27.20
  -7 -11  19   -6.80   19.70
   7  11 -19  -24.50   32.70
 -26   0  20  187.88   34.30
  26   0 -20  198.68   53.39
 -24   0  20    4.10   16.90
  24   0 -20   11.30   29.00
 -22   0  20  111.29   27.30
  22   0 -20  111.69   42.30
  20   0 -20  147.99   38.00
 -20   0  20  179.28   30.30
 -18   0  20    8.60   15.30
  18   0 -20   22.00   23.50
  16   0 -20  525.65   54.39
 -16   0  20  448.66   38.00
 -16   0  20  423.86   47.00
  16   0 -20  472.75   36.80
 -14   0  20   34.20   16.40
 -14   0  20   42.10   21.90
  14   0 -20   12.50   21.00
 -12   0  20  207.78   36.80
  12   0 -20  136.79   21.50
 -12   0  20  161.18   23.10
  12   0 -20  107.99   28.70
 -10   0  20   15.10   17.20
  10   0 -20   34.30   21.10
 -10   0  20   24.00   13.30
  10   0 -20   20.90   11.60
   8   0 -20  396.16   39.80
  -8   0  20  425.96   31.20
  -8   0  20  323.87   37.60
   8   0 -20  362.76   28.30
   6   0 -20    0.20   14.90
  -6   0  20   22.70   12.70
   6   0 -20    1.30   10.10
  -6   0  20   20.60   16.40
   4   0 -20   70.19   14.40
  -4   0  20   55.29   15.20
   4   0 -20   60.69   20.40
  -4   0  20   70.49   24.10
   2   0 -20  511.35   33.70
   2   0 -20  578.84   42.90
  -2   0  20  508.65   34.70
   0   0 -20  -14.50   16.70
   0   0  20   22.20   14.00
  -2   0 -20  503.95   55.79
   2   0  20  510.65   36.00
  -2   0 -20  543.95   41.10
   4   0  20  113.59   19.60
  -4   0 -20  121.89   23.00
  -4   0 -20  129.09   36.10
  -6   0 -20   68.59   19.90
  -6   0 -20   79.19   31.70
   6   0  20   19.30   15.40
   8   0  20  155.98   24.60
   8   0  20  129.59   25.70
  -8   0 -20  146.09   25.70
  10   0  20   -1.00   15.80
 -10   0 -20   16.10   18.50
  10   0  20   -2.40   17.90
  12   0  20   16.30   19.30
 -12   0 -20    5.70   17.20
  12   0  20   33.10   25.10
 -27  -1  20   39.80   23.90
  27  -1 -20   34.60   38.70
 -27   1  20   13.40   20.60
  27   1 -20   -7.50   26.80
 -25  -1  20  -15.30   14.90
  25  -1 -20   -4.50   29.30
 -25   1  20    3.50   16.00
  25   1 -20   -5.00   25.10
  23  -1 -20   -0.70   25.90
 -23  -1  20   12.80   18.20
 -23   1  20   24.60   19.00
  23   1 -20   13.60   30.50
 -21  -1  20  -17.00   14.20
  21  -1 -20    9.00   25.20
 -21   1  20  -17.90   12.90
  21   1 -20   14.50   24.90
  19  -1 -20   45.30   29.30
 -19  -1  20   38.20   20.40
  19   1 -20   21.00   26.90
 -19   1  20   38.60   17.20
  17  -1 -20  -31.80   14.40
  17  -1 -20    8.50   12.40
 -17  -1  20   39.60   16.10
 -17   1  20   15.30   14.40
  17   1 -20   -0.90   20.50
 -15  -1  20   16.90   14.70
 -15  -1  20   21.90   20.30
  15  -1 -20   12.20   13.10
  15  -1 -20  -25.80   15.50
  15   1 -20   10.40   12.80
 -15   1  20   -4.80   17.80
 -15   1  20   -1.40   12.10
  15   1 -20   21.70   20.40
  13  -1 -20   18.60   22.20
 -13  -1  20   -4.50   11.90
  13  -1 -20    4.90   10.90
  13   1 -20   35.70   23.40
 -13   1  20   10.80   20.60
 -13   1  20   32.30   13.90
  11  -1 -20   48.20   14.40
  11  -1 -20   68.39   26.60
 -11  -1  20   30.60   15.00
 -11  -1  20   18.80   18.10
 -11   1  20   35.20   14.60
  11   1 -20   33.20   13.90
  11   1 -20   16.80   19.50
 -11   1  20   22.20   21.00
   9  -1 -20  105.79   26.60
  -9  -1  20  100.39   19.10
  -9  -1  20   50.69   20.90
   9  -1 -20  100.39   17.00
  -9   1  20  104.19   17.90
   9   1 -20  151.58   31.60
   9   1 -20  148.39   19.70
  -9   1  20  135.79   30.40
   7  -1 -20  174.88   31.10
  -7  -1  20  152.58   22.20
  -7  -1  20  154.08   27.60
   7  -1 -20  122.19   17.30
  -7   1  20  139.09   19.60
  -7   1  20   71.49   24.00
   7   1 -20  121.49   27.10
   7   1 -20  139.59   20.10
  -5  -1  20  -12.40   14.30
  -5  -1  20    8.60   13.00
   5  -1 -20    2.40   16.10
   5  -1 -20   18.70   10.90
  -5   1  20   26.50   18.50
   5   1 -20   37.60   18.30
   5   1 -20   -1.30   10.10
  -5   1  20  -12.40   15.90
  -3  -1  20  -11.30   11.40
   3  -1 -20    5.00   15.90
   3  -1 -20    1.70    9.70
  -3  -1  20   -4.60   15.70
   3   1 -20   -3.60   10.30
   3   1 -20    2.90   15.50
  -3   1  20    7.00   11.60
   1  -1 -20   15.90   18.10
  -1  -1  20   17.40   14.30
   1   1 -20   -3.50   14.10
  -1   1  20   23.80   12.80
   1  -1  20   16.30   14.40
  -1  -1 -20   15.30   18.30
  -1   1 -20   10.30   14.20
   1   1  20   27.70   12.90
   3  -1  20   25.70   15.40
  -3  -1 -20    7.00   29.00
  -3  -1 -20   46.30   20.80
  -3   1 -20   56.89   28.60
   3   1  20   54.69   17.70
  -3   1 -20   52.19   16.00
   5  -1  20   -7.80   14.10
  -5  -1 -20   20.00   32.10
  -5  -1 -20   -0.10   18.40
   5   1  20   -6.80   12.60
  -5   1 -20   -5.40   12.40
  -5   1 -20  -11.40   18.70
   7  -1  20   13.30   16.40
  -7  -1 -20   -0.90   29.90
  -7  -1 -20   16.50   18.20
  -7   1 -20   52.39   19.10
   7   1  20   15.00   15.80
  -7   1 -20   39.10   14.20
   7   1  20   24.10   14.70
  -9  -1 -20   23.50   20.50
   9  -1  20    4.80   18.00
   9  -1  20  -12.50   16.10
  -9  -1 -20   -1.60   26.60
  -9   1 -20    1.90   10.70
   9   1  20  -22.00   11.90
  -9   1 -20   22.30   12.90
   9   1  20    2.50   14.90
  11  -1  20   -9.40   17.70
 -11  -1 -20   20.60   28.60
 -11  -1 -20   -2.00   19.50
  11   1  20   -2.60   19.40
  11   1  20    2.70   17.30
 -26  -2  20    7.80   19.60
  26  -2 -20   -2.00   24.40
  26   2 -20    1.30   30.70
 -26   2  20    0.30   18.00
 -24  -2  20   19.30   19.50
  24  -2 -20   45.30   34.00
  24   2 -20   21.70   29.40
 -24   2  20   21.50   19.90
 -22  -2  20  291.67   36.80
  22  -2 -20  279.77   55.79
 -22   2  20  288.07   36.00
  22   2 -20  351.46   63.89
 -20  -2  20  107.39   26.60
  20  -2 -20  260.07   53.29
 -20   2  20  157.58   28.00
  20   2 -20  117.89   40.10
  18  -2 -20   -0.10   13.10
  18  -2 -20   10.00   26.80
  18   2 -20   42.50   33.30
 -18   2  20   11.90   14.30
  16  -2 -20  518.45   40.10
 -16  -2  20  639.44   46.20
 -16  -2  20  658.73   56.49
  16  -2 -20  590.14   58.79
  16   2 -20  646.04   63.39
 -16   2  20  586.14   43.10
  14  -2 -20   -0.10   20.30
  14  -2 -20   -7.50   11.10
 -14  -2  20  -13.80   17.10
 -14  -2  20   12.60   15.10
  14   2 -20   18.50   12.70
 -14   2  20   24.00   15.20
 -14   2  20   28.00   23.20
  14   2 -20   -2.90   20.00
  12  -2 -20  284.67   26.20
 -12  -2  20  271.17   29.70
 -12  -2  20  271.17   35.70
  12  -2 -20  301.37   46.40
 -12   2  20  287.37   39.10
  12   2 -20  253.07   27.40
  12   2 -20  235.08   37.30
 -12   2  20  318.47   28.40
  10  -2 -20  127.99   18.60
 -10  -2  20  127.49   23.50
 -10  -2  20  178.38   28.70
  10  -2 -20  107.49   27.80
 -10   2  20  173.48   41.50
 -10   2  20  131.09   19.50
  10   2 -20  118.19   20.60
  10   2 -20  133.39   32.20
  -8  -2  20   -6.60   14.10
  -8  -2  20    6.00   12.50
   8  -2 -20   14.20   19.90
   8  -2 -20    2.60    8.90
  -8   2  20    8.20   18.50
   8   2 -20   15.40   18.10
  -8   2  20   12.10   10.80
   8   2 -20   -1.70   11.00
  -6  -2  20  327.77   29.70
  -6  -2  20  269.27   32.60
   6  -2 -20  296.67   23.30
   6  -2 -20  323.17   37.40
   6   2 -20  358.86   28.80
  -6   2  20  227.58   36.10
   6   2 -20  251.67   32.40
  -6   2  20  309.17   24.50
  -4  -2  20   37.00   15.80
  -4  -2  20   -1.50   15.20
   4  -2 -20   12.10   18.60
   4   2 -20   -5.30   10.80
  -4   2  20    1.10   10.40
   4   2 -20   17.80   16.50
  -2  -2  20  751.22   54.89
   2  -2 -20  882.91   59.19
  -2  -2  20  831.52   49.70
  -2   2  20  781.82   41.40
   2   2 -20  803.22   48.20
   2   2 -20  821.62   50.49
   0  -2 -20   54.69   22.30
   0  -2  20   48.00   16.80
   0   2 -20   39.50   16.10
   0   2  20   42.80   12.30
   2  -2  20  437.16   36.10
  -2  -2 -20  461.05   44.60
  -2  -2 -20  262.77   52.09
  -2   2 -20  403.46   40.30
  -2   2 -20  398.56   29.80
   2   2  20  480.45   28.40
   4  -2  20   17.60   16.00
  -4  -2 -20  -10.00   17.50
  -4  -2 -20   20.20   35.20
   4   2  20    0.00   10.50
  -4   2 -20   -2.00   13.00
  -4   2 -20    0.60    9.10
  -6  -2 -20   10.40   32.30
   6  -2  20   35.70   17.50
  -6  -2 -20   14.70   19.40
   6   2  20   43.20   14.10
   6   2  20   45.90   15.40
  -8  -2 -20    8.40   32.20
   8  -2  20   46.20   20.90
  -8  -2 -20  115.49   31.20
   8   2  20   27.00   14.00
   8   2  20   53.79   18.00
 -10  -2 -20   41.10   36.30
 -10  -2 -20   64.09   30.90
  10   2  20   40.90   17.60
  10   2  20   53.79   16.20
 -12  -2 -20   39.70   25.50
 -12  -2 -20   33.80   35.90
  12  -2  20   46.90   24.40
  12   2  20   -7.60   14.20
  12   2  20   28.50   17.10
 -25  -3  20  -23.50   14.00
  25  -3 -20   39.50   32.10
 -25   3  20   21.00   18.60
  25   3 -20    2.60   31.30
 -23  -3  20  -13.30   13.50
  23  -3 -20   -9.40   22.90
  23   3 -20   59.09   37.10
 -23   3  20   -4.40   14.30
  21  -3 -20   48.70   26.60
 -21  -3  20   83.29   23.20
 -21   3  20  100.99   24.80
  21   3 -20   96.19   44.70
  19  -3 -20   -9.00   18.00
 -19  -3  20    1.50   16.30
 -19   3  20    4.60   16.40
  19   3 -20   23.30   27.20
  17  -3 -20   10.90   14.20
  17  -3 -20   20.60   26.90
 -17   3  20   -6.10   12.20
  17   3 -20   -6.00   23.20
 -15  -3  20   38.20   23.80
  15  -3 -20   20.70   23.70
 -15  -3  20   16.90   15.90
  15  -3 -20   12.60   12.60
 -15   3  20   16.70   15.20
  15   3 -20   13.70   29.10
  13  -3 -20   33.90   21.90
 -13  -3  20  -14.30   11.90
  13  -3 -20   -5.50   10.40
 -13  -3  20   -1.90   18.20
  13   3 -20   15.80   19.90
  13   3 -20    1.00   12.00
 -13   3  20   10.70   13.40
 -13   3  20   -3.30   22.10
 -11  -3  20   34.80   19.20
  11  -3 -20  -16.90   15.70
 -11  -3  20    2.20   13.30
  11  -3 -20   25.50   11.60
  11   3 -20   19.20   12.50
 -11   3  20   11.00   12.30
  11   3 -20   29.30   23.00
 -11   3  20   21.30   23.90
  -9  -3  20  -20.40   12.00
   9  -3 -20   17.40   10.70
   9  -3 -20    2.10   16.70
  -9  -3  20    1.10   12.80
  -9   3  20   70.39   26.50
  -9   3  20    8.20   10.30
   9   3 -20    5.30   17.80
   9   3 -20    7.60   12.40
  -7  -3  20   60.49   18.30
   7  -3 -20   62.89   13.10
   7  -3 -20   93.29   26.60
  -7  -3  20   62.99   20.60
   7   3 -20   75.59   22.30
   7   3 -20   51.99   22.20
  -7   3  20   40.10   12.50
  -7   3  20   48.80   24.00
  -5  -3  20   17.20   14.90
  -5  -3  20   13.80   15.30
   5  -3 -20   10.20    9.00
   5  -3 -20   38.10   24.20
   5   3 -20   -4.20   11.00
   5   3 -20   20.80   17.10
  -5   3  20   13.90   10.10
  -3  -3  20   42.20   19.30
  -3  -3  20   -7.60   13.40
   3  -3 -20   13.60   19.40
   3  -3 -20   12.50    8.80
  -3   3  20    5.10    9.40
   3   3 -20   25.70   16.50
   3   3 -20   -8.40   12.20
  -1  -3  20  130.49   23.10
   1  -3 -20  131.69   32.90
  -1   3  20  115.69   14.50
   1   3 -20  102.39   20.40
   1  -3  20   -1.30   14.00
  -1  -3 -20  -24.90   28.60
  -1  -3 -20   24.40   20.80
   1   3  20   -3.40    8.30
  -1   3 -20   11.30   11.80
  -3  -3 -20  125.89   30.40
   3  -3  20  188.28   27.40
  -3  -3 -20   49.40   37.60
   3   3  20  153.08   15.90
   3   3  20  121.19   15.80
   5  -3  20   -6.70   15.20
  -5  -3 -20   -0.60   34.20
  -5  -3 -20   -5.40   22.40
   5   3  20   10.80    9.30
   5   3  20   -3.40    9.50
   7  -3  20   -3.50   17.60
  -7  -3 -20   -7.00   23.70
   7   3  20    7.80   11.10
   7   3  20    5.00   10.30
  -9  -3 -20  -12.90   34.50
  -9  -3 -20   -9.90   24.40
   9  -3  20   17.00   20.30
   9   3  20   18.00   11.70
   9   3  20   22.40   16.50
  11  -3  20    2.50   19.50
 -11  -3 -20   12.10   39.40
 -11  -3 -20   47.20   30.00
  11   3  20    6.00   14.70
  24  -4 -20  -23.60   21.40
 -24  -4  20   11.10   17.60
 -24   4  20   17.00   20.90
  24   4 -20   20.30   37.10
 -22  -4  20  234.78   34.00
  22  -4 -20  252.07   53.89
 -22   4  20  233.18   36.40
  22   4 -20  203.18   53.19
  20  -4 -20   11.40   22.20
 -20  -4  20  -31.00   13.00
 -20   4  20   -9.60   14.10
  20   4 -20   -8.30   26.40
 -18  -4  20    0.40   15.30
  18  -4 -20   -0.60   15.80
  18  -4 -20   16.80   22.40
  18   4 -20  -15.30   24.20
 -18   4  20    8.70   14.10
  16  -4 -20   60.39   28.10
  16  -4 -20  133.79   21.90
 -16  -4  20   80.39   22.80
  16   4 -20  132.79   40.40
 -16   4  20  113.89   22.80
 -14  -4  20   62.49   25.40
  14  -4 -20   89.99   18.60
  14  -4 -20   92.99   32.10
 -14  -4  20   59.39   20.60
  14   4 -20   60.09   30.60
 -14   4  20  139.99   22.90
  12  -4 -20  381.66   29.40
  12  -4 -20  409.86   48.10
 -12  -4  20  304.77   39.70
 -12  -4  20  392.06   36.20
 -12   4  20  406.66   31.60
 -12   4  20  381.26   69.79
  12   4 -20  376.36   35.10
  12   4 -20  404.26   50.39
  10  -4 -20   68.89   25.10
 -10  -4  20   96.09   23.10
  10  -4 -20  109.59   17.70
 -10  -4  20   73.69   25.30
 -10   4  20  112.89   18.60
  10   4 -20  120.59   22.20
 -10   4  20  151.78   37.20
  10   4 -20  111.99   31.30
   8  -4 -20  210.08   37.10
  -8  -4  20  159.28   29.00
   8  -4 -20  188.88   19.20
  -8  -4  20  215.88   30.00
  -8   4  20  197.78   43.10
   8   4 -20  145.29   33.10
   8   4 -20  219.28   27.10
  -8   4  20  192.58   20.30
   6  -4 -20  524.75   29.40
  -6  -4  20  538.55   42.10
  -6  -4  20  547.35   41.10
   6  -4 -20  566.54   51.99
   6   4 -20  478.95   46.30
   6   4 -20  449.66   38.60
  -6   4  20  510.45   30.50
  -4  -4  20   39.30   20.00
   4  -4 -20   54.89   27.60
   4  -4 -20   52.69    9.80
  -4  -4  20   56.29   18.60
   4   4 -20   40.50   17.00
  -4   4  20   39.00    9.50
   4   4 -20   47.70   20.10
  -2  -4  20  240.58   26.90
  -2  -4  20  286.87   30.50
   2  -4 -20  313.37   42.20
   2   4 -20  222.08   30.30
   2   4 -20  269.67   30.50
  -2   4  20  257.17   16.30
   0  -4  20   14.60   16.00
   0  -4 -20    2.20   19.40
   0   4 -20   32.90   14.50
  -2  -4 -20   64.39   37.90
   2  -4  20   73.99   21.40
  -2  -4 -20  153.08   34.30
   4  -4  20   16.10   15.90
  -4  -4 -20  -12.40   19.00
  -4  -4 -20   55.99   41.20
  -6  -4 -20   27.00   25.40
  -6  -4 -20   -7.40   39.80
   6  -4  20  -14.60   15.20
   8  -4  20   -6.20   18.50
  -8  -4 -20   -5.80   40.80
  -8  -4 -20    9.80   26.40
  10  -4  20   51.49   23.60
 -10  -4 -20   86.69   34.10
  10   4  20   61.49   11.00
  10   4  20   60.49   10.90
  23  -5 -20   35.80   30.60
 -23  -5  20   60.89   23.50
 -23   5  20   39.50   22.50
  23   5 -20  -12.70   26.90
  21  -5 -20   32.00   25.80
 -21  -5  20  118.49   27.70
 -21   5  20  106.39   26.20
  21   5 -20  108.39   46.20
  19  -5 -20    6.60   25.70
 -19  -5  20   -4.90   14.80
 -19   5  20  -15.60   13.70
  19   5 -20  -23.60   28.30
  17  -5 -20   16.00   22.50
  17  -5 -20   10.70   12.40
 -17  -5  20   -2.70   16.30
  17   5 -20  -15.90   27.90
 -17   5  20  -10.30   12.00
  15  -5 -20   42.70   14.60
 -15  -5  20   29.10   17.20
  15  -5 -20   33.10   24.30
  15   5 -20   26.30   29.80
 -15   5  20   61.79   17.60
 -13  -5  20  -12.20   16.70
  13  -5 -20   18.50   12.50
  13   5 -20    7.10   23.60
 -13   5  20    5.40   12.20
 -11  -5  20   67.79   21.20
 -11  -5  20   68.99   23.90
  11  -5 -20   77.09   15.40
  11  -5 -20   64.89   27.90
 -11   5  20   44.20   14.40
  11   5 -20   97.39   34.00
   9  -5 -20  132.09   17.00
  -9  -5  20   94.49   23.90
   9  -5 -20   88.09   30.30
  -9  -5  20  121.19   23.80
   9   5 -20  146.69   36.20
  -9   5  20  108.59   16.60
  -7  -5  20   72.19   20.70
   7  -5 -20  -18.10   18.30
  -7  -5  20   30.80   17.70
   7  -5 -20   18.20    9.50
   7   5 -20    4.10   18.90
   7   5 -20   18.90   17.80
  -7   5  20   27.30   10.30
  -5  -5  20   40.80   17.70
   5  -5 -20   -9.90   18.70
  -5  -5  20   22.10   15.60
   5  -5 -20    8.60    7.40
   5   5 -20   13.20   20.60
  -5   5  20   10.30    7.70
   5   5 -20    3.40   16.60
  -3  -5  20   30.60   16.40
   3  -5 -20   32.10   24.10
  -3  -5  20   48.80   18.20
   3   5 -20   31.00   20.20
  -1  -5  20   11.20   12.60
   1  -5 -20   20.30   22.50
  -1  -5  20    0.70   15.40
   1   5 -20   26.30   17.00
   1  -5  20   16.50   16.30
  -1  -5 -20   12.40   23.60
  -1  -5 -20   58.39   40.60
   3  -5  20   18.30   18.30
  -3  -5 -20   14.60   23.80
   5  -5  20   -1.80   17.90
  -5  -5 -20    8.40   25.00
   7  -5  20    6.40   19.40
   9  -5  20  -26.60   18.40
  -9  -5 -20    4.80   27.90
 -22  -6  20  -17.40   15.10
  22  -6 -20   26.30   29.50
  22   6 -20   73.89   47.40
 -22   6  20   16.10   19.90
 -20  -6  20    7.00   17.80
  20  -6 -20    0.00   22.70
 -20   6  20   33.80   20.20
  20   6 -20   33.10   36.90
 -18  -6  20   31.00   19.10
  18  -6 -20   20.40   22.60
 -18   6  20   41.80   18.80
  18   6 -20    9.40   32.00
 -16  -6  20  171.48   28.80
  16  -6 -20  158.78   24.60
  16  -6 -20   98.69   31.60
 -16   6  20  139.69   24.20
  16   6 -20  191.98   53.99
  14  -6 -20  156.08   36.40
 -14  -6  20  135.79   28.90
  14  -6 -20   98.19   19.40
 -14   6  20   87.49   19.20
  14   6 -20   60.99   35.40
 -12  -6  20  134.89   32.80
  12  -6 -20  106.39   18.30
 -12  -6  20   71.59   22.30
  12  -6 -20  164.08   36.90
 -12   6  20  141.99   22.30
  12   6 -20  159.58   44.90
  10  -6 -20   43.80   27.50
 -10  -6  20  109.39   29.40
 -10  -6  20   47.10   20.60
  10  -6 -20  108.69   16.10
  10   6 -20   25.90   30.20
   8  -6 -20  344.17   66.69
   8  -6 -20  325.57   23.20
  -8  -6  20  318.07   36.50
   8   6 -20  310.77   45.30
   6  -6 -20  101.89   12.00
  -6  -6  20   61.39   34.30
   6  -6 -20  101.59   31.90
  -6  -6  20   89.69   22.90
   6   6 -20  173.28   39.90
  -4  -6  20   11.00   15.80
   4  -6 -20   25.20   26.70
   4   6 -20   -1.60   21.40
   2  -6 -20   91.39   31.50
  -2  -6  20  120.89   21.10
  -2  -6  20  133.59   28.40
   2   6 -20   97.29   26.10
   0  -6 -20   40.60   30.90
   0  -6  20   18.70   17.90
   2  -6  20   14.00   18.00
  -2  -6 -20  -31.90   35.40
  -4  -6 -20   11.60   26.10
   4  -6  20   86.19   25.00
   6  -6  20    5.60   19.50
  -6  -6 -20  -20.80   24.30
  -8  -6 -20   52.89   31.90
   8  -6  20   35.60   23.50
 -21  -7  20   40.60   21.10
  21  -7 -20  -27.30   20.20
  21   7 -20  -36.60   29.20
 -19  -7  20  -12.20   14.50
  19  -7 -20   -7.10   21.60
  19   7 -20  -15.50   35.20
  17  -7 -20   33.10   25.10
  17  -7 -20   43.20   20.30
 -17  -7  20    2.80   16.30
  17   7 -20  120.49   47.50
 -15  -7  20   78.19   24.10
  15  -7 -20   84.29   20.50
  15  -7 -20   84.19   30.80
  15   7 -20  131.19   47.50
 -13  -7  20   81.39   24.00
  13  -7 -20   65.79   29.70
  13  -7 -20   44.90   15.10
  13   7 -20   76.59   39.20
 -11  -7  20  299.67   35.40
 -11  -7  20  231.88   38.50
  11  -7 -20  296.67   25.80
  11  -7 -20  263.87   50.39
  11   7 -20  273.07   52.49
   9  -7 -20   29.40   25.90
  -9  -7  20   27.10   18.40
  -9  -7  20  -10.70   17.40
   9   7 -20   64.89   33.50
   7  -7 -20   38.80   26.70
  -7  -7  20    8.40   18.40
  -7  -7  20   -6.00   19.10
   7  -7 -20   11.90    8.00
   7   7 -20   -9.20   24.10
  -5  -7  20    2.20   16.50
   5  -7 -20   -5.40   21.30
  -5  -7  20   17.00   19.00
   5   7 -20   18.20   25.60
   3  -7 -20   -2.60   22.70
  -3  -7  20  -20.50   15.30
  -3  -7  20    7.50   15.80
   3   7 -20   -0.50   21.60
  -1  -7  20  -18.20   14.70
   1  -7 -20   19.00   25.30
  -1  -7  20   40.30   12.80
   1  -7  20   19.50   18.30
  -1  -7 -20   -5.80   25.30
   3  -7  20   12.10   18.40
  -3  -7 -20   15.10   27.20
   5  -7  20   22.70   21.10
  -5  -7 -20  -14.30   27.50
   7  -7  20   26.50   23.20
  -7  -7 -20  -15.90   27.40
 -20  -8  20   -4.70   18.20
  20  -8 -20   17.80   27.90
  20   8 -20   43.70   44.80
  18  -8 -20   24.70   28.10
 -18  -8  20   44.90   21.10
  18   8 -20   64.09   41.50
 -16  -8  20  134.09   29.30
  16  -8 -20  146.19   25.20
  16  -8 -20  115.19   35.60
  16   8 -20  173.98   54.79
  14  -8 -20    3.30   12.80
  14  -8 -20   -3.50   21.10
 -14  -8  20   -2.20   15.00
  14   8 -20  -22.30   28.50
 -12  -8  20   18.90   19.10
  12  -8 -20   56.99   15.50
  12  -8 -20   72.59   34.00
  12   8 -20   69.99   40.90
 -10  -8  20  -14.60   19.30
  10  -8 -20   -5.50   21.80
  10  -8 -20   24.90   11.60
 -10  -8  20   -6.80   14.60
  10   8 -20   41.70   34.40
  -8  -8  20   25.60   23.10
   8  -8 -20   42.80   28.70
  -8  -8  20   57.19   22.10
   8  -8 -20   19.50    9.00
   8   8 -20   24.10   29.00
  -6  -8  20   93.69   26.30
   6  -8 -20   46.20   28.60
  -6  -8  20   96.59   25.30
   6   8 -20   41.70   31.80
  -4  -8  20   24.80   19.40
   4  -8 -20   20.00   24.50
  -4  -8  20  -26.40   15.40
  -2  -8  20   20.90   19.30
   2  -8 -20  -21.70   27.00
  -2  -8  20   39.50   17.10
   0  -8 -20   76.29   35.20
   0  -8  20  -16.80   17.10
  -2  -8 -20   54.39   34.10
   2  -8  20   42.80   22.20
  -4  -8 -20    1.20   25.60
   4  -8  20   -2.50   20.10
  -6  -8 -20  -15.60   28.10
   6  -8  20   19.20   22.50
 -17  -9  20   -3.70   16.90
  17  -9 -20  -22.20   20.20
  17   9 -20   11.00   39.50
  15  -9 -20   38.50   16.70
  15  -9 -20   33.60   28.20
 -15  -9  20   54.49   21.20
  15   9 -20   66.69   42.30
 -13  -9  20  -19.80   15.60
  13  -9 -20   -8.60   21.50
  13  -9 -20  -13.80   12.50
  13   9 -20  -14.80   31.70
  11  -9 -20   71.79   35.50
  11  -9 -20   56.89   15.10
 -11  -9  20   80.59   25.20
  11   9 -20   43.30   39.10
   9  -9 -20    7.70   24.90
   9  -9 -20    1.10   11.20
  -9  -9  20   10.30   20.80
  -9  -9  20    4.20   17.60
   9   9 -20   39.50   39.30
  -7  -9  20   46.00   21.50
  -7  -9  20   43.00   25.50
   7  -9 -20   58.89   33.20
   7   9 -20   46.10   35.50
  -5  -9  20   -8.40   16.70
   5  -9 -20   45.60   31.80
  -5  -9  20   35.80   21.90
   5   9 -20  -13.90   27.50
  -3  -9  20   17.20   18.50
   3  -9 -20   44.40   30.90
  -3  -9  20   -0.20   18.50
  -1  -9  20   52.79   15.70
   1  -9 -20   11.10   29.50
  -1  -9  20   51.39   23.00
  -1  -9 -20   14.70   31.20
   1  -9  20   15.60   20.40
   3  -9  20  -15.30   17.70
  -3  -9 -20   18.80   30.30
 -14 -10  20   -1.70   17.60
  14 -10 -20   -4.10   13.70
  14 -10 -20  -23.30   25.70
  14  10 -20  -24.20   37.40
  12 -10 -20  -15.80   21.80
  12 -10 -20   -3.20   13.30
 -12 -10  20    6.00   16.90
  12  10 -20  -18.90   33.30
  10 -10 -20    7.40   10.50
 -10 -10  20   -7.50   16.00
  10 -10 -20    8.80   27.60
  10  10 -20    9.50   35.50
  -8 -10  20   70.49   29.30
   8 -10 -20    7.50    8.20
  -8 -10  20  -36.60   13.60
   8 -10 -20   23.10   30.40
   8 -10 -20   16.80    8.50
   8  10 -20   11.90   36.10
  -6 -10  20   92.19   26.30
   6 -10 -20   21.00   30.40
  -6 -10  20   99.39   31.00
   6  10 -20  121.09   48.40
  -4 -10  20   -1.10   19.30
   4 -10 -20   -9.80   22.10
  -4 -10  20   15.50   22.20
  -2 -10  20   12.30   21.20
   2 -10 -20   49.60   34.20
 -26   0  21    8.10   17.10
  26   0 -21   -4.40   26.30
  24   0 -21   -6.30   26.70
 -24   0  21  -10.30   15.80
 -22   0  21   -2.30   16.10
  22   0 -21  -11.80   21.90
 -20   0  21   15.90   17.00
  20   0 -21    0.60   21.80
  18   0 -21  -34.30   19.40
 -18   0  21  -13.60   12.30
 -16   0  21  -11.10   11.80
  16   0 -21    0.70   11.50
  16   0 -21    6.20   20.00
  14   0 -21  -22.00   15.20
  14   0 -21  -16.80   10.10
 -14   0  21    0.60   13.00
 -14   0  21  -20.70   15.30
 -12   0  21    1.30   21.00
 -12   0  21   28.00   15.00
  12   0 -21    3.20   16.50
  12   0 -21  -10.00   10.40
 -10   0  21   21.00   20.80
 -10   0  21   25.70   13.90
  10   0 -21  -12.20   18.70
  10   0 -21    3.60   10.20
  -8   0  21    4.00   12.00
   8   0 -21    2.80   11.40
   8   0 -21   -2.00   17.40
  -8   0  21  -16.70   15.70
  -6   0  21    1.80   18.10
   6   0 -21  -17.40   14.00
   6   0 -21   -7.70    9.80
  -6   0  21    1.50   11.20
   4   0 -21  -13.80    9.90
   4   0 -21   27.50   18.80
  -4   0  21   -4.80   11.40
  -4   0  21  -13.80   17.80
  -2   0  21    0.10   12.60
   2   0 -21   -0.60   11.90
   2   0 -21    3.70   16.50
   0   0  21   -4.50   12.90
   0   0 -21   -9.80   14.10
   2   0  21   25.60   15.50
  -2   0 -21   -8.00   17.10
  -2   0 -21   43.10   32.00
   4   0  21   -4.80   13.70
  -4   0 -21   25.90   17.40
  -4   0 -21   15.20   28.20
   6   0  21   -2.80   14.60
  -6   0 -21   -8.20   16.20
  -6   0 -21   34.80   27.60
  -8   0 -21   -1.80   28.90
  -8   0 -21   48.20   21.30
   8   0  21   13.00   16.40
 -10   0 -21   18.90   18.50
  10   0  21   -2.90   15.50
  10   0  21   41.40   20.70
  25  -1 -21   57.79   33.40
 -25  -1  21   51.89   22.10
 -25   1  21  108.89   28.70
  25   1 -21   95.09   44.90
 -23  -1  21   28.60   19.00
  23  -1 -21   55.79   31.90
  23   1 -21   49.10   33.00
 -23   1  21   37.40   21.10
  21  -1 -21   -9.60   19.10
 -21  -1  21   -6.20   13.60
 -21   1  21    0.90   14.30
  21   1 -21  -25.20   21.30
  19  -1 -21   87.39   34.60
 -19  -1  21   61.39   20.60
 -19   1  21  115.09   31.70
  19   1 -21  153.08   42.50
  17  -1 -21    3.70   21.10
 -17  -1  21   60.29   20.60
  17  -1 -21    9.40   13.60
 -17   1  21   15.60   14.40
  17   1 -21   85.99   32.70
  15  -1 -21  116.29   22.00
 -15  -1  21  175.08   27.70
  15  -1 -21  129.79   34.80
 -15  -1  21  155.38   34.50
  15   1 -21  144.79   24.50
  15   1 -21  119.49   35.40
 -15   1  21  175.48   26.10
 -15   1  21  139.79   35.80
  13  -1 -21  391.36   33.10
 -13  -1  21  519.65   38.20
 -13  -1  21  394.56   44.30
  13  -1 -21  548.95   52.69
 -13   1  21  492.55   36.80
  13   1 -21  370.16   47.30
  13   1 -21  396.26   34.30
 -13   1  21  432.56   47.30
  11  -1 -21  570.44   51.99
 -11  -1  21  484.35   46.30
 -11  -1  21  542.55   39.60
  11  -1 -21  508.15   36.40
  11   1 -21  616.64   53.69
  11   1 -21  542.45   38.10
 -11   1  21  490.65   58.89
 -11   1  21  582.34   39.00
  -9  -1  21  497.55   36.20
  -9  -1  21  467.85   44.00
   9  -1 -21  441.06   31.90
   9  -1 -21  477.05   45.70
  -9   1  21  428.26   45.90
   9   1 -21  411.46   32.70
   9   1 -21  475.05   45.50
  -9   1  21  433.26   33.40
   7  -1 -21   17.30   18.60
   7  -1 -21   16.70   10.60
  -7  -1  21   30.20   18.80
  -7  -1  21    6.20   13.20
   7   1 -21   30.50   19.30
  -7   1  21   17.60   13.10
   7   1 -21   32.60   14.50
  -7   1  21    9.70   19.60
   5  -1 -21  175.78   20.50
  -5  -1  21  142.89   22.10
   5  -1 -21  187.78   30.80
  -5  -1  21  192.98   31.60
  -5   1  21  142.29   29.40
   5   1 -21  179.08   30.30
  -5   1  21  210.78   22.50
   5   1 -21  183.68   22.70
   3  -1 -21  224.58   33.50
  -3  -1  21  248.78   27.50
   3  -1 -21  227.08   23.20
  -3  -1  21  324.97   34.90
   3   1 -21  226.28   25.60
   3   1 -21  234.88   35.20
  -3   1  21  211.78   27.80
  -1  -1  21   36.90   16.60
   1  -1 -21   42.40   22.00
   1   1 -21   46.80   18.20
  -1  -1 -21  795.02   55.39
   1  -1  21  793.42   47.10
   1   1  21  703.93   44.80
  -1   1 -21  736.23   47.50
  -3  -1 -21   11.90   19.50
   3  -1  21   47.10   16.90
  -3  -1 -21   37.90   32.40
   3   1  21   32.40   14.00
  -3   1 -21   35.50   26.00
  -3   1 -21   54.79   17.00
  -5  -1 -21   86.39   25.00
   5  -1  21   74.79   19.70
  -5  -1 -21   84.69   36.90
  -5   1 -21   77.19   17.40
  -5   1 -21   59.69   23.00
   5   1  21   87.29   18.20
  -7  -1 -21  107.89   27.40
  -7  -1 -21   87.89   36.30
   7  -1  21  109.99   22.20
   7   1  21  103.59   21.30
  -7   1 -21  130.69   20.20
  -7   1 -21   69.19   19.90
   7   1  21  174.38   24.10
   9  -1  21  -22.90   17.30
  -9  -1 -21    5.30   22.40
   9  -1  21   -6.20   16.60
  -9  -1 -21   11.40   31.20
   9   1  21   42.10   18.70
   9   1  21    1.50   15.00
 -11  -1 -21   11.60   28.40
 -11  -1 -21   55.39   25.70
  11  -1  21   31.80   26.80
  11   1  21   32.50   18.80
  11   1  21   24.50   22.90
  26  -2 -21   87.09   39.40
 -26  -2  21   17.70   20.00
 -26   2  21   12.20   17.30
  26   2 -21  -24.70   25.20
 -24  -2  21   10.10   17.50
  24  -2 -21   20.90   32.40
 -24   2  21    3.70   18.30
  24   2 -21   25.20   30.10
  22  -2 -21   47.90   34.10
 -22  -2  21   -8.50   13.20
  22   2 -21   -1.30   23.70
 -22   2  21    3.20   16.50
  20  -2 -21   28.50   27.80
 -20  -2  21  -14.10   14.50
 -20   2  21    2.70   14.30
  20   2 -21    9.00   25.30
 -18  -2  21    3.80   16.20
  18  -2 -21    4.60   19.30
  18   2 -21   20.10   25.40
 -18   2  21   14.50   15.00
  16  -2 -21   19.90   13.10
 -16  -2  21  -35.00    9.90
  16  -2 -21   -4.40   19.30
  16   2 -21  -39.20   17.90
 -16   2  21  -23.10   10.50
  14  -2 -21  100.29   19.80
 -14  -2  21  117.99   31.20
 -14  -2  21  149.49   25.60
  14  -2 -21  134.79   32.80
  14   2 -21  141.59   36.80
  14   2 -21  115.69   21.90
 -14   2  21  132.09   22.30
 -14   2  21   90.49   30.40
  12  -2 -21   17.30   12.70
 -12  -2  21   14.00   18.90
 -12  -2  21   37.40   17.10
  12  -2 -21   32.60   20.30
 -12   2  21   13.60   20.40
  12   2 -21   28.00   22.50
 -12   2  21   52.49   16.70
  12   2 -21   -9.20   11.80
 -10  -2  21  130.09   29.00
  10  -2 -21  124.59   19.50
 -10  -2  21  153.08   24.30
  10  -2 -21   99.89   30.20
 -10   2  21  140.49   21.80
  10   2 -21  145.59   34.90
 -10   2  21  155.98   33.90
   8  -2 -21   10.40   18.50
  -8  -2  21    3.20   14.90
   8  -2 -21    8.60   10.50
  -8  -2  21   30.20   15.90
  -8   2  21    4.30   12.00
   8   2 -21   12.10   13.10
  -8   2  21   19.60   23.90
   8   2 -21   -6.40   15.80
  -6  -2  21    6.00   17.00
  -6  -2  21   30.20   16.80
   6  -2 -21   19.00   11.40
   6  -2 -21   66.49   25.60
   6   2 -21   27.70   13.20
  -6   2  21   26.80   23.20
   6   2 -21   10.70   17.50
  -6   2  21   14.50   12.20
   4  -2 -21  129.09   29.20
   4  -2 -21  100.39   15.70
  -4  -2  21  102.39   24.50
  -4  -2  21   89.29   20.90
   4   2 -21   67.69   17.90
  -4   2  21  100.39   16.10
  -2  -2  21    2.80   14.50
   2  -2 -21    3.80   20.90
  -2  -2  21   -6.00   17.10
  -2   2  21   -8.70    9.70
   2   2 -21   18.20   14.10
   2   2 -21    8.60   14.80
   0  -2  21   15.50   15.30
   0  -2 -21   -5.60   20.10
   0   2 -21   14.60   15.40
   0   2  21    5.50   10.30
  -2  -2 -21  107.69   28.90
  -2  -2 -21   34.50   33.40
   2  -2  21   72.89   19.10
  -2   2 -21   70.79   16.20
   2   2  21   79.09   14.90
  -2   2 -21   63.19   24.20
  -4  -2 -21   23.80   33.90
   4  -2  21   44.50   18.30
  -4  -2 -21   35.40   23.50
   4   2  21   -1.00   11.00
  -4   2 -21   13.00   13.80
  -4   2 -21   18.80   10.20
   6  -2  21   29.40   18.30
  -6  -2 -21   77.09   28.80
  -6  -2 -21   87.69   41.50
   6   2  21   86.19   17.50
   8  -2  21    6.10   17.80
  -8  -2 -21   23.60   36.90
  -8  -2 -21   -0.10   20.10
   8   2  21   -2.40   12.90
   8   2  21    0.20   13.50
 -10  -2 -21   40.70   28.60
  10  -2  21   33.70   22.10
 -10  -2 -21   28.50   35.00
  10   2  21   60.09   17.30
  10   2  21   31.10   16.60
  25  -3 -21  209.88   54.09
 -25  -3  21  312.17   41.20
  25   3 -21  218.58   60.39
 -25   3  21  229.98   38.40
 -23  -3  21   24.30   19.10
  23  -3 -21   13.20   27.30
  23   3 -21   81.99   44.00
 -23   3  21   34.80   20.50
  21  -3 -21   53.39   30.70
 -21  -3  21   44.40   22.70
  21   3 -21   13.20   25.70
 -21   3  21   79.49   24.90
 -19  -3  21  371.56   38.40
  19  -3 -21  343.37   49.60
 -19   3  21  335.37   36.10
  19   3 -21  483.25   61.69
  17  -3 -21   10.30   22.50
 -17  -3  21   35.60   16.90
  17  -3 -21   27.70   14.60
  17   3 -21   19.20   25.40
 -17   3  21   50.39   18.00
 -15  -3  21  153.18   26.90
 -15  -3  21  168.88   36.40
  15  -3 -21  149.99   38.10
 -15   3  21  124.59   23.00
  15   3 -21  124.19   35.60
  13  -3 -21    3.00   10.60
 -13  -3  21  -20.80   14.40
 -13  -3  21   21.10   15.60
  13  -3 -21   17.80   20.50
  13   3 -21   -3.00   11.20
 -13   3  21   -4.60   12.30
  13   3 -21    6.20   21.60
 -11  -3  21   39.30   20.80
  11  -3 -21   60.59   14.40
 -11  -3  21   18.60   16.30
  11  -3 -21   10.20   19.40
 -11   3  21   17.80   14.10
 -11   3  21   70.09   29.60
  11   3 -21   43.20   24.50
  11   3 -21   42.60   17.20
  -9  -3  21  260.47   33.20
  -9  -3  21  307.17   32.00
   9  -3 -21  251.47   37.90
   9  -3 -21  206.38   22.10
   9   3 -21  229.58   36.60
   9   3 -21  246.38   28.20
  -9   3  21  222.48   23.90
  -9   3  21  290.37   46.50
  -7  -3  21  157.78   28.50
   7  -3 -21   72.89   27.80
   7  -3 -21   83.49   14.10
  -7  -3  21  108.19   22.90
   7   3 -21   95.99   25.80
  -7   3  21  106.99   32.10
   7   3 -21  109.49   21.00
  -7   3  21  112.99   16.50
  -5  -3  21    3.00   17.10
   5  -3 -21  -21.80   15.60
   5  -3 -21    6.70    9.60
  -5  -3  21    4.70   14.10
   5   3 -21    4.20   14.20
  -5   3  21    9.30   10.80
   3  -3 -21  213.38   37.00
  -3  -3  21  130.49   24.20
  -3   3  21  173.18   17.50
   3   3 -21  163.18   25.40
   3   3 -21  141.49   26.00
  -1  -3  21   75.49   19.90
   1  -3 -21   49.20   26.70
  -1   3  21   57.39   11.80
   1   3 -21   19.90   14.70
  -1  -3 -21  211.18   52.19
  -1  -3 -21  318.37   42.80
   1  -3  21  297.27   32.40
  -1   3 -21  256.67   25.00
   1   3  21  358.76   22.00
   3  -3  21    5.10   15.70
  -3  -3 -21   13.30   21.40
  -3  -3 -21    6.30   33.90
   3   3  21    4.90    9.20
   3   3  21   25.70   10.10
  -5  -3 -21   28.40   24.80
   5  -3  21   45.10   20.50
   5   3  21   47.90   11.70
   5   3  21   45.70   12.50
  -7  -3 -21    9.40   35.30
   7  -3  21   -1.40   19.40
  -7  -3 -21  -13.10   20.10
   7   3  21    7.70   11.10
   7   3  21    0.50   11.30
   9  -3  21   -8.60   18.20
  -9  -3 -21   12.70   38.00
  -9  -3 -21   -1.30   24.60
   9   3  21   26.70   17.60
   9   3  21   -0.20   11.10
 -24  -4  21   11.20   19.20
  24  -4 -21   60.19   33.20
 -24   4  21   33.40   21.40
  24   4 -21  112.29   45.60
  22  -4 -21   26.60   29.40
 -22  -4  21    2.40   15.90
 -22   4  21   14.50   19.10
  22   4 -21  -12.20   25.90
 -20  -4  21   27.90   17.80
  20  -4 -21    4.20   23.10
  20   4 -21  -16.00   23.60
 -20   4  21   30.80   16.40
  18  -4 -21   72.19   30.40
 -18  -4  21    3.50   17.00
  18   4 -21   48.10   31.90
 -18   4  21   22.60   17.10
 -16  -4  21   79.39   21.70
  16  -4 -21  106.49   21.00
  16  -4 -21  111.49   37.00
  16   4 -21   80.49   33.50
 -16   4  21  114.19   24.40
 -14  -4  21  156.38   33.00
 -14  -4  21  230.18   35.90
  14  -4 -21  163.68   23.30
 -14   4  21  226.28   26.80
  14   4 -21  238.38   47.70
  12  -4 -21   -5.40    9.30
 -12  -4  21    4.70   13.60
  12  -4 -21   40.90   24.00
  12   4 -21   -9.90   17.60
 -12   4  21   14.30   13.50
 -10  -4  21   60.69   23.80
  10  -4 -21   50.99   28.10
 -10  -4  21   55.39   20.30
  10  -4 -21   38.40   11.70
 -10   4  21   44.30   28.90
  10   4 -21   80.69   20.30
 -10   4  21   22.10   13.20
  10   4 -21   32.90   24.90
  -8  -4  21   93.19   24.10
  -8  -4  21   84.79   21.80
   8  -4 -21   95.79   15.50
   8  -4 -21   51.09   24.70
  -8   4  21   79.29   15.10
   8   4 -21  100.59   28.70
  -8   4  21   60.09   30.60
   8   4 -21   81.19   19.70
  -6  -4  21  101.09   22.40
   6  -4 -21   76.19   12.80
  -6  -4  21   57.69   19.80
   6  -4 -21  115.09   33.10
   6   4 -21   53.69   18.60
  -6   4  21   69.89   13.20
   6   4 -21  107.29   27.40
  -4  -4  21   -3.50   16.50
   4  -4 -21   -4.00   19.70
  -4  -4  21    0.20   16.20
   4  -4 -21   13.10    8.30
   4   4 -21    5.90   12.80
   4   4 -21  -19.00   15.50
  -4   4  21    9.50    8.40
   2  -4 -21    8.00   22.60
  -2  -4  21   -8.20   13.40
  -2  -4  21   30.40   16.70
   2   4 -21   -6.10   16.40
   2   4 -21   11.00   16.20
  -2   4  21    0.10    6.70
   0  -4  21   53.49   19.30
   0  -4 -21   88.29   29.60
   0   4 -21   72.19   17.10
   2  -4  21   44.20   19.50
  -2  -4 -21   30.70   38.60
  -2  -4 -21   66.19   29.20
  -4  -4 -21  -15.90   34.30
  -4  -4 -21   72.09   29.20
  -6  -4 -21   21.40   42.10
   6  -4  21   42.70   21.50
  -6  -4 -21   96.39   34.50
  -8  -4 -21    9.20   27.20
   8  -4  21    1.20   20.50
  10  -4  21   -2.90   20.40
 -10  -4 -21   43.10   30.20
  23  -5 -21  265.77   53.99
 -23  -5  21  413.66   43.70
  23   5 -21  266.37   66.69
 -23   5  21  326.57   41.00
  21  -5 -21  101.19   38.50
 -21  -5  21   63.09   22.50
 -21   5  21   89.29   25.00
  21   5 -21  121.49   50.09
  19  -5 -21  191.98   40.70
 -19  -5  21  253.47   34.80
 -19   5  21  194.78   49.00
  19   5 -21  195.38   56.09
  17  -5 -21    9.50   21.20
 -17  -5  21   29.80   18.70
  17  -5 -21   61.89   17.90
  17   5 -21  131.19   43.10
 -17   5  21    3.70   14.40
  15  -5 -21   66.19   21.00
  15  -5 -21   66.09   31.10
 -15  -5  21   75.99   20.80
  15   5 -21   94.59   37.70
 -15   5  21   61.79   17.80
 -13  -5  21  208.78   33.70
  13  -5 -21  213.08   41.20
 -13  -5  21  254.97   42.90
  13  -5 -21  227.58   24.30
 -13   5  21  284.57   27.30
  13   5 -21  258.47   50.99
 -11  -5  21    7.20   18.90
 -11  -5  21   22.00   30.90
  11  -5 -21   17.90   12.10
  11  -5 -21   51.59   44.40
  11   5 -21   40.30   27.00
 -11   5  21   25.60   14.00
   9  -5 -21  119.49   17.20
  -9  -5  21  136.69   25.20
   9  -5 -21  149.99   36.50
  -9  -5  21  101.19   27.40
   9   5 -21  125.89   35.80
  -9   5  21  123.89   18.00
   7  -5 -21   32.00   25.60
   7  -5 -21   84.59   12.90
  -7  -5  21   49.20   22.00
  -7  -5  21   82.69   21.40
  -7   5  21   85.39   13.70
   7   5 -21  110.99   32.20
   5  -5 -21  221.08   16.30
  -5  -5  21  242.08   32.10
  -5  -5  21  239.68   30.90
   5  -5 -21  148.79   35.70
  -5   5  21  213.38   16.60
   5   5 -21  220.58   45.20
   3  -5 -21  291.17   47.90
  -3  -5  21  259.37   32.50
  -3  -5  21  223.18   29.00
   3   5 -21  298.77   36.10
   1  -5 -21   29.40   27.70
  -1  -5  21   35.90   19.60
   1   5 -21   45.40   18.00
  -1  -5 -21  133.49   34.50
   1  -5  21  181.08   30.20
  -3  -5 -21   15.10   26.90
   3  -5  21   38.70   20.30
   5  -5  21   37.00   21.90
  -5  -5 -21   31.20   36.70
  -7  -5 -21   44.90   31.40
   7  -5  21   51.19   23.00
   9  -5  21   21.80   21.20
  -9  -5 -21   -0.60   29.30
 -22  -6  21  -20.20   14.30
  22  -6 -21    4.40   27.30
 -22   6  21    3.60   18.20
  22   6 -21   18.90   36.60
  20  -6 -21   95.49   35.40
 -20  -6  21   66.39   23.60
  20   6 -21   90.69   44.50
 -20   6  21  123.19   26.80
  18  -6 -21   91.99   32.10
 -18  -6  21   69.49   22.90
  18   6 -21    9.00   34.60
 -18   6  21   75.19   22.10
 -16  -6  21   -3.50   14.90
  16  -6 -21   -6.60   11.70
  16  -6 -21   21.40   24.00
 -16   6  21   -5.60   14.20
  16   6 -21    6.30   30.20
 -14  -6  21   14.20   17.30
  14  -6 -21   10.30   24.00
  14  -6 -21  -11.70   10.10
  14   6 -21   50.79   32.80
 -14   6  21   11.60   13.90
 -12  -6  21   -4.30   18.30
  12  -6 -21   -3.10   10.20
 -12  -6  21    0.00   15.80
  12  -6 -21   -6.20   19.10
  12   6 -21  -13.50   22.50
 -12   6  21    2.10   12.30
 -10  -6  21   -9.60   16.10
  10  -6 -21   24.00   11.30
  10  -6 -21  -33.00   20.10
 -10  -6  21   29.60   17.40
  10   6 -21   41.50   27.60
   8  -6 -21   68.89   30.20
  -8  -6  21   89.19   23.40
   8  -6 -21   57.49   11.70
  -8  -6  21   45.20   22.00
   8   6 -21   47.30   27.20
  -6  -6  21   30.60   19.80
  -6  -6  21   13.50   17.70
   6  -6 -21    4.70    6.90
   6  -6 -21  -26.70   24.70
   6   6 -21   21.00   25.00
   4  -6 -21  336.37   77.09
  -4  -6  21  237.48   29.90
  -4  -6  21  253.97   34.60
   4   6 -21  229.88   39.60
   2  -6 -21   -5.00   25.00
  -2  -6  21   22.80   15.20
  -2  -6  21   -2.40   15.90
   2   6 -21    5.10   19.20
   0  -6  21  109.19   25.30
   0  -6 -21  109.99   34.20
   2  -6  21   39.60   21.80
  -2  -6 -21   30.60   30.70
   4  -6  21   61.29   22.60
  -4  -6 -21   39.20   31.10
   6  -6  21   15.10   20.60
  -6  -6 -21  -13.40   26.90
   8  -6  21  -12.00   20.20
  -8  -6 -21  -25.10   26.60
  21  -7 -21   19.50   30.20
 -21  -7  21  -16.30   16.90
  21   7 -21   11.20   38.60
  19  -7 -21   29.50   25.80
 -19  -7  21   19.90   17.80
  19   7 -21   16.70   36.90
 -17  -7  21  -26.70   14.40
  17  -7 -21   13.40   17.40
  17  -7 -21   -7.60   18.20
  17   7 -21    4.00   32.50
  15  -7 -21   55.69   19.10
  15  -7 -21   24.50   26.90
 -15  -7  21   43.90   22.40
  15   7 -21   36.50   36.20
  13  -7 -21   48.10   27.10
 -13  -7  21   93.29   24.50
  13  -7 -21   65.49   16.50
  13   7 -21   79.89   36.70
 -11  -7  21   -9.20   17.80
 -11  -7  21    0.40   15.70
  11  -7 -21   10.40   10.70
  11  -7 -21    6.50   26.40
  11   7 -21   13.60   25.60
   9  -7 -21  125.89   19.50
   9  -7 -21  103.89   36.10
  -9  -7  21  136.59   31.70
  -9  -7  21  121.99   25.40
   9   7 -21  116.49   38.00
  -7  -7  21    3.90   17.50
   7  -7 -21   37.20   26.50
  -7  -7  21   11.90   17.80
   7  -7 -21    3.10    7.20
   7   7 -21   -1.10   26.40
  -5  -7  21   19.20   17.70
  -5  -7  21    1.00   15.30
   5  -7 -21  -15.90   21.20
   5   7 -21   14.00   26.10
   3  -7 -21   39.20   26.10
  -3  -7  21   42.90   20.50
  -3  -7  21   48.40   17.10
   3   7 -21  -10.40   23.00
  -1  -7  21    4.80   16.80
   1  -7 -21   15.70   24.20
   1  -7  21    1.10   18.10
  -1  -7 -21   56.99   31.70
  -3  -7 -21    0.00   25.70
   3  -7  21   34.50   22.00
  -5  -7 -21   32.70   30.40
   5  -7  21    0.50   19.30
  18  -8 -21   12.40   24.10
 -18  -8  21    5.70   18.10
  18   8 -21    6.70   33.30
  16  -8 -21   18.80   15.70
  16  -8 -21   42.10   28.20
 -16  -8  21   16.70   16.90
  16   8 -21    2.40   37.60
  14  -8 -21   -2.30   24.10
  14  -8 -21   20.40   14.60
 -14  -8  21  -12.00   14.50
  14   8 -21    8.10   34.80
 -12  -8  21   13.30   18.70
  12  -8 -21    8.00   11.70
  12  -8 -21   14.60   24.80
  12   8 -21   -7.00   32.30
  10  -8 -21   69.59   32.60
 -10  -8  21   24.20   22.60
  10  -8 -21   24.20   12.20
 -10  -8  21   36.10   21.90
  10   8 -21   53.29   36.50
   8  -8 -21   68.49   35.50
  -8  -8  21   58.59   26.00
  -8  -8  21   88.09   25.20
   8  -8 -21   53.49   10.30
   8   8 -21   89.09   37.30
   6  -8 -21   43.70   31.70
  -6  -8  21   53.89   22.70
  -6  -8  21   85.49   25.90
   6   8 -21   85.89   35.30
  -4  -8  21   80.19   22.90
   4  -8 -21   65.49   31.50
  -4  -8  21   74.39   24.70
   4   8 -21   67.59   41.50
  -2  -8  21  -10.20   17.90
   2  -8 -21   43.70   29.10
  -2  -8  21   10.30   15.10
   0  -8  21   49.00   21.50
   0  -8 -21   42.70   32.50
   2  -8  21   17.70   21.70
  -2  -8 -21   -7.30   27.50
   4  -8  21   11.30   21.20
  -4  -8 -21  -29.50   24.80
  17  -9 -21   57.79   37.30
 -17  -9  21   48.40   24.10
  15  -9 -21   16.20   16.20
  15  -9 -21   23.40   26.30
 -15  -9  21   63.99   25.00
  15   9 -21   16.10   37.80
  13  -9 -21   45.20   16.20
  13  -9 -21   86.29   35.30
 -13  -9  21   75.59   23.60
  13   9 -21    2.80   31.40
 -11  -9  21   -6.90   15.60
  11  -9 -21    7.80   24.80
  11  -9 -21    6.90   11.80
  11   9 -21   42.70   37.70
  -9  -9  21   85.69   26.10
   9  -9 -21   74.19   13.30
   9  -9 -21   68.59   35.80
  -9  -9  21  106.09   32.20
   9   9 -21   98.99   42.70
   7  -9 -21   19.70   25.40
  -7  -9  21   43.80   22.80
  -7  -9  21   38.10   23.70
   7   9 -21    4.30   31.50
  -5  -9  21   -7.30   17.60
   5  -9 -21   -5.60   25.60
  -5  -9  21   15.00   19.50
   5   9 -21   34.80   29.70
   3  -9 -21   -3.20   24.50
  -3  -9  21   15.20   19.50
  -3  -9  21  -19.30   15.30
  -1  -9  21  -17.00   17.00
   1  -9 -21   -1.20   27.90
  -1  -9 -21    5.60   29.30
   1  -9  21   -9.90   18.20
 -12 -10  21    6.70   19.20
  12 -10 -21   20.90   14.00
  12 -10 -21    4.90   28.10
  12  10 -21   99.99   48.70
  10 -10 -21   10.70   29.50
  10 -10 -21   69.19   14.80
 -10 -10  21   87.79   25.20
  10  10 -21   61.49   40.50
  -8 -10  21   66.09   30.40
   8 -10 -21  -22.40   21.30
  -8 -10  21   19.30   22.90
   8  10 -21  -14.20   33.40
   6 -10 -21   55.49   35.60
  -6 -10  21   16.20   24.30
  -6 -10  21   18.80   21.00
   6  10 -21   75.19   41.20
  -4 -10  21   26.30   22.40
  -4 -10  21   12.00   19.20
   4 -10 -21   15.40   30.80
 -26   0  22   37.50   22.30
  26   0 -22  106.19   43.10
 -24   0  22  104.29   27.60
  24   0 -22  131.09   44.80
  22   0 -22   76.99   35.70
 -22   0  22  170.08   31.60
 -20   0  22   22.10   17.90
  20   0 -22    8.80   22.60
 -18   0  22  346.67   39.80
  18   0 -22  337.07   59.49
  16   0 -22  723.53   49.10
  16   0 -22  774.62   68.59
 -16   0  22  846.42   53.39
 -14   0  22   -8.90   12.00
 -14   0  22    0.10   21.20
  14   0 -22   22.50   15.30
  14   0 -22   10.80   19.90
 -12   0  22  253.57   28.70
  12   0 -22  299.67   41.40
  12   0 -22  339.17   30.20
 -12   0  22  249.68   38.70
 -10   0  22  371.16   42.70
 -10   0  22  405.46   33.70
  10   0 -22  421.66   32.70
  10   0 -22  360.86   44.10
   8   0 -22  733.33   45.10
  -8   0  22  812.62   47.70
  -8   0  22  754.42   58.79
   8   0 -22  700.43   57.19
  -6   0  22  203.78   24.30
   6   0 -22  166.48   31.50
  -6   0  22  177.28   34.00
   6   0 -22  144.39   21.70
  -4   0  22  101.99   27.20
   4   0 -22   83.59   17.40
  -4   0  22  162.78   22.90
   4   0 -22   82.49   23.80
  -2   0  22  123.79   21.00
   2   0 -22  190.78   30.60
   0   0  22   92.69   18.40
   0   0 -22   49.30   20.60
  -2   0 -22  158.38   34.00
  -2   0 -22  155.08   42.00
   2   0  22  185.28   25.50
   4   0  22   73.39   20.30
  -4   0 -22   56.49   33.10
  -4   0 -22  112.69   24.70
  -6   0 -22  -23.70   15.60
  -6   0 -22  -31.40   24.50
   6   0  22   12.00   16.50
  -8   0 -22   27.10   31.30
   8   0  22   71.29   23.20
  -8   0 -22   49.99   20.00
   8   0  22   17.60   18.70
  10   0  22   45.40   22.30
 -10   0 -22   37.00   18.30
  10   0  22   55.39   21.40
  25  -1 -22   40.70   32.20
 -25  -1  22   60.79   24.40
 -25   1  22   56.79   22.80
  25   1 -22   71.59   41.30
 -23  -1  22  211.08   36.70
  23  -1 -22  234.58   53.59
 -23   1  22  159.48   31.70
  23   1 -22  150.48   49.50
  21  -1 -22   10.10   23.70
 -21  -1  22   63.89   22.00
 -21   1  22   66.39   22.50
  21   1 -22    1.30   21.00
 -19  -1  22    4.10   15.40
  19  -1 -22    5.70   23.50
  19   1 -22   14.20   25.90
 -19   1  22    1.90   17.80
 -17  -1  22   16.10   15.80
  17  -1 -22  -29.20   17.40
  17  -1 -22    0.00   22.40
 -17   1  22  -11.20   14.10
  17   1 -22  -12.50   20.40
  15  -1 -22   -5.10   21.00
 -15  -1  22   28.10   21.80
  15  -1 -22  -15.90   10.60
 -15  -1  22   10.20   15.30
 -15   1  22   21.00   14.70
  15   1 -22   -8.90   20.40
  15   1 -22  -14.50   10.90
  13  -1 -22   60.69   26.40
 -13  -1  22   81.79   20.10
  13  -1 -22  122.29   21.70
 -13  -1  22  162.88   33.40
 -13   1  22   72.39   19.00
  13   1 -22  153.58   25.20
 -13   1  22   78.09   30.40
  13   1 -22   73.79   28.40
  11  -1 -22  -10.10   17.40
 -11  -1  22   11.20   18.90
 -11  -1  22   24.50   13.80
  11  -1 -22  -11.90    9.50
 -11   1  22   -4.30   12.40
 -11   1  22   20.40   19.60
  11   1 -22  -18.10   19.00
   9  -1 -22   -5.80   17.00
  -9  -1  22   -4.80   18.60
  -9  -1  22   12.30   13.70
   9  -1 -22   11.50   11.30
   9   1 -22   12.40   12.60
   9   1 -22   18.20   21.90
  -9   1  22    3.80   20.80
  -9   1  22  -10.50   12.70
  -7  -1  22   76.59   19.00
   7  -1 -22   77.99   25.70
  -7  -1  22   66.69   22.90
   7  -1 -22   82.79   16.30
  -7   1  22   51.49   16.30
  -7   1  22   56.79   28.10
   7   1 -22   64.09   17.60
   7   1 -22    6.70   19.30
  -5  -1  22   49.50   21.30
   5  -1 -22   -4.20   17.60
  -5  -1  22   11.70   12.80
   5  -1 -22   16.30   11.60
   5   1 -22    7.00   12.40
  -5   1  22   26.30   13.00
  -5   1  22  -22.30   18.90
   5   1 -22   46.30   20.20
   3  -1 -22   34.50   12.50
   3  -1 -22   -8.20   16.80
  -3  -1  22   45.20   17.00
  -3  -1  22   42.00   20.90
   3   1 -22    5.90   16.10
   3   1 -22   32.00   14.50
  -3   1  22   43.60   14.00
   1  -1 -22   30.90   20.20
  -1  -1  22    0.20   13.00
  -1   1  22   -6.00   12.70
   1   1 -22   -0.50   17.40
  -1  -1 -22    7.50   18.70
   1  -1  22   11.50   15.00
   1   1  22   34.00   14.70
  -1   1 -22   17.90   15.20
  -3  -1 -22    3.40   19.80
  -3  -1 -22    0.40   32.60
   3  -1  22   28.50   16.10
  -3   1 -22  -12.10   24.00
   3   1  22   17.10   14.40
  -3   1 -22   21.80   17.00
   5  -1  22   27.00   17.40
  -5  -1 -22   17.50   20.90
  -5  -1 -22   -4.30   32.70
   5   1  22   -6.20   13.60
  -5   1 -22    2.70   22.80
  -5   1 -22   41.40   16.00
  -7  -1 -22   27.20   33.30
  -7  -1 -22   26.40   22.10
   7  -1  22  -18.10   15.40
   7   1  22    0.80   15.10
   7   1  22   21.40   16.80
  -7   1 -22   12.80   12.10
  -7   1 -22   14.50   16.00
  -9  -1 -22   16.50   23.00
   9  -1  22   15.30   20.00
  -9  -1 -22   25.80   31.60
   9   1  22    5.20   15.90
   9   1  22   14.10   17.20
  -9   1 -22    2.20    2.60
 -26  -2  22   12.40   19.20
  26  -2 -22  -24.90   27.30
  26   2 -22   30.60   34.40
 -26   2  22   14.00   18.50
 -24  -2  22    3.00   16.90
  24  -2 -22  -20.20   23.40
 -24   2  22  -18.20   14.80
  24   2 -22   19.10   29.90
  22  -2 -22  405.26   57.69
 -22  -2  22  341.27   39.70
 -22   2  22  355.46   39.10
  22   2 -22  388.46   60.49
  20  -2 -22   64.69   31.40
 -20  -2  22   65.59   22.20
 -20   2  22   87.49   24.10
  20   2 -22   69.69   33.80
  18  -2 -22  245.28   49.20
 -18  -2  22  237.18   32.90
  18   2 -22  294.27   53.79
 -18   2  22  258.27   31.90
  16  -2 -22   79.39   53.89
 -16  -2  22   59.89   20.10
  16  -2 -22   68.59   18.00
  16   2 -22   72.59   33.30
 -16   2  22   54.39   17.70
 -14  -2  22   21.70   22.70
  14  -2 -22   32.30   15.60
 -14  -2  22   36.00   17.10
  14  -2 -22   47.10   24.90
  14   2 -22  -10.50   18.30
 -14   2  22    8.70   14.10
  14   2 -22   -0.10   15.30
  12  -2 -22  355.36   46.40
 -12  -2  22  420.26   36.70
 -12  -2  22  392.06   48.10
  12  -2 -22  415.56   31.80
  12   2 -22  415.56   47.80
  12   2 -22  398.66   35.10
 -12   2  22  448.86   34.20
 -12   2  22  421.66   49.50
 -10  -2  22   -4.10   13.10
 -10  -2  22  -13.50   14.40
  10  -2 -22    0.80   11.10
  10  -2 -22   -2.50   19.70
 -10   2  22    1.90   12.90
  10   2 -22    0.70   16.40
  10   2 -22    2.70   11.30
 -10   2  22   -4.90   22.60
   8  -2 -22  294.27   39.90
  -8  -2  22  375.56   33.20
  -8  -2  22  285.27   36.40
   8  -2 -22  329.17   26.50
   8   2 -22  337.27   50.39
   8   2 -22  264.77   37.70
  -8   2  22  316.67   27.10
  -8   2  22  272.87   49.70
   6  -2 -22  143.99   18.60
  -6  -2  22  133.29   28.60
   6  -2 -22  151.18   31.70
  -6  -2  22  109.69   21.70
  -6   2  22  102.29   18.10
   6   2 -22   93.09   21.10
  -6   2  22  142.59   35.90
   6   2 -22  114.39   26.40
   4  -2 -22   74.59   26.70
   4  -2 -22   89.39   15.90
  -4  -2  22   98.19   21.30
  -4  -2  22  127.59   28.30
   4   2 -22   92.39   24.90
   4   2 -22   90.29   19.90
  -4   2  22   94.49   16.20
   2  -2 -22   73.39   25.90
  -2  -2  22   44.40   18.90
   2   2 -22   32.70   16.30
   2   2 -22   73.09   20.10
  -2   2  22   15.60   11.40
   0  -2 -22  -14.80   19.90
   0  -2  22  -11.30   12.70
   0   2  22   -7.30   10.90
   0   2 -22    4.90   14.10
   2  -2  22  119.59   22.60
  -2  -2 -22  148.79   31.40
  -2  -2 -22  121.69   45.40
  -2   2 -22  112.09   27.00
   2   2  22  192.58   20.70
  -2   2 -22  143.59   21.80
  -4  -2 -22   91.89   29.40
   4  -2  22   44.40   18.80
  -4  -2 -22   64.39   41.60
   4   2  22   41.70   13.80
  -6  -2 -22   82.19   30.10
  -6  -2 -22   73.29   40.20
   6  -2  22   23.80   18.00
   6   2  22   81.49   23.60
   6   2  22   56.79   17.70
   8  -2  22   36.00   33.80
  -8  -2 -22   31.50   37.30
  -8  -2 -22   19.60   24.90
   8   2  22   27.00   17.50
   8   2  22   40.50   16.10
  10  -2  22   23.90   22.30
 -10  -2 -22   43.30   38.20
 -10  -2 -22   52.19   29.00
  10   2  22   21.50   18.20
  10   2  22   38.60   17.30
 -25  -3  22   31.90   22.40
  25  -3 -22   34.70   30.90
 -25   3  22   -0.20   16.40
  25   3 -22  -10.40   32.40
 -23  -3  22  -10.70   15.70
  23  -3 -22   44.50   31.80
 -23   3  22   13.50   16.70
  23   3 -22  -23.80   24.10
 -21  -3  22   20.60   17.70
  21  -3 -22   70.29   32.00
 -21   3  22   46.80   19.30
  21   3 -22    3.90   28.00
  19  -3 -22   66.59   35.00
 -19  -3  22   65.89   21.50
 -19   3  22   50.99   31.20
  19   3 -22   -0.70   27.00
 -17  -3  22   39.40   18.60
  17  -3 -22   -5.40   23.60
  17  -3 -22   14.10   15.20
 -17   3  22   68.19   20.00
  15  -3 -22  -13.70   20.30
 -15  -3  22  -15.10   18.90
  15  -3 -22   50.29   16.70
  15   3 -22   -5.90   23.50
 -15   3  22   35.30   16.20
 -13  -3  22   -9.10   16.70
 -13  -3  22    6.20   15.00
  13  -3 -22   -0.80   11.00
  13  -3 -22   13.10   21.90
  13   3 -22    9.60   23.60
 -13   3  22    3.00   13.10
 -11  -3  22   -4.70   17.00
  11  -3 -22   21.90   23.50
 -11  -3  22   22.10   15.90
  11  -3 -22   22.20   11.80
 -11   3  22    3.20   11.40
 -11   3  22    3.60   22.90
  11   3 -22   -4.50   12.00
  11   3 -22   52.19   25.90
  -9  -3  22   83.29   25.10
   9  -3 -22   84.19   29.00
  -9  -3  22   31.90   17.50
   9  -3 -22   17.30   11.50
   9   3 -22   53.29   24.30
  -9   3  22   41.80   28.80
  -9   3  22   57.59   14.90
   9   3 -22   51.19   16.50
   7  -3 -22  100.49   28.90
   7  -3 -22  122.89   17.90
  -7  -3  22  132.49   27.60
  -7  -3  22  126.49   24.30
  -7   3  22  102.49   34.50
   7   3 -22   68.59   23.90
   7   3 -22  122.29   23.20
  -7   3  22  138.79   19.10
  -5  -3  22   31.30   17.00
  -5  -3  22   61.69   20.60
   5  -3 -22  -21.90   19.10
  -5   3  22    9.10   11.00
   5   3 -22  -15.80   12.60
   5   3 -22   60.19   22.10
  -3  -3  22  110.49   23.50
  -3  -3  22  119.99   25.50
   3  -3 -22   78.79   28.60
   3   3 -22  121.39   24.40
   3   3 -22  107.19   23.40
  -3   3  22   93.19   14.50
  -1  -3  22    6.70   14.50
   1  -3 -22   14.60   22.90
   1   3 -22   -7.80   13.80
  -1   3  22   14.20    9.80
  -1  -3 -22   27.60   23.90
   1  -3  22    8.60   15.20
  -1  -3 -22   -7.90   35.00
   1   3  22    0.30    9.50
  -1   3 -22    9.70   13.10
  -3  -3 -22   35.30   27.30
   3  -3  22   48.40   19.90
  -3  -3 -22   54.29   42.00
   3   3  22   43.00   11.80
   3   3  22   54.29   11.20
   5  -3  22   25.00   20.40
  -5  -3 -22   16.00   23.30
  -5  -3 -22   29.10   41.80
   5   3  22   36.20   12.20
   5   3  22   17.70   11.00
   7  -3  22   35.50   22.40
  -7  -3 -22   32.60   45.50
  -7  -3 -22  -25.60   23.10
   7   3  22   32.60   13.10
   7   3  22    4.80   10.60
   9  -3  22   43.80   24.70
  -9  -3 -22   39.70   31.40
  -9  -3 -22    5.80   41.20
   9   3  22   22.00   23.00
   9   3  22   33.90   13.90
 -24  -4  22   -0.60   17.30
  24  -4 -22   66.39   34.00
  24   4 -22   18.90   31.90
 -24   4  22  -12.60   16.80
  22  -4 -22   25.40   28.30
 -22  -4  22    8.30   20.50
  22   4 -22    4.10   29.90
 -22   4  22   35.50   19.70
  20  -4 -22  160.78   42.90
 -20  -4  22  116.69   27.10
 -20   4  22  174.88   30.30
  20   4 -22   46.40   33.90
 -18  -4  22   40.00   20.80
  18  -4 -22   39.90   27.60
 -18   4  22   41.10   17.50
  18   4 -22   22.20   28.30
  16  -4 -22  158.88   40.70
  16  -4 -22   80.59   20.20
 -16  -4  22  138.59   27.30
 -16   4  22   75.69   20.70
  16   4 -22   83.79   32.90
  14  -4 -22   41.70   24.10
 -14  -4  22   -1.10   14.60
 -14  -4  22   34.30   22.60
  14  -4 -22    6.50   12.70
 -14   4  22   23.40   14.60
  14   4 -22    6.90   26.10
  12  -4 -22  108.09   32.80
  12  -4 -22  102.19   18.60
 -12  -4  22  107.99   30.60
 -12  -4  22  106.59   25.20
  12   4 -22   51.19   28.30
 -12   4  22  122.39   21.10
  10  -4 -22    5.30   21.80
 -10  -4  22   44.20   18.20
 -10  -4  22    1.70   17.90
  10  -4 -22   10.40   11.20
  10   4 -22   11.50   22.20
 -10   4  22   13.70   13.10
   8  -4 -22  101.09   15.60
  -8  -4  22   57.69   19.90
  -8  -4  22   78.59   24.00
   8  -4 -22  115.09   34.10
   8   4 -22   56.29   24.30
  -8   4  22   88.89   16.40
  -8   4  22   23.30   32.90
  -6  -4  22   -1.50   16.70
   6  -4 -22   31.00   10.80
   6  -4 -22   44.90   25.60
  -6  -4  22   -3.40   14.10
   6   4 -22   -0.70   17.00
   6   4 -22   31.50   22.60
  -6   4  22   36.00   11.30
  -4  -4  22   16.40   18.10
   4  -4 -22   -7.50   21.60
  -4  -4  22   -7.80   14.50
   4   4 -22    5.50   17.80
  -4   4  22   -2.20    8.60
   4   4 -22   46.10   21.10
   2  -4 -22  317.27   44.20
  -2  -4  22  285.27   33.20
  -2  -4  22  282.87   31.10
   2   4 -22  330.97   34.70
   0  -4  22   38.50   18.90
   0  -4 -22   30.90   42.00
   0  -4 -22   45.80   28.80
   0   4 -22   26.60   15.40
  -2  -4 -22  155.58   55.39
  -2  -4 -22  200.98   39.00
   2  -4  22  174.68   42.60
  -4  -4 -22   84.69   45.70
   4  -4  22  113.59   24.90
  -4  -4 -22   29.30   26.70
  -6  -4 -22   29.40   27.80
   6  -4  22   66.29   23.90
   8  -4  22   80.39   26.20
  -8  -4 -22   35.80   32.20
  23  -5 -22    7.30   23.40
 -23  -5  22   45.70   21.00
  23   5 -22    6.80   33.10
 -23   5  22   -4.30   16.50
 -21  -5  22   97.99   27.90
  21  -5 -22  120.49   37.70
  21   5 -22   51.59   41.00
 -21   5  22   99.99   25.70
  19  -5 -22   -7.40   25.20
 -19  -5  22   -4.40   18.20
  19   5 -22   -4.20   28.70
 -17  -5  22   17.70   18.00
  17  -5 -22   10.30   23.40
  17  -5 -22   68.19   18.10
  17   5 -22   22.40   30.00
 -17   5  22   27.40   16.80
  15  -5 -22   -7.40   20.30
 -15  -5  22   -6.60   14.40
 -15   5  22   11.40   13.40
  15   5 -22  -20.20   24.90
 -13  -5  22   45.30   23.60
  13  -5 -22   47.50   29.40
  13  -5 -22   49.60   15.00
 -13  -5  22   55.29   20.60
  13   5 -22   42.50   29.70
 -13   5  22   67.79   18.10
  11  -5 -22   23.20   11.70
  11  -5 -22   33.60   26.30
 -11  -5  22   36.30   17.80
  11   5 -22   17.20   25.90
 -11   5  22   24.20   13.00
   9  -5 -22   14.10   10.50
  -9  -5  22   32.30   20.40
  -9   5  22   11.40   11.50
   9   5 -22   74.59   28.90
   7  -5 -22   -2.10   20.90
  -7  -5  22   -8.70   17.10
   7  -5 -22    4.40    9.30
  -7  -5  22    7.00   22.30
   7   5 -22   28.20   24.10
  -7   5  22   11.00    9.30
  -5  -5  22   61.09   27.10
  -5  -5  22   -1.60   15.40
   5  -5 -22  -10.30   20.50
   5  -5 -22   -0.50    7.10
  -5   5  22    3.70    7.00
   3  -5 -22  -24.50   20.70
  -3  -5  22   33.10   17.00
   3   5 -22   -5.10   20.60
  -1  -5  22   54.29   19.30
   1  -5 -22   36.20   27.70
   1   5 -22   51.29   18.30
  -1  -5 -22   62.29   29.70
   1  -5  22   26.30   20.00
   3  -5  22   10.00   19.00
  -3  -5 -22   55.99   50.49
   5  -5  22   22.50   20.50
  -5  -5 -22   54.19   35.10
  -7  -5 -22   46.60   32.80
   7  -5  22   54.09   26.70
 -22  -6  22   37.10   22.20
  22  -6 -22   45.40   32.70
  22   6 -22   57.49   45.00
 -22   6  22   58.49   23.90
 -20  -6  22   -5.80   14.60
  20  -6 -22   70.49   34.90
 -20   6  22   49.60   20.50
  20   6 -22   -0.60   35.00
 -18  -6  22   17.00   17.80
  18  -6 -22   27.20   24.00
 -18   6  22   -0.60   13.30
  18   6 -22  -22.70   26.00
 -16  -6  22  228.58   33.10
  16  -6 -22   91.09   31.10
  16  -6 -22  177.08   24.40
 -16   6  22  213.48   28.00
  16   6 -22  219.98   53.89
  14  -6 -22    0.90   12.50
  14  -6 -22   23.50   27.60
 -14  -6  22    0.20   16.90
 -14   6  22   19.20   14.90
  14   6 -22   35.00   30.90
 -12  -6  22   36.90   20.30
  12  -6 -22   51.59   29.70
  12  -6 -22   25.50   13.40
 -12  -6  22    8.80   17.90
  12   6 -22   41.30   31.30
 -12   6  22   51.99   16.10
 -10  -6  22   -2.80   14.60
 -10  -6  22    4.30   18.90
  10  -6 -22    2.70    9.50
  10  -6 -22   -4.00   22.60
  10   6 -22   29.00   28.40
  -8  -6  22   87.69   23.90
  -8  -6  22  143.39   30.10
   8  -6 -22  103.19   36.10
   8  -6 -22  105.09   15.60
   8   6 -22  172.78   39.40
  -6  -6  22   91.59   24.50
   6  -6 -22  115.59   11.90
   6  -6 -22  122.49   37.80
  -6  -6  22  170.98   29.90
   6   6 -22  103.39   32.20
  -4  -6  22   48.60   21.80
   4  -6 -22   80.79   33.70
  -4  -6  22   58.59   20.70
   4   6 -22   67.09   28.20
  -2  -6  22  104.39   25.90
   2  -6 -22  113.19   37.00
  -2  -6  22   90.09   18.10
   2   6 -22   17.60   20.20
   0  -6  22   -9.30   17.10
   0  -6 -22   26.10   27.70
   2  -6  22  161.68   30.10
  -2  -6 -22   54.99   31.10
   4  -6  22   30.20   21.20
  -4  -6 -22   10.20   30.20
  -6  -6 -22  -15.30   25.50
   6  -6  22    9.10   23.00
  21  -7 -22  -14.40   27.60
 -21  -7  22  -18.50   16.50
  21   7 -22  -10.50   34.10
 -19  -7  22  -10.40   15.80
  19  -7 -22   54.49   32.00
  19   7 -22   -8.50   33.70
 -17  -7  22  128.69   28.40
  17  -7 -22   97.79   33.70
  17   7 -22   58.39   41.60
  15  -7 -22   -2.10   23.50
  15  -7 -22    3.10   14.50
 -15  -7  22   -6.10   13.80
  15   7 -22  -20.60   25.50
 -13  -7  22  -20.70   13.20
  13  -7 -22   14.30   23.60
  13  -7 -22   -2.80   11.70
  13   7 -22  -20.90   27.50
 -11  -7  22  -11.70   13.70
 -11  -7  22   -4.90   18.80
  11  -7 -22    5.90   22.80
  11  -7 -22   28.80   13.30
  11   7 -22   23.20   30.90
  -9  -7  22   -5.20   17.40
  -9  -7  22   -7.40   19.60
   9  -7 -22    1.80    9.20
   9  -7 -22    2.60   23.30
   9   7 -22   74.69   34.40
   7  -7 -22   33.60    7.60
  -7  -7  22   43.60   20.20
  -7  -7  22   23.80   21.20
   7  -7 -22   29.00   27.90
   7   7 -22    2.30   26.40
  -5  -7  22   29.10   20.10
   5  -7 -22  -19.20   21.50
  -5  -7  22    4.50   16.90
   5   7 -22   16.90   28.10
  -3  -7  22   33.70   17.90
  -3  -7  22   28.20   20.00
   3  -7 -22   25.40   29.20
   3   7 -22   56.79   27.50
   1  -7 -22   63.59   32.40
  -1  -7  22    7.30   19.30
  -1  -7 -22    2.20   26.10
   1  -7  22   18.60   21.90
   3  -7  22   20.20   20.60
  -3  -7 -22   75.39   36.40
  -5  -7 -22   51.59   35.60
   5  -7  22   -0.30   21.00
 -18  -8  22   37.90   21.70
  18  -8 -22   27.60   25.00
  18   8 -22  132.99   53.29
  16  -8 -22   -2.00   23.70
 -16  -8  22  -12.50   16.80
  16  -8 -22   -5.90   12.90
  16   8 -22   37.30   36.20
  14  -8 -22   13.80   13.70
  14  -8 -22   13.20   29.10
 -14  -8  22   36.00   19.50
  14   8 -22  128.09   53.49
  12  -8 -22  118.99   19.80
 -12  -8  22  138.09   32.00
  12  -8 -22  174.38   44.00
  12   8 -22  130.29   47.90
  10  -8 -22   -2.20   25.10
 -10  -8  22   62.59   27.20
  10  -8 -22   11.10   13.90
 -10  -8  22   -1.20   16.90
  10   8 -22   69.89   36.70
   8  -8 -22   62.69   35.20
  -8  -8  22   37.40   23.60
  -8  -8  22   26.90   20.30
   8  -8 -22   51.99    9.20
   8   8 -22   71.29   36.40
   6  -8 -22   80.69   35.00
  -6  -8  22  129.19   28.80
  -6  -8  22  133.39   27.90
   6   8 -22  154.78   40.80
   4  -8 -22   47.80   29.80
  -4  -8  22   42.90   23.30
  -4  -8  22   82.29   23.40
   4   8 -22   79.49   33.20
  -2  -8  22   21.00   19.70
   2  -8 -22   41.10   32.50
  -2  -8  22   14.20   13.70
   0  -8  22   -7.10   18.10
   0  -8 -22   16.90   31.50
  -2  -8 -22   13.30   29.40
   2  -8  22    2.40   19.30
 -15  -9  22   -2.00   16.40
  15  -9 -22  -22.60   18.80
  15  -9 -22    7.70   16.00
  15   9 -22   34.00   41.20
  13  -9 -22   16.60   13.60
 -13  -9  22   38.10   21.20
  13  -9 -22   -6.60   23.20
  13   9 -22   20.50   32.30
 -11  -9  22  -17.70   13.50
  11  -9 -22    0.30   27.90
  11  -9 -22    4.40   11.40
  11   9 -22  -20.20   28.50
   9  -9 -22   -3.20    8.60
  -9  -9  22   19.20   25.00
  -9  -9  22   20.50   18.60
   9  -9 -22  -39.60   18.30
   9   9 -22    4.90   32.00
   7  -9 -22   36.80   29.40
  -7  -9  22   20.80   24.00
  -7  -9  22   37.40   23.30
   7   9 -22   23.50   32.90
  -5  -9  22   20.20   21.50
   5  -9 -22   40.50   37.80
  -5  -9  22    5.40   18.50
   5   9 -22  -37.90   25.50
  -3  -9  22   62.59   24.20
   3  -9 -22   91.09   40.20
   1  -9 -22   -5.60   25.70
  -1  -9  22   51.49   22.30
 -26   0  23    7.80   17.30
  26   0 -23   -7.30   30.70
  24   0 -23   -9.70   30.90
 -24   0  23    7.20   18.20
 -22   0  23   -1.90   17.30
  22   0 -23   -2.70   27.10
  20   0 -23   -6.50   23.00
 -20   0  23    2.10   15.90
  18   0 -23  -25.60   16.50
 -18   0  23  -11.40   15.20
 -16   0  23    5.00   15.30
  16   0 -23    5.90   24.30
 -14   0  23   -5.30   18.70
  14   0 -23   15.20   20.90
  14   0 -23   -5.70   12.50
 -14   0  23  -20.30   12.30
 -12   0  23    2.00   20.00
 -12   0  23   -3.60   14.20
  12   0 -23  -12.00   18.60
  12   0 -23    3.50   14.30
  10   0 -23   -6.50   17.50
 -10   0  23  -30.20   10.90
  10   0 -23   35.10   13.80
 -10   0  23   10.00   23.40
   8   0 -23    8.00   19.10
   8   0 -23   -5.10   10.90
  -8   0  23    8.60   20.50
  -8   0  23   17.20   15.60
  -6   0  23  -27.80   18.50
   6   0 -23   17.80   21.60
   6   0 -23   12.10   13.70
  -6   0  23    2.40   13.40
  -4   0  23  -10.90   18.50
   4   0 -23    6.50   18.30
  -4   0  23   30.90   16.50
   4   0 -23   13.50   13.30
  -2   0  23  -16.50   12.60
   2   0 -23   12.70   19.00
   0   0  23   -4.50   13.30
   0   0 -23   19.60   18.10
  -2   0 -23  -12.00   29.90
   2   0  23  -10.60   14.10
  -2   0 -23    0.20   16.50
   4   0  23  -27.10   13.70
  -4   0 -23   -7.40   30.90
  -6   0 -23   13.60   18.00
   6   0  23    0.00   15.20
  -6   0 -23    6.10   27.10
  -8   0 -23    5.30   17.10
   8   0  23   21.10   20.20
   8   0  23    9.70   18.30
  -8   0 -23  -12.30   35.10
  25  -1 -23  162.08   46.70
 -25  -1  23  157.78   33.40
 -25   1  23  172.08   33.90
  25   1 -23  175.08   49.99
 -23  -1  23   16.00   18.70
  23  -1 -23   20.20   29.20
 -23   1  23  -14.50   14.30
  23   1 -23   40.90   34.00
 -21  -1  23   27.60   19.10
  21  -1 -23   45.90   28.70
  21   1 -23   60.99   31.90
 -21   1  23   91.99   24.80
 -19  -1  23  280.17   35.20
  19  -1 -23  312.97   49.90
 -19   1  23  294.07   34.70
  19   1 -23  250.57   53.99
  17  -1 -23  234.28   48.20
  17   1 -23  158.78   38.70
 -17   1  23  173.88   28.80
 -15  -1  23  251.87   30.80
  15  -1 -23  263.47   28.50
  15  -1 -23  268.47   43.50
 -15   1  23  218.38   28.50
  15   1 -23  272.57   47.90
  13  -1 -23  -17.00   20.90
 -13  -1  23   13.80   15.40
 -13  -1  23   18.60   21.70
  13   1 -23  -18.80   17.60
 -13   1  23   -9.40   18.30
  13   1 -23   17.70   13.60
 -13   1  23    9.00   14.10
 -11  -1  23  257.77   39.30
  11  -1 -23  187.08   24.20
  11  -1 -23  346.47   43.20
 -11  -1  23  220.78   28.20
 -11   1  23  223.88   26.70
 -11   1  23  265.27   43.40
  11   1 -23  192.78   39.30
  11   1 -23  183.38   26.30
  -9  -1  23   84.29   20.40
  -9  -1  23   65.19   25.00
   9  -1 -23   95.09   27.20
   9  -1 -23   92.09   17.70
  -9   1  23   76.99   28.60
   9   1 -23   35.80   18.70
   9   1 -23   50.99   23.70
  -9   1  23   60.79   18.10
   7  -1 -23  -43.20   14.50
   7  -1 -23  -12.40   11.20
  -7  -1  23   20.40   21.90
  -7  -1  23   -7.90   12.40
  -7   1  23   -7.40   21.40
  -7   1  23   15.30   14.60
   7   1 -23  -12.00   17.10
   7   1 -23  -17.60   10.70
  -5  -1  23  222.48   36.00
   5  -1 -23  147.59   30.60
  -5  -1  23  166.58   24.30
   5  -1 -23  178.88   22.50
   5   1 -23  203.18   25.90
  -5   1  23  213.98   24.50
   5   1 -23  131.49   28.00
  -5   1  23  193.28   37.30
   3  -1 -23  135.89   29.60
  -3  -1  23  149.88   23.30
   3  -1 -23  138.19   20.00
   3   1 -23  150.28   22.50
  -3   1  23  110.29   19.20
   3   1 -23  120.59   26.80
  -1  -1  23  145.99   23.70
   1  -1 -23  156.38   30.30
  -1   1  23  121.99   19.60
  -1  -1 -23  336.77   38.30
   1  -1  23  319.97   31.50
  -1  -1 -23  229.58   54.79
  -1   1 -23  167.08   41.90
   1   1  23  283.67   27.40
  -1   1 -23  247.88   30.60
  -3  -1 -23   -3.10   18.80
  -3  -1 -23   20.30   37.50
   3  -1  23  -18.10   14.00
  -3   1 -23   32.10   30.80
   3   1  23   -9.80   13.00
  -3   1 -23   -5.90   14.40
   5  -1  23   88.89   21.50
  -5  -1 -23   60.99   39.20
  -5  -1 -23  153.68   30.50
  -5   1 -23  169.58   31.10
   5   1  23  100.99   19.30
  -5   1 -23  150.58   22.90
  -7  -1 -23   14.00   31.40
   7  -1  23  -18.50   15.70
  -7  -1 -23   23.70   23.40
   7   1  23  -13.00   15.40
  -7   1 -23   26.90   16.10
  -7   1 -23    9.70   12.30
   7   1  23   17.10   15.20
  -9  -1 -23   23.80   24.10
   9  -1  23   18.40   21.10
  -9  -1 -23   35.10   32.90
   9   1  23   46.60   24.10
   9   1  23  -19.20   15.20
  24  -2 -23   21.10   33.60
 -24  -2  23   -6.30   16.00
  24   2 -23    0.60   30.10
 -24   2  23   -9.00   15.70
 -22  -2  23   -4.10   15.20
  22  -2 -23   -2.20   24.70
  22   2 -23    2.00   26.70
 -22   2  23   37.90   19.60
  20  -2 -23   10.10   24.40
 -20  -2  23   35.70   19.90
 -20   2  23    9.20   15.80
  20   2 -23   63.99   35.60
  18  -2 -23  -18.30   15.70
 -18  -2  23   11.20   17.30
 -18   2  23    7.90   15.00
  18   2 -23   25.30   30.10
  16  -2 -23    1.50   21.50
  16  -2 -23    6.10   14.50
 -16  -2  23   -1.20   28.30
  16   2 -23   22.80   26.50
 -16   2  23    6.20   15.60
  14  -2 -23   42.70   18.70
  14  -2 -23  139.09   36.80
 -14  -2  23   96.19   23.70
 -14  -2  23   43.30   24.60
 -14   2  23   14.80   14.60
  14   2 -23  117.09   36.30
  12  -2 -23  -11.20   10.60
 -12  -2  23    3.10   15.00
  12  -2 -23    6.00   18.70
 -12  -2  23    4.30   19.70
  12   2 -23  -34.20   15.10
 -12   2  23    0.50   12.90
 -12   2  23   17.20   34.90
  12   2 -23   16.50   13.80
 -10  -2  23  -10.40   13.00
 -10  -2  23    3.60   18.00
  10  -2 -23  -10.40   17.50
  10  -2 -23   23.40   13.30
  10   2 -23   16.60   20.00
 -10   2  23   25.20   28.90
  10   2 -23    1.60   13.20
 -10   2  23   -1.90   13.20
  -8  -2  23   35.20   21.80
  -8  -2  23   -9.20   12.30
   8  -2 -23    7.80   11.10
   8  -2 -23    3.40   19.40
   8   2 -23    5.30   19.90
  -8   2  23    9.60   23.90
   8   2 -23   15.40   15.00
  -8   2  23  -17.60   11.00
   6  -2 -23  170.78   21.50
  -6  -2  23  176.78   26.60
  -6  -2  23  191.18   33.00
   6  -2 -23  216.18   37.40
  -6   2  23  199.28   47.60
  -6   2  23  177.18   22.80
   6   2 -23  178.28   26.40
   6   2 -23  174.48   32.40
   4  -2 -23  190.28   21.40
  -4  -2  23  218.28   34.00
  -4  -2  23  195.98   28.10
   4  -2 -23  183.18   35.60
   4   2 -23  208.58   31.50
   4   2 -23  153.58   25.10
  -2  -2  23  -42.50   12.10
   2  -2 -23  -13.80   18.00
   2   2 -23  -19.90   12.80
  -2   2  23   -4.40   10.30
   0  -2  23   33.50   17.60
   0  -2 -23    1.60   20.90
   0   2 -23   -2.90   14.50
   0   2  23   -6.80   10.80
  -2  -2 -23   73.99   41.40
   2  -2  23    8.00   16.20
  -2  -2 -23    5.40   23.10
  -2   2 -23   22.30   13.90
  -2   2 -23  -12.50   21.60
   2   2  23   12.70   13.30
  -4  -2 -23   43.20   25.30
  -4  -2 -23  138.69   52.39
   4  -2  23   24.10   19.10
   4   2  23   26.10   23.90
   4   2  23   15.20   14.30
   6  -2  23    8.20   18.70
  -6  -2 -23  113.89   46.70
  -6  -2 -23   42.00   26.30
   6   2  23   -2.70   13.60
   6   2  23   31.40   15.90
  -8  -2 -23   15.40   24.30
   8  -2  23    1.80   19.40
  -8  -2 -23   -2.20   34.50
   8   2  23   18.90   15.10
   8   2  23   36.50   18.20
  25  -3 -23   30.30   29.30
 -25  -3  23   93.49   27.90
 -25   3  23  105.59   28.40
  25   3 -23   85.09   42.90
 -23  -3  23    8.30   17.70
  23  -3 -23   -3.30   24.40
 -23   3  23   12.40   18.30
  23   3 -23   18.90   29.20
  21  -3 -23   83.99   32.60
 -21  -3  23   84.89   24.80
  21   3 -23  158.88   45.20
 -21   3  23  126.59   27.80
  19  -3 -23   53.79   30.30
 -19  -3  23   47.30   21.10
 -19   3  23   44.50   31.90
  19   3 -23   18.80   30.00
  17  -3 -23   -9.80   11.80
 -17  -3  23    7.20   16.50
  17  -3 -23   36.00   25.80
  17   3 -23  -27.70   21.00
 -17   3  23   13.90   16.10
  15  -3 -23  484.25   55.09
 -15  -3  23  437.86   41.80
  15  -3 -23  539.95   38.60
 -15   3  23  526.35   40.10
  15   3 -23  532.05   59.99
  13  -3 -23    2.70   11.80
 -13  -3  23  -14.70   13.70
 -13  -3  23   22.80   21.80
  13  -3 -23   15.70   24.30
 -13   3  23    1.30   11.70
  13   3 -23    6.80   20.70
 -11  -3  23   13.30   15.60
  11  -3 -23    7.80   12.20
  11  -3 -23   16.40   20.80
 -11   3  23   -7.80   10.40
  11   3 -23  -19.70   17.10
  -9  -3  23  688.43   54.39
   9  -3 -23  713.93   59.89
  -9  -3  23  703.73   48.80
   9  -3 -23  613.04   39.40
  -9   3  23  723.13   41.80
   9   3 -23  640.74   46.40
   9   3 -23  666.13   57.99
  -9   3  23  738.53   66.39
  -7  -3  23   -2.80   17.90
   7  -3 -23   14.10   22.20
  -7  -3  23   25.70   16.40
   7  -3 -23    6.10   10.50
   7   3 -23    6.90   18.70
   7   3 -23   42.50   16.50
  -7   3  23   60.99   30.40
   5  -3 -23  214.58   21.90
  -5  -3  23  241.38   34.50
  -5  -3  23  210.48   30.10
   5  -3 -23  229.58   40.40
  -5   3  23  228.78   22.00
   5   3 -23  224.38   33.20
   5   3 -23  210.28   29.20
  -3  -3  23   19.70   17.30
  -3  -3  23   26.00   18.50
   3  -3 -23   47.40   25.30
   3   3 -23   35.60   18.40
  -3   3  23   31.20   11.50
   3   3 -23   38.10   16.90
  -1  -3  23   -5.70   15.70
   1  -3 -23   19.40   23.30
   1   3 -23    5.20   15.50
  -1   3  23   22.50   10.70
  -1  -3 -23  216.48   39.40
  -1  -3 -23  164.68   53.49
   1  -3  23  213.98   31.30
  -1   3 -23  205.38   31.40
   1   3  23  297.77   21.00
  -1   3 -23  251.07   24.70
  -3  -3 -23  -19.20   38.70
   3  -3  23   13.00   19.00
  -3  -3 -23  -18.30   20.10
   3   3  23   15.50   10.60
   3   3  23    1.70    9.60
  -5  -3 -23   50.49   30.00
   5  -3  23   27.80   20.00
  -5  -3 -23   87.79   46.60
   5   3  23    5.40   10.60
   5   3  23   23.10   11.60
  -7  -3 -23   28.50   44.20
   7  -3  23    4.40   20.30
  -7  -3 -23   47.70   30.30
   7   3  23   16.50   11.90
  24  -4 -23   47.80   32.60
 -24  -4  23  152.48   33.90
  24   4 -23   74.69   44.20
 -24   4  23  120.29   29.30
 -22  -4  23   -3.20   16.70
  22  -4 -23   55.29   33.30
  22   4 -23   34.30   36.70
 -22   4  23   24.20   20.60
 -20  -4  23   37.40   21.80
  20  -4 -23   84.79   34.10
 -20   4  23   98.29   24.10
  20   4 -23   35.10   32.80
  18  -4 -23   70.49   32.80
 -18  -4  23   73.59   24.10
  18   4 -23   35.90   30.10
 -18   4  23   48.10   20.30
 -16  -4  23   97.79   24.50
  16  -4 -23  139.09   38.60
  16  -4 -23   60.89   18.30
 -16   4  23   55.29   18.50
  14  -4 -23  147.09   22.10
 -14  -4  23  153.98   42.20
  14  -4 -23   85.49   30.60
 -14  -4  23   74.49   22.00
  14   4 -23  110.99   38.20
 -14   4  23   86.59   20.70
  12  -4 -23    0.70   12.00
  12  -4 -23    6.10   20.50
 -12  -4  23  -12.20   17.70
 -12  -4  23   34.80   20.00
  12   4 -23   -0.10   21.40
 -12   4  23  -17.00   11.60
  10  -4 -23   35.60   13.20
  10  -4 -23   89.69   31.30
 -10  -4  23   35.20   21.80
 -10  -4  23   30.10   17.90
 -10   4  23   62.99   16.00
  10   4 -23   40.60   26.50
  -8  -4  23  209.08   30.30
  -8  -4  23  187.98   32.00
   8  -4 -23  221.08   42.00
   8  -4 -23  226.38   21.40
  -8   4  23  195.38   21.90
   8   4 -23  241.78   41.20
   6  -4 -23   78.49   30.30
  -6  -4  23   85.99   24.30
   6  -4 -23  107.59   15.60
  -6  -4  23  136.89   26.30
  -6   4  23   77.99   14.10
   6   4 -23  115.79   30.30
  -4  -4  23    9.90   15.40
  -4  -4  23  -27.10   15.40
   4  -4 -23  -23.90   21.00
   4   4 -23    5.50   19.80
  -4   4  23    1.80    8.50
  -2  -4  23  -20.30   14.00
   2  -4 -23    5.30   26.40
   2   4 -23   25.50   21.00
  -2   4  23    3.50    7.30
   0  -4 -23   10.60   45.80
   0  -4 -23   37.90   28.30
  -2  -4 -23   26.50   28.90
   2  -4  23   21.70   19.10
  -4  -4 -23   40.20   29.40
   4  -4  23   -2.10   19.60
   6  -4  23   20.10   22.30
  -6  -4 -23   40.20   30.40
  23  -5 -23    3.40   29.00
 -23  -5  23  -13.80   14.30
  23   5 -23   21.70   38.30
 -23   5  23    2.90   18.10
 -21  -5  23   43.10   22.80
  21  -5 -23    0.80   28.50
 -21   5  23   41.80   20.00
  21   5 -23   12.20   36.20
 -19  -5  23    5.50   18.90
  19  -5 -23  -28.60   19.80
  19   5 -23   -3.10   30.90
 -19   5  23   35.90   20.70
 -17  -5  23   29.70   19.20
  17  -5 -23   44.90   32.50
  17  -5 -23   42.20   16.70
  17   5 -23   89.49   42.20
 -17   5  23   63.79   20.70
  15  -5 -23   71.89   21.20
 -15  -5  23   64.79   22.20
  15  -5 -23  112.69   39.30
 -15   5  23   65.29   18.30
  15   5 -23  100.19   38.90
  13  -5 -23  119.19   20.00
  13  -5 -23  177.88   42.50
 -13  -5  23   77.59   22.00
 -13  -5  23  117.79   30.90
 -13   5  23  120.59   21.20
  13   5 -23  102.99   39.40
  11  -5 -23  305.97   26.00
 -11  -5  23  315.87   36.20
  11  -5 -23  289.97   45.80
 -11  -5  23  300.57   40.80
  11   5 -23  293.47   51.39
 -11   5  23  247.18   26.20
   9  -5 -23   35.70   12.60
   9  -5 -23    9.90   23.80
  -9  -5  23   38.70   19.50
  -9  -5  23   53.39   23.50
   9   5 -23   27.70   27.60
  -9   5  23   31.60   12.40
  -7  -5  23  106.69   25.10
   7  -5 -23   69.09   12.20
  -7  -5  23   21.60   19.80
   7  -5 -23   61.79   30.80
  -7   5  23   63.59   12.90
   7   5 -23   90.29   31.30
  -5  -5  23   86.89   23.40
  -5  -5  23  101.19   24.00
  -5   5  23   99.29   13.00
  -3  -5  23    2.00   16.80
  -3  -5  23   29.60   19.20
   3   5 -23   31.70   21.20
  -1  -5  23   27.10   18.20
   1   5 -23   37.00   16.30
  -1  -5 -23   40.40   37.30
   1  -5  23   31.10   21.00
   3  -5  23   14.80   19.40
  -3  -5 -23   35.60   31.00
  -5  -5 -23   70.79   36.10
   5  -5  23  152.88   31.90
  22  -6 -23   12.60   34.20
 -22  -6  23  -17.70   15.70
 -22   6  23   -9.90   17.70
  22   6 -23   18.20   37.20
 -20  -6  23    2.20   17.70
  20  -6 -23    9.60   23.90
  20   6 -23  -37.20   26.40
 -20   6  23    2.40   16.20
 -18  -6  23    2.90   16.20
  18  -6 -23    3.50   25.30
 -18   6  23   22.10   16.80
  18   6 -23   64.89   37.50
 -16  -6  23    1.30   16.20
  16  -6 -23    0.40   12.00
  16  -6 -23   24.00   26.10
 -16   6  23  -12.20   13.20
  16   6 -23   21.30   30.30
  14  -6 -23    2.10   22.80
  14  -6 -23   25.20   14.60
 -14  -6  23   32.70   20.80
  14   6 -23   67.69   35.50
 -14   6  23   13.80   14.40
 -12  -6  23   34.10   23.20
 -12  -6  23   -8.00   15.30
  12  -6 -23    2.10   11.70
  12  -6 -23   17.10   22.30
 -12   6  23   18.80   13.30
  12   6 -23   15.70   30.60
 -10  -6  23   47.90   18.90
  10  -6 -23   17.80   12.50
  10  -6 -23   12.10   22.00
  10   6 -23   62.89   32.00
 -10   6  23   25.20   21.20
   8  -6 -23    2.50   23.50
  -8  -6  23   18.70   17.60
   8  -6 -23   19.90    9.20
  -8  -6  23   15.90   20.80
   8   6 -23   22.90   27.60
   6  -6 -23  -16.30   21.40
  -6  -6  23   41.30   20.50
  -6  -6  23   34.70   19.90
   6   6 -23   -9.60   22.90
  -4  -6  23   93.19   23.20
   4  -6 -23  102.59   34.40
  -4  -6  23   19.10   17.80
   4   6 -23   73.49   28.90
   2  -6 -23   52.49   30.30
  -2  -6  23   44.00   21.00
  -2  -6  23   48.90   16.90
   2   6 -23   49.70   21.30
   0  -6  23   12.60   18.60
   0  -6 -23  -14.00   24.50
  -2  -6 -23   64.59   33.70
   2  -6  23    7.20   19.60
   4  -6  23   -6.90   19.40
  -4  -6 -23  -27.00   27.00
 -19  -7  23   34.50   21.30
  19  -7 -23   49.30   28.80
  19   7 -23   13.80   37.30
  17  -7 -23   77.59   31.50
 -17  -7  23   55.79   21.30
  17   7 -23   54.19   42.10
 -15  -7  23   35.10   20.80
  15  -7 -23   29.40   17.60
  15  -7 -23   30.20   27.30
  15   7 -23   64.99   39.10
  13  -7 -23   -9.80   12.10
 -13  -7  23   14.60   16.70
  13  -7 -23    8.30   24.20
  13   7 -23  -24.20   25.10
  11  -7 -23    5.10   23.80
 -11  -7  23   14.00   21.10
  11  -7 -23   12.80   11.20
 -11  -7  23    4.00   16.70
  11   7 -23    0.30   27.50
  -9  -7  23   72.59   24.30
  -9  -7  23   67.89   28.10
   9  -7 -23   67.19   34.30
   9  -7 -23   49.50   12.00
   9   7 -23   31.10   33.80
  -7  -7  23   -5.60   16.70
  -7  -7  23    2.40   19.90
   7  -7 -23  -14.80   23.00
   7   7 -23   -1.90   27.10
  -5  -7  23   38.50   22.00
   5  -7 -23   14.10   25.40
  -5  -7  23   21.50   19.00
   5   7 -23   -0.30   29.90
  -3  -7  23  123.49   24.20
  -3  -7  23  108.09   26.20
   3  -7 -23  175.98   43.40
   3   7 -23   93.59   28.90
   1  -7 -23   -4.40   25.50
  -1  -7  23   53.09   23.70
  -1  -7 -23  108.29   36.00
   1  -7  23  102.19   27.60
  -3  -7 -23   -4.30   28.10
   3  -7  23   30.30   22.30
  16  -8 -23   60.89   18.90
  16  -8 -23   72.99   32.30
 -16  -8  23   24.40   18.70
  16   8 -23   77.49   47.30
  14  -8 -23   12.20   14.60
  14  -8 -23   28.70   28.90
 -14  -8  23  -20.70   14.60
  14   8 -23   79.49   42.90
  12  -8 -23    8.20   12.90
  12  -8 -23   39.40   28.50
 -12  -8  23    4.30   17.50
  12   8 -23   10.60   35.70
 -10  -8  23   41.90   20.80
  10  -8 -23   60.89   33.20
 -10  -8  23   32.00   24.40
  10   8 -23    2.40   29.50
  -8  -8  23   13.10   20.00
  -8  -8  23   -2.60   18.50
   8  -8 -23    0.60   23.70
   8   8 -23  -33.50   26.40
   6  -8 -23   52.89   33.70
  -6  -8  23   40.60   22.80
  -6  -8  23   50.49   23.20
   6   8 -23   14.10   28.90
  -4  -8  23   14.20   17.80
   4  -8 -23   15.30   28.50
  -4  -8  23  -23.90   14.50
   4   8 -23   20.20   28.60
  -2  -8  23  -17.50   16.70
   2  -8 -23   10.70   28.10
   0  -8  23   -9.70   17.50
   0  -8 -23  -25.10   27.60
  13  -9 -23    1.00   13.80
  13  -9 -23   56.19   32.40
 -13  -9  23    6.70   17.40
  13   9 -23  -28.30   28.40
  11  -9 -23  -14.50   27.90
 -11  -9  23   -0.30   16.80
  11  -9 -23   10.90   11.90
  11   9 -23   25.90   35.80
  -9  -9  23   21.00   21.90
  -9  -9  23   18.70   23.50
   9  -9 -23   -9.60   28.00
   9   9 -23  -11.10   31.50
  -7  -9  23   18.60   24.60
  -7  -9  23   16.80   22.40
   7  -9 -23   -0.50   25.20
   7   9 -23   40.30   35.70
  -5  -9  23   49.70   26.90
   5  -9 -23   68.09   35.60
  -5  -9  23   15.30   20.30
   5   9 -23   68.39   35.50
   3  -9 -23   56.09   33.60
  -3  -9  23   25.30   17.40
  -3  -9  23   -0.50   19.20
 -24   0  24    6.20   19.60
  24   0 -24   21.20   30.50
  22   0 -24  229.28   55.59
 -22   0  24  206.08   35.90
  20   0 -24  132.39   39.90
 -20   0  24   67.99   22.50
  18   0 -24   29.20   27.90
 -18   0  24    5.50   14.00
  16   0 -24  358.56   52.09
 -16   0  24  468.75   40.40
  14   0 -24  453.75   38.10
 -14   0  24  507.45   40.60
  14   0 -24  502.55   54.79
 -12   0  24  236.98   40.90
  12   0 -24  243.88   28.00
  12   0 -24  275.87   41.50
 -12   0  24  295.97   31.50
 -10   0  24  451.85   46.90
  10   0 -24  414.66   47.20
 -10   0  24  349.67   34.00
  10   0 -24  368.16   38.00
  -8   0  24  246.48   29.00
  -8   0  24  216.48   40.30
   8   0 -24  230.48   27.10
   8   0 -24  232.88   39.30
   6   0 -24    2.60   13.20
  -6   0  24   15.90   24.10
  -6   0  24    9.60   15.80
   6   0 -24  -16.20   18.60
  -4   0  24   11.80   15.10
   4   0 -24   10.00   13.80
   4   0 -24  -23.00   18.60
   2   0 -24  176.98   32.20
  -2   0  24  226.98   28.00
   0   0 -24   -4.10   18.30
   0   0  24    7.50   14.20
  -2   0 -24  131.29   42.30
   2   0  24  130.39   23.20
  -2   0 -24  116.89   26.20
  -4   0 -24   58.59   27.70
  -4   0 -24  186.78   42.60
   4   0  24   79.79   21.60
   6   0  24   31.00   19.00
  -6   0 -24   23.10   20.70
  -6   0 -24   48.50   32.30
   8   0  24   64.19   21.90
  -8   0 -24   64.99   20.30
   8   0  24   76.09   25.20
  25  -1 -24   19.30   31.40
 -25  -1  24   13.30   18.50
  25   1 -24   13.90   31.10
 -25   1  24   33.90   21.20
  23  -1 -24   41.40   30.10
 -23  -1  24   43.40   21.90
 -23   1  24   24.00   20.90
  23   1 -24   23.00   30.30
  21  -1 -24   28.10   27.10
 -21  -1  24   -5.20   15.30
  21   1 -24  -13.90   25.20
 -21   1  24    0.70   15.70
  19  -1 -24   21.70   27.00
 -19  -1  24   44.00   18.50
 -19   1  24    7.60   16.40
  19   1 -24   22.90   27.10
  17  -1 -24  -11.30   18.00
 -17  -1  24  -19.60   14.10
 -17   1  24    3.90   15.60
  17   1 -24   19.90   24.70
  15  -1 -24    6.50   13.50
 -15  -1  24   10.50   15.50
 -15   1  24  -13.70   13.10
  15   1 -24   23.30   25.10
 -13  -1  24   -1.80   18.90
  13  -1 -24  -12.20   19.40
 -13  -1  24   14.40   16.40
  13  -1 -24   25.50   14.60
  13   1 -24   61.29   27.00
  13   1 -24    9.60   14.40
 -13   1  24    4.80   13.70
 -11  -1  24  -10.50   18.50
 -11  -1  24  -12.80   12.60
  11  -1 -24   11.00   12.70
  11  -1 -24    3.80   18.90
  11   1 -24    9.10   21.00
  11   1 -24   -2.60   12.60
 -11   1  24   -7.00   13.20
 -11   1  24   21.10   25.80
  -9  -1  24   -2.90   12.70
   9  -1 -24    9.40   18.80
  -9  -1  24    0.50   19.20
   9  -1 -24   18.20   13.70
  -9   1  24    6.50   25.00
   9   1 -24    6.00   19.30
  -9   1  24   -4.40   13.80
   9   1 -24   16.80   15.20
   7  -1 -24   15.40   12.40
  -7  -1  24   29.20   22.50
  -7  -1  24   24.40   14.80
   7  -1 -24   -1.00   19.40
  -7   1  24    2.80   13.00
   7   1 -24   20.80   20.50
  -7   1  24  -42.60   32.30
  -5  -1  24   47.10   23.60
   5  -1 -24   24.90   13.90
  -5  -1  24   17.30   15.20
   5  -1 -24   -5.70   21.00
   5   1 -24   30.10   19.80
   5   1 -24   18.60   15.40
  -5   1  24    4.70   13.30
   3  -1 -24   36.00   23.50
  -3  -1  24   50.89   18.40
   3   1 -24   32.80   16.30
  -3   1  24   56.99   16.70
   3   1 -24   46.20   21.90
   1  -1 -24    8.40   20.60
  -1  -1  24   10.20   16.00
  -1   1  24   39.90   16.60
   1   1 -24   -4.20   17.40
  -1  -1 -24   17.20   38.50
   1  -1  24   -9.50   15.80
  -1  -1 -24   31.70   22.00
   1   1  24  -21.80   13.20
  -1   1 -24   18.00   29.00
  -1   1 -24    2.40   17.30
  -3  -1 -24  -44.80   33.30
  -3  -1 -24   22.30   21.40
   3  -1  24    9.60   16.50
   3   1  24    1.50   14.10
  -3   1 -24    1.40   16.00
  -5  -1 -24    5.40   19.80
   5  -1  24    3.50   16.40
  -5  -1 -24    5.60   33.90
  -5   1 -24   20.50   23.40
   5   1  24    1.60   15.70
  -5   1 -24    8.30   14.80
  -7  -1 -24   24.00   23.90
  -7  -1 -24   -1.80   33.00
   7  -1  24   57.09   22.10
   7   1  24   35.50   17.40
   7   1  24   47.40   19.90
 -24  -2  24  189.98   33.80
  24  -2 -24  194.78   48.20
 -24   2  24  139.79   30.70
  24   2 -24  196.18   55.79
 -22  -2  24  109.09   27.40
  22  -2 -24  200.28   49.70
  22   2 -24  145.89   45.70
 -22   2  24  109.49   27.30
  20  -2 -24   19.00   28.50
 -20  -2  24   24.90   19.40
  20   2 -24   37.10   34.10
 -20   2  24   11.10   16.40
  18  -2 -24  108.19   36.70
 -18  -2  24  159.58   30.90
  18   2 -24  147.99   41.20
 -18   2  24  159.68   32.60
 -16  -2  24   11.30   17.60
  16  -2 -24    9.50   21.50
  16  -2 -24   16.30   15.00
 -16   2  24   35.00   17.30
  14  -2 -24   42.00   39.50
 -14  -2  24  -12.20   13.10
  14  -2 -24   16.30   13.40
 -14   2  24    4.30   13.30
  14   2 -24   35.80   24.60
 -12  -2  24  194.28   28.60
 -12  -2  24  164.88   33.30
  12  -2 -24  154.28   36.90
  12  -2 -24  160.78   23.30
  12   2 -24  223.28   42.40
 -12   2  24  192.08   25.50
 -10  -2  24   61.89   28.40
  10  -2 -24    8.10   10.70
  10  -2 -24   28.30   23.90
 -10  -2  24   -3.30   14.30
  10   2 -24   46.60   18.10
 -10   2  24    7.30   26.40
  10   2 -24   58.09   27.30
 -10   2  24    3.50   13.60
  -8  -2  24   56.09   18.10
  -8  -2  24   86.09   26.30
   8  -2 -24   25.50   22.30
   8  -2 -24   38.10   14.60
  -8   2  24   73.69   17.10
   8   2 -24   21.30   20.60
  -8   2  24   53.99   29.70
   8   2 -24  100.59   21.60
   6  -2 -24  113.09   30.60
   6  -2 -24   71.09   16.20
  -6  -2  24  100.89   22.90
  -6  -2  24   84.09   27.10
  -6   2  24   45.20   15.40
   6   2 -24   54.39   18.50
   6   2 -24   58.69   23.00
  -4  -2  24   45.70   25.70
  -4  -2  24   -2.30   15.10
   4  -2 -24   30.40   23.70
   4  -2 -24   -5.40   11.60
  -4   2  24   -5.50   12.60
   4   2 -24    4.60   14.00
   4   2 -24  -15.40   16.30
   2  -2 -24  -13.50   18.60
  -2  -2  24    5.20   17.10
   2   2 -24   -4.50   20.20
   0  -2  24    7.60   16.70
   0  -2 -24  -17.60   19.40
   0   2  24  -14.20   12.80
   0   2 -24   -0.80   14.30
   2  -2  24   69.19   21.20
  -2  -2 -24   75.89   30.50
  -2  -2 -24  105.69   51.59
  -2   2 -24   48.80   25.00
  -2   2 -24   60.89   17.00
   2   2  24   47.00   24.40
  -4  -2 -24   83.19   47.90
   4  -2  24   78.69   22.70
  -4  -2 -24   89.09   30.70
   4   2  24   48.90   25.40
   4   2  24   59.09   17.60
   6  -2  24   83.99   38.30
  -6  -2 -24   81.49   32.00
  -6  -2 -24   26.70   45.50
   6   2  24   36.60   16.50
   6   2  24   53.89   16.60
  23  -3 -24    6.90   26.20
 -23  -3  24    8.10   18.90
  23   3 -24    4.60   29.40
 -23   3  24   11.50   18.80
 -21  -3  24   99.99   27.60
  21  -3 -24   54.69   34.50
  21   3 -24   50.59   35.90
 -21   3  24   15.70   19.10
 -19  -3  24   29.70   18.00
  19  -3 -24   21.90   29.00
  19   3 -24   -6.00   26.10
 -19   3  24   -2.90   15.60
 -17  -3  24   -2.90   17.10
  17  -3 -24   12.70   23.30
 -17   3  24   -1.80   13.60
  17   3 -24    6.40   26.60
  15  -3 -24    6.10   13.80
 -15  -3  24   25.50   16.70
  15  -3 -24  -30.00   20.90
 -15   3  24  -27.60   10.80
  15   3 -24   23.20   26.90
  13  -3 -24  -12.90   10.00
 -13  -3  24   -1.90   18.60
  13  -3 -24   -4.50   20.40
 -13  -3  24  -25.00   21.20
 -13   3  24    3.30   13.70
  13   3 -24  -18.70   19.30
  11  -3 -24  -12.90   16.90
 -11  -3  24   24.10   16.30
 -11  -3  24    9.30   19.80
  11  -3 -24   -7.20   11.80
 -11   3  24   11.20   13.40
  11   3 -24   31.90   23.30
   9  -3 -24   39.50   14.70
   9  -3 -24   49.50   27.70
  -9  -3  24    9.20   20.40
  -9  -3  24   43.30   18.60
   9   3 -24   27.60   20.80
  -9   3  24   28.70   14.20
   7  -3 -24   59.89   28.30
  -7  -3  24    5.20   15.80
   7  -3 -24   20.70   12.50
  -7  -3  24    5.00   17.50
   7   3 -24   11.80   21.10
   7   3 -24   11.30   26.00
  -7   3  24  -16.40   10.40
  -5  -3  24   30.10   18.20
   5  -3 -24   33.50   24.10
   5  -3 -24   34.10   13.40
  -5  -3  24   40.90   22.80
   5   3 -24   19.30   20.00
   5   3 -24   35.90   22.20
  -5   3  24   25.50   12.30
  -3  -3  24  -12.60   14.70
  -3  -3  24   13.30   19.10
   3  -3 -24   -4.80   21.40
   3   3 -24   42.70   21.80
  -3   3  24    3.70   10.10
  -1  -3  24   -3.80   16.30
   1  -3 -24   15.30   24.50
   1   3 -24   16.00   16.30
  -1   3  24    5.90   10.50
   1  -3  24   -6.20   15.90
  -1  -3 -24   -5.80   23.60
  -1  -3 -24   -0.40   42.20
  -1   3 -24   24.60   20.60
   1   3  24   -4.90   10.10
  -1   3 -24   -0.50   12.00
  -3  -3 -24   25.40   44.80
   3  -3  24   45.40   25.20
  -3  -3 -24   27.80   28.70
   3   3  24   30.30   11.70
   3   3  24   26.70   12.20
   5  -3  24  -17.90   16.70
  -5  -3 -24   28.30   43.50
  -5  -3 -24    5.10   26.10
   5   3  24   -2.50   10.50
   5   3  24   14.10   12.10
   7  -3  24   54.79   24.00
  -7  -3 -24    0.40   45.50
  -7  -3 -24   38.90   31.60
   7   3  24   54.99   13.50
   7   3  24   21.70   14.20
 -22  -4  24  106.29   27.20
  22  -4 -24  110.69   38.50
  22   4 -24   78.99   48.20
 -22   4  24   88.59   24.90
 -20  -4  24   -3.80   17.40
  20  -4 -24   45.30   29.30
  20   4 -24    4.40   28.80
 -20   4  24   58.89   21.50
  18  -4 -24  250.67   49.90
 -18  -4  24   70.19   22.20
  18   4 -24  152.88   49.70
 -18   4  24  118.99   25.90
 -16  -4  24   -7.20   13.80
  16  -4 -24   -7.70   12.20
  16  -4 -24    3.90   20.90
 -16   4  24    5.30   14.50
  16   4 -24   72.49   34.30
  14  -4 -24   37.70   14.80
  14  -4 -24   14.60   22.30
 -14  -4  24   15.30   18.60
  14   4 -24   13.30   26.80
 -14   4  24    4.40   12.90
  12  -4 -24    5.60   13.20
 -12  -4  24   28.20   17.00
 -12  -4  24    2.80   19.60
  12  -4 -24  -17.30   20.00
  12   4 -24   -6.80   20.10
 -12   4  24   63.09   17.20
 -10  -4  24   12.70   20.60
 -10  -4  24   19.40   17.10
  10  -4 -24   11.70   24.70
  10  -4 -24   15.70   11.60
  10   4 -24   28.90   24.80
 -10   4  24   18.80   14.00
   8  -4 -24   79.49   35.90
  -8  -4  24  124.09   29.70
   8  -4 -24  139.19   19.30
   8   4 -24  114.59   31.70
  -8   4  24  146.59   23.20
  -6  -4  24  231.58   35.50
  -6  -4  24  164.78   44.40
   6  -4 -24  224.78   41.60
   6  -4 -24  223.18   21.90
   6   4 -24  170.38   33.80
  -6   4  24  174.58   20.00
   4  -4 -24   79.59   31.60
  -4  -4  24   65.79   21.60
   4   4 -24   74.19   24.70
  -4   4  24   78.59   12.50
   2  -4 -24  160.48   38.30
  -2  -4  24   99.19   27.00
  -2   4  24  125.49   13.70
   2   4 -24  109.99   25.50
   0  -4 -24  -13.20   23.20
   0  -4  24   -1.10   17.20
   2  -4  24   49.10   21.50
  -2  -4 -24   19.30   27.60
  -4  -4 -24   44.20   31.90
   4  -4  24   17.60   20.40
   6  -4  24   15.90   21.70
  21  -5 -24   17.70   32.50
 -21  -5  24   22.40   21.40
  21   5 -24   88.29   47.40
 -21   5  24   34.80   18.80
 -19  -5  24   18.70   20.30
  19  -5 -24  -12.40   21.30
  19   5 -24    9.90   34.00
 -19   5  24   29.40   18.20
 -17  -5  24  -10.70   15.50
  17  -5 -24   -4.20   14.90
  17  -5 -24   41.10   28.70
 -17   5  24   24.30   14.80
  17   5 -24   11.40   28.80
  15  -5 -24   -7.30   12.30
 -15  -5  24   -0.40   16.40
  15  -5 -24  -17.60   15.90
 -15   5  24    1.40   14.30
 -13  -5  24  -20.50   13.00
 -13  -5  24   34.50   27.10
  13  -5 -24   12.50   24.40
  13  -5 -24   -0.90   12.00
 -13   5  24   23.70   14.20
  13   5 -24  -14.90   22.70
 -11  -5  24   28.60   18.90
  11  -5 -24   -6.30   23.30
 -11  -5  24   19.00   24.30
  11  -5 -24   13.90   12.20
  11   5 -24   33.90   25.80
 -11   5  24   -1.10   11.80
   9  -5 -24   28.60   27.40
   9  -5 -24   11.40   11.00
  -9  -5  24   -5.20   15.50
  -9  -5  24    6.90   17.60
  -9   5  24   -6.00    9.00
   9   5 -24    6.40   22.70
  -7  -5  24  123.29   27.90
   7  -5 -24  152.68   17.20
  -7  -5  24   86.89   24.10
   7  -5 -24   86.69   32.40
  -7   5  24  115.29   17.30
   7   5 -24  139.19   37.00
  -5  -5  24   25.30   19.90
   5  -5 -24   21.30   28.10
  -5  -5  24  -15.00   15.10
   5   5 -24   35.00   26.80
  -5   5  24   -6.80    7.00
  -3  -5  24   65.39   22.40
   3  -5 -24   84.09   33.60
  -3  -5  24  111.99   23.40
   3   5 -24   90.79   25.50
  -1  -5  24  -24.20   14.90
   1  -5 -24  -29.90   21.70
  -1  -5 -24   -2.80   27.60
   1  -5  24   -4.30   16.30
   3  -5  24   -3.00   19.80
  -3  -5 -24   10.20   30.50
   5  -5  24   -6.60   19.30
  -5  -5 -24   39.30   34.70
  20  -6 -24   -3.30   24.10
 -20  -6  24    5.50   18.30
  20   6 -24   41.70   37.60
 -20   6  24   -8.00   14.00
  18  -6 -24   11.70   26.90
 -18  -6  24   24.90   19.30
  18   6 -24  122.09   47.70
 -18   6  24   60.49   20.00
  16  -6 -24   14.50   24.20
 -16  -6  24   -3.60   16.40
  16  -6 -24   12.20   14.30
 -16   6  24   31.10   17.00
  16   6 -24   37.60   35.50
  14  -6 -24   39.80   29.40
  14  -6 -24   44.10   16.50
 -14  -6  24   54.19   23.00
 -14   6  24   69.79   18.50
  14   6 -24   68.59   43.50
  12  -6 -24   31.30   14.60
 -12  -6  24   20.40   18.90
  12  -6 -24   25.40   32.20
 -12  -6  24   33.60   24.20
 -12   6  24   16.90   13.70
  12   6 -24   -5.70   27.50
  10  -6 -24   33.00   26.20
  10  -6 -24   24.30   12.10
 -10  -6  24    0.50   20.50
 -10  -6  24    5.00   16.50
 -10   6  24   22.50   14.80
  10   6 -24   10.50   24.70
  -8  -6  24  125.39   29.90
   8  -6 -24   82.59   13.20
   8  -6 -24   66.19   31.80
  -8  -6  24  106.09   28.30
   8   6 -24  137.19   36.70
   6  -6 -24  104.39   35.50
  -6  -6  24  122.59   27.80
  -6  -6  24   76.29   25.40
   6   6 -24   99.09   32.20
   4  -6 -24   46.00   29.30
  -4  -6  24  106.79   26.20
  -4  -6  24   87.99   29.00
   4   6 -24   72.29   27.10
   2  -6 -24   38.20   27.60
  -2  -6  24   12.60   20.10
   2   6 -24   25.60   19.70
   0  -6  24   30.70   21.60
   0  -6 -24    5.50   29.70
   2  -6  24   25.60   22.30
  -2  -6 -24   79.29   37.40
  19  -7 -24   29.30   29.20
 -19  -7  24   33.40   21.40
  19   7 -24   26.90   39.40
 -17  -7  24   36.30   20.00
  17  -7 -24  -17.30   20.60
  17   7 -24  -12.40   27.40
  15  -7 -24    0.40   16.10
  15  -7 -24  -11.60   22.60
 -15  -7  24  -16.10   14.60
  15   7 -24  -31.70   27.70
  13  -7 -24   54.09   29.70
 -13  -7  24   53.99   22.20
  13  -7 -24   36.80   15.40
  13   7 -24  -18.30   27.60
  11  -7 -24   -9.00   10.40
 -11  -7  24   -0.20   18.20
  11  -7 -24    1.50   22.50
 -11  -7  24   29.00   24.30
  11   7 -24   -5.70   25.00
  -9  -7  24  -19.20   22.30
   9  -7 -24  -21.30   24.60
   9  -7 -24    2.30    8.80
  -9  -7  24  -25.80   15.90
   9   7 -24   -3.60   27.70
   7  -7 -24  164.78   44.10
  -7  -7  24  140.59   30.90
  -7  -7  24  137.19   28.90
   7   7 -24   98.99   37.50
   5  -7 -24   19.20   28.90
  -5  -7  24    3.70   18.30
  -5  -7  24   31.90   22.80
  -3  -7  24   60.19   18.20
  -3  -7  24   36.90   24.60
   3  -7 -24   81.19   38.60
   3   7 -24   86.19   28.40
  -1  -7  24   10.20   19.30
   1  -7 -24   18.00   30.10
   1  -7  24   13.80   21.90
  -1  -7 -24  -32.30   23.60
  16  -8 -24   45.20   30.20
  16  -8 -24   -0.30   14.70
 -16  -8  24   -2.10   18.70
  16   8 -24   -2.90   35.10
  14  -8 -24  -31.50   21.70
 -14  -8  24   20.50   18.80
  14  -8 -24    5.40   14.40
  14   8 -24   -7.90   31.60
 -12  -8  24   49.30   23.30
  12  -8 -24   83.99   38.20
  12  -8 -24   72.69   16.60
  12   8 -24   26.60   39.40
 -10  -8  24   15.30   22.70
  10  -8 -24   22.10   28.30
  10  -8 -24   14.40   10.70
 -10  -8  24    7.60   17.70
  10   8 -24  -11.10   30.50
   8  -8 -24   -0.60   26.80
  -8  -8  24   -1.70   17.30
  -8  -8  24    7.20   21.50
   8   8 -24   37.10   34.40
  -6  -8  24   -2.70   19.50
   6  -8 -24   31.40   29.90
  -6  -8  24  -16.00   19.70
   6   8 -24  -15.80   25.00
   4  -8 -24  -13.00   26.80
  -4  -8  24  -10.00   18.20
   4   8 -24   29.60   27.40
   2  -8 -24   16.30   31.20
  -2  -8  24    8.80   19.30
   9  -9 -24   70.99   37.10
  -9  -9  24   51.29   29.60
  -9  -9  24   21.80   22.90
   9   9 -24   34.30   36.40
 -24   0  25   -5.10   15.50
  24   0 -25   20.20   31.50
  22   0 -25  -16.00   23.00
 -22   0  25  -14.80   13.60
  20   0 -25   34.20   28.20
 -20   0  25   -1.60   14.60
 -18   0  25   -8.70   14.60
  18   0 -25    3.90   27.30
 -16   0  25  -12.70   15.20
  16   0 -25   30.80   26.20
  14   0 -25  -18.20   13.30
  14   0 -25   -7.70   20.10
 -14   0  25    8.90   15.60
 -12   0  25    1.30   22.20
 -12   0  25  -14.70   14.60
  12   0 -25  -30.20   16.40
  12   0 -25   -9.90   11.40
 -10   0  25    1.40   25.30
  10   0 -25   36.60   24.10
 -10   0  25    1.30   14.90
  10   0 -25   -3.70   12.50
   8   0 -25   10.80   14.30
  -8   0  25    5.90   23.00
   8   0 -25  -13.20   20.40
  -8   0  25  -23.10   12.30
  -6   0  25   -6.10   24.20
   6   0 -25  -20.50   17.60
  -6   0  25   11.60   15.10
   6   0 -25    3.90   14.00
   4   0 -25  -15.40   13.30
   4   0 -25   11.80   19.60
  -4   0  25   -9.30   14.10
  -2   0  25    6.00   15.20
   2   0 -25   15.40   20.60
   0   0  25   -1.60   15.00
   0   0 -25   15.20   18.70
   2   0  25  -15.10   15.90
  -2   0 -25   -1.90   19.20
  -2   0 -25    0.40   34.20
  -4   0 -25   -0.50   30.60
   4   0  25  -16.20   15.50
  -4   0 -25   26.80   20.50
   6   0  25   -2.30   16.90
  -6   0 -25  -21.30   27.50
  -6   0 -25   27.40   29.80
  23  -1 -25   10.60   27.70
 -23  -1  25   45.90   22.00
 -23   1  25   90.39   25.40
  23   1 -25   18.50   27.10
  21  -1 -25   45.90   31.70
 -21  -1  25   61.59   24.10
 -21   1  25   51.99   21.30
  21   1 -25   70.19   35.40
  19  -1 -25    4.90   24.20
 -19  -1  25  -15.80   15.20
 -19   1  25   17.20   19.00
  19   1 -25   17.60   26.40
  17  -1 -25   -4.90   21.20
 -17  -1  25  -22.40   13.70
  17   1 -25  -19.00   18.60
 -17   1  25    8.60   17.00
 -15  -1  25  319.27   41.20
  15  -1 -25  324.27   34.00
  15  -1 -25  384.66   49.90
 -15   1  25  246.58   31.90
  13  -1 -25    2.50   14.00
 -13  -1  25    7.00   16.50
  13  -1 -25  -26.60   18.90
 -13   1  25    8.00   15.10
  13   1 -25   27.80   24.70
  11  -1 -25  256.97   42.00
 -11  -1  25  260.37   42.50
 -11  -1  25  242.18   31.20
  11  -1 -25  230.78   39.50
  11   1 -25  270.57   30.80
 -11   1  25  316.17   76.09
  11   1 -25  223.78   41.10
 -11   1  25  226.98   28.30
  -9  -1  25   53.69   19.40
   9  -1 -25   48.40   26.10
   9  -1 -25   49.70   16.20
  -9  -1  25   64.39   35.10
   9   1 -25   16.90   15.70
   9   1 -25   24.10   21.80
  -9   1  25   54.69   17.60
  -9   1  25  124.79   36.60
   7  -1 -25  277.47   28.30
  -7  -1  25  350.06   32.70
  -7  -1  25  277.27   42.80
   7  -1 -25  367.06   43.70
  -7   1  25  302.77   45.00
   7   1 -25  332.87   40.10
   7   1 -25  255.67   29.80
  -7   1  25  281.87   30.70
   5  -1 -25   48.60   24.80
  -5  -1  25   57.69   19.40
  -5  -1  25   35.80   24.90
   5  -1 -25   73.79   18.30
  -5   1  25   30.20   16.00
   5   1 -25   62.99   19.70
   5   1 -25   58.69   24.80
   3  -1 -25   43.80   23.10
  -3  -1  25   41.60   19.20
   3   1 -25   22.40   21.20
  -3   1  25    9.00   13.50
   1  -1 -25   82.49   25.90
  -1  -1  25   97.69   22.40
  -1   1  25   70.69   18.60
   1   1 -25   71.79   23.90
  -1  -1 -25  -32.50   37.10
   1  -1  25   20.50   17.40
  -1  -1 -25   51.79   25.30
  -1   1 -25   70.99   36.70
   1   1  25   42.10   16.40
  -1   1 -25   13.10   27.30
   3  -1  25   22.40   19.70
  -3  -1 -25   23.20   41.50
  -3  -1 -25  -15.00   19.00
   3   1  25   -3.80   15.80
  -3   1 -25   13.10   16.70
  -5  -1 -25   74.29   40.30
   5  -1  25   36.20   20.50
  -5  -1 -25   63.99   24.90
   5   1  25   67.19   21.80
   5   1  25   59.59   18.40
  -5   1 -25   49.50   17.00
  -5   1 -25   72.79   26.10
 -24  -2  25    9.00   17.80
  24  -2 -25   67.89   39.70
 -24   2  25   63.89   23.40
  24   2 -25   98.99   43.20
  22  -2 -25   43.20   30.80
 -22  -2  25   51.69   23.60
  22   2 -25   82.79   38.90
 -22   2  25   51.39   20.80
  20  -2 -25   40.10   29.00
 -20  -2  25   87.29   25.10
 -20   2  25   36.90   20.40
  20   2 -25   16.80   30.20
  18  -2 -25    4.90   22.60
 -18  -2  25   31.80   19.60
  18   2 -25    4.20   24.00
 -18   2  25   40.70   23.80
 -16  -2  25   13.10   16.20
  16  -2 -25   25.10   24.70
 -16   2  25    4.90   14.70
  16   2 -25  -11.00   22.10
  14  -2 -25   66.19   34.50
 -14  -2  25    1.60   19.50
  14  -2 -25   18.20   15.40
 -14   2  25   48.40   16.80
  14   2 -25   -0.10   21.10
 -12  -2  25    4.10   16.70
  12  -2 -25   -2.30   12.60
 -12  -2  25  -15.20   19.90
  12  -2 -25   11.30   23.80
 -12   2  25    6.60   13.50
  12   2 -25   28.40   25.60
 -10  -2  25   36.60   18.20
  10  -2 -25   60.09   27.30
 -10  -2  25   43.40   25.00
  10  -2 -25   82.69   18.00
 -10   2  25   36.40   16.40
  10   2 -25   72.99   28.20
  -8  -2  25   24.60   22.40
  -8  -2  25   35.80   17.70
   8  -2 -25   13.30   13.50
   8  -2 -25   10.40   20.60
  -8   2  25    0.20   12.70
   8   2 -25    9.20   14.40
  -8   2  25   50.59   29.60
   8   2 -25   13.80   20.00
  -6  -2  25   50.79   25.20
  -6  -2  25   37.30   18.80
   6  -2 -25   72.99   17.40
   6  -2 -25   93.59   29.90
   6   2 -25   61.49   19.20
  -6   2  25   46.70   15.60
   6   2 -25   59.69   23.70
   4  -2 -25   45.60   24.30
  -4  -2  25   -0.70   16.30
  -4  -2  25   10.80   23.20
  -4   2  25   -0.50   13.80
   4   2 -25    5.80   15.90
   4   2 -25   18.60   19.30
   2  -2 -25   22.00   24.20
  -2  -2  25   -2.20   18.10
  -2   2  25   22.00   14.00
   0  -2 -25   38.80   25.60
   0  -2  25    9.30   19.20
   0  -2 -25   29.00   42.40
   0   2 -25   20.00   16.90
   2  -2  25    8.70   18.70
  -2  -2 -25   24.70   25.00
  -2  -2 -25   22.90   44.80
   2   2  25    6.80   22.40
  -2   2 -25    9.30   13.40
  -2   2 -25   24.50   25.30
  -4  -2 -25   20.90   24.70
   4  -2  25   44.20   25.50
  -4  -2 -25  -26.70   48.00
   4   2  25    5.70   16.20
   4   2  25   19.80   15.00
  -6  -2 -25   11.80   50.89
  -6  -2 -25   14.20   27.50
   6  -2  25   23.40   22.10
   6   2  25   11.70   14.60
   6   2  25   44.00   17.30
 -23  -3  25   24.10   18.80
  23  -3 -25  115.59   43.60
 -23   3  25   25.60   20.10
  23   3 -25    4.30   30.60
 -21  -3  25  246.58   38.90
  21  -3 -25  354.66   55.29
  21   3 -25  340.77   68.59
 -21   3  25  285.87   36.80
 -19  -3  25   20.30   17.60
  19  -3 -25   13.60   25.90
  19   3 -25   35.90   30.80
 -19   3  25   29.30   18.20
  17  -3 -25    0.70   23.20
 -17  -3  25   23.30   18.10
 -17   3  25   42.00   18.90
  17   3 -25   21.50   25.50
  15  -3 -25  163.58   40.80
  15  -3 -25  175.68   26.40
 -15  -3  25  186.88   31.60
  15   3 -25  259.07   74.49
 -15   3  25  216.68   29.00
  13  -3 -25   -3.20   11.60
 -13  -3  25   49.60   19.20
 -13  -3  25   15.20   22.60
  13  -3 -25   35.30   26.90
  13   3 -25   42.60   27.10
 -13   3  25    8.80   14.10
  11  -3 -25  195.38   25.60
  11  -3 -25  283.17   51.09
 -11  -3  25  207.18   36.80
  11   3 -25  264.17   43.00
 -11   3  25  256.67   27.80
   9  -3 -25  -10.40   20.90
   9  -3 -25   31.40   14.00
  -9  -3  25    4.80   20.60
  -9  -3  25   -8.50   14.10
   9   3 -25   37.20   23.10
  -9   3  25   17.80   12.90
   7  -3 -25   48.10   26.00
   7  -3 -25   55.59   15.60
  -7  -3  25   49.40   23.80
  -7  -3  25   31.10   17.80
   7   3 -25   38.90   24.00
  -7   3  25   32.90   14.30
   5  -3 -25  145.29   35.80
  -5  -3  25  188.98   34.10
   5  -3 -25  133.19   20.00
  -5  -3  25  175.18   28.30
  -5   3  25   63.29   15.50
   5   3 -25  120.49   27.70
   3  -3 -25   -7.70   20.10
  -3  -3  25    3.50   18.70
   3   3 -25    6.50   20.60
  -3   3  25   -3.80   10.70
  -1  -3  25  116.39   26.90
   1  -3 -25  126.99   33.70
   1   3 -25  115.59   23.90
  -1   3  25  118.29   16.30
   1  -3  25   13.40   23.20
  -1  -3 -25   29.50   28.10
  -1  -3 -25   33.80   43.50
  -1   3 -25   47.10   19.80
   1   3  25   26.10   11.80
  -1   3 -25   23.30   14.70
   3  -3  25   -8.80   17.40
  -3  -3 -25   30.10   29.90
  -3  -3 -25   -2.90   45.10
   3   3  25   36.00   12.60
   3   3  25    3.60   11.30
   5  -3  25   24.40   20.40
  -5  -3 -25   38.20   29.90
  -5  -3 -25   91.99   64.79
   5   3  25   34.90   13.10
   5   3  25   30.00   11.40
 -22  -4  25    5.90   19.50
  22  -4 -25   -6.50   24.60
  22   4 -25    6.80   30.50
 -22   4  25    7.00   17.10
 -20  -4  25   16.50   20.30
  20  -4 -25   36.80   31.60
 -20   4  25   32.50   19.90
  20   4 -25   48.40   35.10
  18  -4 -25   -6.10   24.40
 -18  -4  25   21.40   17.20
 -18   4  25   74.99   24.10
  18   4 -25   72.29   35.90
  16  -4 -25   -8.70   13.00
  16  -4 -25   -8.50   22.20
 -16  -4  25  -11.80   16.00
 -16   4  25  -14.20   12.30
  16   4 -25   -4.10   25.50
  14  -4 -25   11.50   23.60
 -14  -4  25   16.40   19.90
  14   4 -25   51.19   29.50
 -14   4  25   24.90   16.60
 -12  -4  25   26.30   25.00
 -12  -4  25   72.49   22.40
  12  -4 -25   68.99   29.60
  12  -4 -25   35.70   13.60
  12   4 -25   76.69   29.50
 -12   4  25   64.39   17.50
  10  -4 -25   41.80   14.30
 -10  -4  25   17.80   17.10
  10  -4 -25   23.80   24.70
  10   4 -25   41.40   28.20
 -10   4  25    9.70   12.80
   8  -4 -25    1.70   21.80
  -8  -4  25   18.70   20.40
   8  -4 -25    5.80   12.50
  -8  -4  25   -9.80   15.60
   8   4 -25   -7.00   21.70
  -6  -4  25   38.50   23.40
  -6  -4  25   33.20   19.80
  -6   4  25   23.00   11.70
   6   4 -25   54.49   25.70
  -4  -4  25  -14.40   19.50
   4  -4 -25   16.70   31.00
  -4  -4  25   16.50   18.20
   4   4 -25   56.89   35.70
  -4   4  25   15.80    9.80
  -2  -4  25   52.39   21.70
   2  -4 -25   86.09   35.50
  -2   4  25   36.10    8.90
   2   4 -25   30.20   20.80
   0  -4 -25  -22.30   26.00
   0  -4  25   31.70   19.30
   2  -4  25   14.00   19.70
   4  -4  25  -31.20   18.60
  -4  -4 -25   11.80   32.20
 -21  -5  25    3.40   20.70
  21  -5 -25   50.79   32.90
 -21   5  25   -9.00   14.80
  21   5 -25    7.50   31.10
 -19  -5  25   76.99   24.70
  19  -5 -25   44.40   29.70
  19   5 -25   20.90   35.60
 -19   5  25   43.50   21.10
 -17  -5  25   40.70   22.70
  17  -5 -25   56.89   34.20
 -17   5  25   99.99   22.90
  17   5 -25   66.49   36.50
  15  -5 -25  263.67   47.60
 -15  -5  25  158.48   29.50
  15  -5 -25  219.78   27.80
  15   5 -25  202.58   49.50
 -15   5  25  244.58   29.10
  13  -5 -25   43.70   30.60
 -13  -5  25   30.90   19.50
  13  -5 -25   48.80   16.80
  13   5 -25   41.60   29.90
 -13   5  25   22.90   14.80
 -11  -5  25   54.39   21.50
  11  -5 -25   65.19   30.90
  11  -5 -25   76.19   17.20
 -11  -5  25   63.39   26.90
 -11   5  25   76.49   17.90
  11   5 -25   71.69   31.90
  -9  -5  25    3.50   21.20
   9  -5 -25   12.50   11.20
   9  -5 -25  101.39   36.90
  -9  -5  25  -28.20   13.40
  -9   5  25   18.70   11.80
   9   5 -25  -22.50   20.70
   7  -5 -25   35.70   11.90
   7  -5 -25   18.80   26.10
  -7  -5  25    4.00   19.80
  -7  -5  25   43.50   21.40
  -7   5  25   28.80   10.80
   7   5 -25   10.60   23.80
  -5  -5  25  103.99   26.00
  -5  -5  25  115.99   26.80
   5  -5 -25   60.59   30.50
   5   5 -25   91.69   30.70
  -3  -5  25   36.50   21.10
  -3  -5  25    4.20   18.40
   3  -5 -25  -30.00   22.10
   3   5 -25   -3.60   21.50
  -1  -5  25   80.99   24.80
   1  -5 -25   39.50   31.20
   1  -5  25   15.20   20.20
  -1  -5 -25   43.80   32.20
   3  -5  25   26.10   22.70
  -3  -5 -25   15.80   32.00
  20  -6 -25  127.29   41.10
 -20  -6  25  134.49   32.40
  20   6 -25  128.19   51.59
 -20   6  25   83.99   25.20
 -18  -6  25   26.40   20.10
  18  -6 -25   13.00   22.90
 -18   6  25   -5.80   15.10
  18   6 -25   14.70   34.90
 -16  -6  25   62.69   22.70
  16  -6 -25   69.59   19.40
  16  -6 -25  120.39   38.60
 -16   6  25   75.99   20.50
  16   6 -25   49.10   33.00
  14  -6 -25   -5.30   22.30
  14  -6 -25   20.20   14.60
 -14  -6  25   11.70   16.10
 -14   6  25   10.40   14.10
  14   6 -25   11.60   48.40
 -12  -6  25   23.90   28.80
 -12  -6  25   29.80   18.30
  12  -6 -25   18.10   24.70
  12  -6 -25    2.40   12.10
  12   6 -25   21.90   30.20
 -12   6  25    2.80   12.50
 -10  -6  25   15.10   24.40
 -10  -6  25   -1.80   16.90
  10  -6 -25  -15.20   23.70
  10  -6 -25   18.80   11.10
  10   6 -25   15.20   27.30
 -10   6  25    7.10   11.70
   8  -6 -25    3.90   24.30
  -8  -6  25   54.19   25.80
   8  -6 -25    7.10    9.90
  -8  -6  25   21.20   22.20
   8   6 -25   12.70   25.40
  -6  -6  25   46.30   24.20
  -6  -6  25   47.20   22.40
   6  -6 -25   51.69   32.60
   6   6 -25   38.60   29.80
  -4  -6  25   88.49   25.50
   4  -6 -25  123.09   40.00
   4   6 -25   57.69   25.60
  -2  -6  25    8.40   21.30
   2  -6 -25   -7.00   28.10
   0  -6  25   61.49   23.50
   0  -6 -25    0.30   29.40
  -2  -6 -25    4.50   31.10
   2  -6  25   16.10   21.50
 -17  -7  25   20.60   21.80
  17  -7 -25   21.70   26.60
  17   7 -25   29.40   37.00
  15  -7 -25   99.79   36.70
 -15  -7  25  163.68   33.50
  15  -7 -25   94.19   24.50
  15   7 -25   50.39   37.70
 -13  -7  25   12.50   19.60
  13  -7 -25   -5.40   12.00
  13  -7 -25  -10.60   23.20
 -11  -7  25   -8.90   16.10
  11  -7 -25   -0.40   11.20
  11  -7 -25  -20.90   18.40
 -11  -7  25   63.39   28.70
  11   7 -25  -26.10   26.20
   9  -7 -25   30.50   10.50
  -9  -7  25    3.20   18.10
   9  -7 -25   57.39   35.80
   9   7 -25   33.50   32.00
  -7  -7  25   83.39   26.90
   7  -7 -25  101.19   36.20
  -7  -7  25  127.19   29.90
   7   7 -25  145.19   40.30
  -5  -7  25   52.49   24.70
   5  -7 -25   52.89   33.30
  -5  -7  25   71.29   24.50
  -3  -7  25   13.60   15.50
   3  -7 -25   34.00   33.60
  -3  -7  25   18.90   20.70
  -1  -7  25   -8.80   19.10
   1  -7 -25   14.90   32.30
  14  -8 -25   17.30   15.10
 -14  -8  25    0.70   16.20
  14  -8 -25   -1.80   28.60
  14   8 -25   15.50   38.80
  12  -8 -25   28.60   13.80
  12  -8 -25   42.60   35.40
 -12  -8  25   18.70   21.20
  12   8 -25  -25.40   33.60
  10  -8 -25   -2.70    8.70
 -10  -8  25   57.49   27.90
  10  -8 -25   -8.90   24.30
 -10  -8  25    7.70   18.00
  10   8 -25   90.79   38.60
  -8  -8  25   10.00   25.30
  -8  -8  25  -20.80   17.50
   8  -8 -25   19.40   28.40
   8   8 -25    2.50   29.90
  -6  -8  25   22.70   23.40
  -6  -8  25   50.79   24.50
   6  -8 -25    5.20   30.00
   6   8 -25   36.80   31.50
  -4  -8  25    0.30   18.70
  -4  -8  25   19.30   22.70
   4  -8 -25  -21.80   25.30
 -24   0  26   47.20   21.30
  24   0 -26   87.59   40.10
  22   0 -26  107.19   40.30
 -22   0  26   73.89   24.50
 -20   0  26  113.79   25.80
  20   0 -26  132.89   41.20
 -18   0  26   47.70   21.10
  18   0 -26   49.99   32.20
  16   0 -26  187.88   43.10
 -16   0  26  128.29   29.80
  14   0 -26  108.49   40.60
 -14   0  26  209.18   29.40
  12   0 -26   44.00   17.50
  12   0 -26   26.40   26.40
 -12   0  26    7.70   16.80
  10   0 -26  371.06   35.10
 -10   0  26  354.86   54.69
  10   0 -26  411.66   48.30
 -10   0  26  391.36   36.20
   8   0 -26  128.39   32.80
   8   0 -26  113.19   23.50
  -8   0  26  116.99   37.40
  -8   0  26  114.89   22.90
  -6   0  26  283.97   75.09
   6   0 -26  221.98   32.70
   6   0 -26  333.07   42.70
  -6   0  26  251.87   29.40
   4   0 -26  282.17   40.00
   4   0 -26  290.57   31.20
  -4   0  26  329.47   32.30
   2   0 -26  201.58   35.30
  -2   0  26  144.89   24.00
   0   0  26   43.60   19.10
   0   0 -26   70.19   26.00
   0   0 -26   34.00   40.30
  -2   0 -26  110.59   26.40
  -2   0 -26   53.79   39.90
   2   0  26  136.29   23.60
  -4   0 -26   17.10   20.00
  -4   0 -26   30.90   34.50
   4   0  26    0.40   17.30
  23  -1 -26   -8.40   26.00
 -23  -1  26   -4.90   16.50
 -23   1  26   -4.10   17.30
  23   1 -26   21.70   31.90
 -21  -1  26   28.90   18.30
  21  -1 -26   -2.00   22.20
 -21   1  26  -14.00   14.60
  21   1 -26   56.39   38.10
  19  -1 -26   -4.90   25.50
 -19  -1  26   10.20   18.90
  19   1 -26    4.70   25.80
 -19   1  26   -3.20   16.00
  17  -1 -26   23.50   25.30
 -17  -1  26   37.00   20.70
 -17   1  26  -37.50   12.30
  17   1 -26   -8.50   21.40
  15  -1 -26   20.50   25.80
 -15  -1  26    2.80   16.30
 -15   1  26   29.60   18.30
  15   1 -26  -22.20   19.00
  13  -1 -26   43.40   34.20
  13  -1 -26    4.20   13.90
 -13  -1  26   -2.90   16.10
  13   1 -26  -27.40   18.90
 -13   1  26   -2.00   12.50
  11  -1 -26    0.60   23.10
 -11  -1  26   32.90   25.20
 -11  -1  26    0.40   15.00
  11  -1 -26   37.80   15.80
 -11   1  26   32.50   16.90
  11   1 -26   49.00   24.00
  11   1 -26   39.00   27.40
  -9  -1  26  114.69   23.90
   9  -1 -26  214.58   40.30
   9  -1 -26  177.98   25.00
  -9  -1  26  238.88   42.00
  -9   1  26  175.98   26.40
   9   1 -26  157.58   26.20
  -9   1  26  103.69   37.60
   9   1 -26  129.89   33.50
  -7  -1  26   24.50   28.90
   7  -1 -26    7.30   14.30
  -7  -1  26   10.70   15.40
   7  -1 -26    0.80   21.80
  -7   1  26  -19.30   14.70
   7   1 -26   15.80   16.70
   7   1 -26  -11.70   18.70
  -7   1  26   49.10   31.20
   5  -1 -26   59.29   17.00
  -5  -1  26   97.19   31.80
   5  -1 -26   61.89   26.90
  -5  -1  26   78.09   20.00
   5   1 -26   60.39   24.90
   5   1 -26   15.70   16.20
  -5   1  26   78.79   19.90
  -3  -1  26   29.80   19.30
   3  -1 -26   32.10   25.20
   3   1 -26   23.60   21.50
  -3   1  26   45.00   16.70
   1  -1 -26    7.10   22.40
  -1  -1  26    1.50   16.00
   1   1 -26   29.80   20.90
  -1   1  26   -8.10   13.30
   1  -1  26  -12.50   16.50
  -1  -1 -26  -18.60   40.50
  -1  -1 -26    6.20   21.90
  -1   1 -26    0.00   34.00
   1   1  26   13.90   16.30
   3  -1  26   12.00   19.60
  -3  -1 -26   13.50   22.50
  -3  -1 -26   58.79   42.30
   3   1  26  -26.60   14.00
  -3   1 -26    0.30   16.20
  -5  -1 -26  -17.10   20.30
   5  -1  26    1.30   18.10
  -5  -1 -26    0.50   36.70
   5   1  26    6.90   16.20
   5   1  26   14.20   19.30
  -5   1 -26    7.90   21.10
  -5   1 -26    9.20   14.10
 -22  -2  26    7.60   18.30
  22  -2 -26  -17.40   26.50
  22   2 -26  -12.70   24.20
 -22   2  26  -14.30   14.00
 -20  -2  26   69.89   24.10
  20  -2 -26   65.49   31.70
 -20   2  26   34.30   21.50
  20   2 -26   75.29   36.90
 -18  -2  26   93.49   25.10
  18  -2 -26  168.68   45.50
 -18   2  26   78.19   23.20
  18   2 -26   92.09   35.60
 -16  -2  26   18.00   18.00
  16  -2 -26  -20.60   21.80
 -16   2  26   47.70   18.70
  16   2 -26   36.90   30.00
  14  -2 -26   68.79   18.70
  14  -2 -26   80.89   35.00
 -14  -2  26   41.70   19.60
  14   2 -26  115.49   38.30
 -14   2  26   64.99   19.60
 -12  -2  26   45.40   26.50
  12  -2 -26   94.09   32.60
 -12   2  26  100.29   21.60
  12   2 -26    3.20   22.20
  10  -2 -26   10.70   15.00
 -10  -2  26    1.40   19.30
  10  -2 -26   19.90   24.70
 -10  -2  26   18.50   17.50
  10   2 -26   43.50   24.40
 -10   2  26   29.10   16.60
   8  -2 -26  281.17   28.60
  -8  -2  26  254.47   42.00
  -8  -2  26  245.98   31.80
   8  -2 -26  326.57   45.00
   8   2 -26  283.97   41.10
  -8   2  26  278.97   28.50
  -6  -2  26   35.50   19.20
   6  -2 -26   -4.20   21.70
  -6  -2  26   12.30   24.50
   6  -2 -26   28.30   14.90
   6   2 -26   14.30   19.90
  -6   2  26   33.40   14.90
  -4  -2  26  -37.70   15.30
   4  -2 -26   30.90   24.60
  -4   2  26   32.70   14.50
   4   2 -26   14.90   21.50
  -2  -2  26   91.79   23.00
   2  -2 -26  102.49   30.20
   2   2 -26   82.09   23.40
  -2   2  26  105.39   19.70
   0  -2 -26   35.40   25.70
   0  -2  26  -17.90   18.00
   0  -2 -26   17.50   42.50
   0   2  26   33.80   15.00
   0   2 -26  -11.80   15.10
   0   2 -26  -16.10   47.30
  -2  -2 -26   57.89   52.69
   2  -2  26  124.89   28.10
  -2  -2 -26  113.29   33.10
  -2   2 -26  144.29   30.80
   2   2  26  110.79   19.60
  -2   2 -26   67.69   18.20
  -4  -2 -26   42.80   28.90
  -4  -2 -26   26.60   46.40
   4  -2  26    3.80   18.40
   4   2  26   12.80   14.90
   4   2  26   24.90   17.20
 -23  -3  26   51.89   24.60
  23  -3 -26   24.00   30.40
  23   3 -26   72.19   41.20
 -23   3  26  130.59   28.60
 -21  -3  26   13.30   19.40
  21  -3 -26   -9.80   19.50
 -21   3  26    6.80   16.30
  21   3 -26    3.20   29.50
 -19  -3  26    1.90   19.00
  19  -3 -26   26.70   31.40
  19   3 -26   44.40   34.10
 -19   3  26   18.90   17.40
 -17  -3  26    2.40   15.60
  17  -3 -26  -25.00   19.70
  17   3 -26   33.00   29.70
 -17   3  26   31.00   18.90
  15  -3 -26    6.20   15.20
  15  -3 -26   35.20   28.60
 -15  -3  26   18.10   17.30
  15   3 -26   -5.70   23.10
 -15   3  26   52.09   18.70
  13  -3 -26    1.80   22.10
 -13  -3  26  -20.60   15.40
 -13   3  26   -2.90   13.70
  13   3 -26   -1.30   22.40
  11  -3 -26   46.90   27.80
 -11  -3  26   69.69   28.60
 -11  -3  26   -4.20   15.90
  11  -3 -26   14.60   14.10
  11   3 -26  -26.10   19.90
 -11   3  26  -11.20   11.50
  -9  -3  26  -36.00   23.30
   9  -3 -26   30.90   15.90
   9  -3 -26   42.00   26.80
  -9  -3  26   47.50   22.70
  -9   3  26   11.50   13.60
   9   3 -26   25.60   22.40
   7  -3 -26   26.80   28.00
  -7  -3  26   58.49   29.00
   7  -3 -26   44.20   14.80
   7   3 -26   63.69   24.70
  -7   3  26   57.59   15.50
  -5  -3  26  -23.00   18.50
   5  -3 -26    7.50   22.80
   5   3 -26  -16.50   18.90
   3  -3 -26   18.50   23.10
  -3   3  26   43.90   13.20
  -1  -3  26   29.90   21.00
   1  -3 -26    3.30   24.80
   1   3 -26   40.20   19.10
  -1   3  26   16.70   11.90
  -1  -3 -26   25.60   29.10
   1  -3  26   99.69   25.70
   1   3  26   35.60   12.30
   3  -3  26   18.10   20.00
  -3  -3 -26   10.30   28.90
   3   3  26   20.80   12.30
   3   3  26    6.20   10.70
  22  -4 -26  -10.90   25.50
 -22  -4  26    9.70   19.70
 -22   4  26   20.70   19.00
  22   4 -26   23.30   31.70
  20  -4 -26  -27.00   21.20
 -20  -4  26   40.40   23.10
 -20   4  26   -3.80   16.40
  20   4 -26  -13.60   26.70
 -18  -4  26   28.90   22.40
  18  -4 -26   -5.30   28.50
  18   4 -26   26.60   34.50
 -16  -4  26   24.00   19.10
  16  -4 -26   -0.30   14.00
  16  -4 -26   22.50   27.60
  16   4 -26   36.30   30.60
 -16   4  26   -4.00   14.10
  14  -4 -26  120.29   37.70
  14  -4 -26   70.19   19.70
 -14  -4  26   94.39   24.90
  14   4 -26   75.39   36.50
 -14   4  26  117.79   22.60
  12  -4 -26  118.69   20.80
 -12  -4  26  248.58   33.20
  12  -4 -26  137.29   40.10
 -12  -4  26   88.99   31.30
 -12   4  26  146.59   22.90
  12   4 -26   96.79   34.20
  10  -4 -26   62.39   17.70
 -10  -4  26   36.00   19.80
  10  -4 -26   46.70   28.20
 -10  -4  26   91.19   30.40
 -10   4  26   67.79   17.70
  10   4 -26   83.09   31.30
   8  -4 -26  179.48   22.30
   8  -4 -26  198.98   42.00
  -8  -4  26  223.48   32.30
  -8  -4  26  117.49   31.50
   8   4 -26  157.28   38.10
  -8   4  26  128.49   23.30
  -6  -4  26   26.30   18.10
  -6  -4  26   13.90   22.60
   6  -4 -26   -4.70   23.80
   6   4 -26   18.00   22.40
  -6   4  26   20.10   11.50
  -4  -4  26   40.00   26.60
  -4  -4  26   -2.00   18.70
   4  -4 -26    3.00   26.50
  -4   4  26   11.40    9.70
  -2  -4  26    3.40   18.40
   2  -4 -26   44.60   31.80
  -2   4  26   22.90    8.30
   2   4 -26   31.30   21.40
   0  -4 -26   48.70   34.10
   0  -4  26   36.20   22.20
  -2  -4 -26   36.20   33.00
   2  -4  26   30.80   22.30
 -19  -5  26   -8.90   16.70
  19  -5 -26   10.10   27.30
 -19   5  26    6.40   16.50
  19   5 -26   38.70   35.80
 -17  -5  26    4.80   18.00
  17  -5 -26   10.20   26.50
 -17   5  26   31.80   16.70
  17   5 -26   36.30   33.90
  15  -5 -26   17.30   14.70
  15  -5 -26   19.70   24.20
 -15  -5  26   -2.60   16.50
  15   5 -26   30.20   29.40
 -15   5  26   16.80   15.50
 -13  -5  26    8.70   16.80
  13  -5 -26    6.50   24.30
  13  -5 -26   -5.40   12.10
  13   5 -26    6.00   27.80
 -13   5  26   18.70   14.40
  11  -5 -26   25.30   13.30
  11  -5 -26  -29.20   17.40
 -11  -5  26   24.80   22.30
 -11  -5  26  -12.90   13.80
  11   5 -26   16.20   26.00
 -11   5  26  -12.30   11.10
   9  -5 -26   88.99   16.60
   9  -5 -26   43.60   29.80
  -9  -5  26  100.09   29.80
  -9  -5  26   82.79   25.00
   9   5 -26   29.60   28.90
  -9   5  26   78.39   19.00
   7  -5 -26  -19.90   21.60
   7  -5 -26   15.10   11.20
  -7  -5  26   33.20   24.60
  -7  -5  26    8.80   18.60
  -7   5  26   20.00    9.50
   7   5 -26   54.99   30.10
  -5  -5  26   24.40   21.60
  -5  -5  26   48.30   23.40
   5  -5 -26   26.80   29.40
   5   5 -26   16.40   23.30
   3  -5 -26   27.50   29.50
  -3  -5  26   -8.80   18.20
   3   5 -26   36.70   23.10
   1  -5 -26   18.80   29.90
  -1  -5  26   -4.40   20.10
   1  -5  26    3.80   18.90
  -1  -5 -26  -13.70   27.80
  18  -6 -26  -11.20   22.90
 -18  -6  26  -27.60   14.50
  18   6 -26  -18.00   29.90
  16  -6 -26    2.90   26.10
 -16  -6  26   -5.20   17.40
  16  -6 -26  -13.00   14.00
  16   6 -26   32.60   34.50
 -16   6  26   20.20   17.10
  14  -6 -26   39.40   16.80
 -14  -6  26   65.19   22.30
  14  -6 -26   51.19   31.40
 -14   6  26   52.29   18.30
  14   6 -26    9.00   31.10
  12  -6 -26   77.49   36.40
 -12  -6  26   62.89   22.50
  12  -6 -26   52.89   16.90
  12   6 -26   43.00   31.00
 -12   6  26  142.79   21.70
 -10  -6  26   68.09   25.20
  10  -6 -26   88.69   15.90
 -10  -6  26   83.99   29.40
  10  -6 -26   89.29   36.60
 -10   6  26   54.29   15.90
  10   6 -26   88.49   36.40
   8  -6 -26  -16.10   22.20
  -8  -6  26    3.10   22.80
  -8  -6  26    9.90   19.50
   8  -6 -26   20.90   10.00
   8   6 -26   11.20   28.00
  -6  -6  26   33.70   20.80
   6  -6 -26   -1.60   26.10
  -6  -6  26   29.00   23.10
   6   6 -26   23.80   27.90
  -4  -6  26   34.30   23.30
   4  -6 -26   98.19   37.80
   4   6 -26   20.20   23.90
   2  -6 -26   12.20   29.30
  -2  -6  26   42.20   22.50
   0  -6 -26   34.90   33.60
   0  -6  26   -5.20   19.30
 -15  -7  26   29.70   23.60
  15  -7 -26   15.60   18.40
  15  -7 -26  -28.50   23.80
  15   7 -26    6.70   33.80
  13  -7 -26   67.19   31.90
 -13  -7  26   55.09   23.00
  13  -7 -26  108.99   20.50
  13   7 -26  113.69   51.19
  11  -7 -26   12.20   26.20
  11  -7 -26   17.20   12.80
 -11  -7  26   72.89   32.60
 -11  -7  26   -6.10   17.00
  11   7 -26   14.40   33.50
   9  -7 -26   31.90   10.60
   9  -7 -26  -32.50   21.90
  -9  -7  26   56.89   23.70
   9   7 -26   12.70   33.80
  -7  -7  26    7.90   20.70
  -7  -7  26   42.50   24.80
   7  -7 -26   10.00   28.80
   7   7 -26  -19.80   25.90
  -5  -7  26   11.70   21.10
   5  -7 -26    6.50   29.20
  -5  -7  26   -3.10   20.60
   5   7 -26   52.29   35.00
   3  -7 -26   24.70   30.60
  -3  -7  26   -3.10   19.80
  22   0 -27   -4.30   24.10
 -22   0  27   -3.90   16.70
 -20   0  27   11.30   17.40
  20   0 -27   26.50   27.80
  18   0 -27   17.40   25.70
 -18   0  27  -21.40   14.30
 -16   0  27    1.30   16.50
  16   0 -27  -15.30   22.70
 -14   0  27  -18.40   15.40
  14   0 -27  -13.10   20.60
 -12   0  27    7.60   16.10
  12   0 -27   16.10   25.40
  12   0 -27  -14.30   22.00
  10   0 -27   19.10   16.00
  10   0 -27  -10.80   19.50
 -10   0  27    2.60   16.90
  -8   0  27  -10.00   23.40
   8   0 -27  -12.20   14.00
   8   0 -27   15.50   23.40
  -8   0  27   -3.90   15.00
   6   0 -27  -11.00   13.90
  -6   0  27   54.49   18.80
  -6   0  27   28.00   28.30
   6   0 -27    2.50   21.90
   4   0 -27   -4.90   19.70
  -4   0  27   14.40   15.00
   2   0 -27   13.90   22.40
  -2   0  27   -3.80   16.30
   0   0 -27   38.80   22.90
   0   0  27  -11.50   16.30
   0   0 -27    1.10   38.70
  -2   0 -27    2.90   19.50
  -2   0 -27   46.80   38.80
   2   0  27   13.10   17.20
  23  -1 -27  -17.00   26.30
 -23  -1  27  -15.40   16.60
  23   1 -27  -13.50   24.40
 -23   1  27    9.60   17.60
  21  -1 -27  427.16   73.39
 -21  -1  27  248.78   36.00
  21   1 -27  203.68   50.59
 -21   1  27  251.27   37.60
  19  -1 -27   29.50   26.80
 -19  -1  27   54.59   22.30
  19   1 -27   87.79   36.70
 -19   1  27   62.09   23.40
  17  -1 -27  132.79   39.90
 -17  -1  27  141.39   28.20
 -17   1  27  208.58   30.50
  17   1 -27  115.19   38.30
 -15  -1  27  360.96   38.30
  15  -1 -27  332.47   50.59
  15   1 -27  371.46   52.99
 -15   1  27  370.86   37.30
  13  -1 -27  157.58   38.00
  13  -1 -27  150.78   25.30
  13   1 -27  103.09   39.50
 -13   1  27  153.88   26.70
 -11  -1  27  188.28   29.40
  11  -1 -27  158.78   48.20
  11  -1 -27  166.08   26.60
 -11   1  27  146.09   25.70
  11   1 -27  218.38   43.70
   9  -1 -27   32.60   28.80
  -9  -1  27   11.10   26.60
  -9  -1  27   26.10   17.30
   9  -1 -27   15.30   29.20
   9   1 -27   27.80   24.10
  -9   1  27   30.90   16.70
   9   1 -27   66.19   27.50
   7  -1 -27   42.50   16.80
   7  -1 -27   53.19   26.30
  -7  -1  27   47.90   20.10
   7   1 -27   14.00   21.10
   7   1 -27   48.50   19.10
  -7   1  27   26.30   16.20
  -7   1  27   66.69   35.70
   5  -1 -27   12.80   22.40
   5  -1 -27    8.90   15.70
  -5  -1  27    1.30   16.20
   5   1 -27  -16.00   14.30
   5   1 -27   28.40   22.10
  -5   1  27   -6.70   15.30
   3  -1 -27   48.20   26.20
  -3  -1  27   -6.60   16.80
  -3   1  27   51.29   17.90
   3   1 -27   22.20   22.20
  -1  -1  27   43.10   20.10
   1  -1 -27   22.80   25.70
   1   1 -27   48.30   21.70
  -1   1  27   73.69   19.60
   1  -1  27   11.20   18.40
  -1  -1 -27  117.59   31.80
  -1  -1 -27   55.69   48.40
   1   1  27   12.60   16.50
  -1   1 -27  -13.60   33.90
  -1   1 -27   43.50   25.50
   3  -1  27   33.40   20.00
  -3  -1 -27   41.00   24.70
  -3  -1 -27   55.89   49.40
   3   1  27   36.10   18.10
  -3   1 -27   43.20   18.80
  22  -2 -27  -14.10   26.20
 -22  -2  27   35.20   21.40
  22   2 -27    4.30   33.00
 -22   2  27    5.90   19.00
  20  -2 -27   37.90   30.90
 -20  -2  27   32.50   19.50
  20   2 -27   26.50   30.40
 -20   2  27  121.69   28.20
 -18  -2  27    1.20   15.90
  18  -2 -27  -11.40   23.10
  18   2 -27   35.80   29.30
 -18   2  27   -7.40   13.80
 -16  -2  27   40.70   19.60
  16  -2 -27   41.30   30.20
 -16   2  27   -0.10   14.80
  16   2 -27   -2.70   24.80
  14  -2 -27   32.20   26.90
  14  -2 -27   15.00   15.30
 -14  -2  27   -1.20   15.40
 -14   2  27    0.30   14.70
  14   2 -27   39.80   38.40
  12  -2 -27  125.89   23.00
  12  -2 -27  152.18   37.50
 -12  -2  27   47.10   21.20
  12   2 -27  102.89   33.80
 -12   2  27   46.70   17.60
  10  -2 -27   -4.30   23.30
 -10  -2  27    3.00   23.70
  10  -2 -27   30.90   16.70
 -10   2  27   36.30   16.00
  10   2 -27   -0.70   22.50
   8  -2 -27    5.60   13.40
   8  -2 -27   -9.70   22.40
  -8  -2  27   -6.00   15.30
  -8   2  27  -15.90   13.60
   8   2 -27   42.30   26.50
   6  -2 -27   13.70   23.00
  -6  -2  27    0.30   16.30
  -6  -2  27   -4.10   23.00
   6  -2 -27    2.90   13.70
   6   2 -27   23.50   21.40
  -6   2  27    7.10   14.40
  -4  -2  27  -14.50   15.60
   4  -2 -27   14.60   22.80
  -4   2  27   -2.90   14.40
   4   2 -27   -1.10   18.70
  -2  -2  27   24.90   19.40
   2  -2 -27    6.50   23.80
  -2   2  27    0.20   13.20
   2   2 -27  -12.90   16.80
   0  -2 -27   93.89   53.29
   0  -2 -27   48.60   28.80
   0   2 -27   10.50   39.10
   0   2  27   31.20   15.10
   0   2 -27   32.40   18.90
  -2  -2 -27  -22.50   46.90
   2  -2  27   22.40   21.30
  -2  -2 -27    1.70   23.50
  -2   2 -27   36.90   24.60
   2   2  27   20.80   14.20
  -2   2 -27   47.00   17.10
 -21  -3  27   64.69   22.50
  21  -3 -27  157.98   45.60
 -21   3  27  122.39   27.30
  21   3 -27  182.68   54.09
  19  -3 -27  -11.20   22.60
 -19  -3  27   12.90   19.30
  19   3 -27   -0.40   27.40
 -19   3  27   -3.30   16.70
  17  -3 -27  -14.60   23.60
 -17  -3  27   14.90   19.30
  17   3 -27   31.50   29.90
 -17   3  27   10.80   19.20
  15  -3 -27   37.10   18.60
  15  -3 -27   43.80   33.00
 -15  -3  27   99.99   25.10
 -15   3  27   33.70   18.70
  15   3 -27   11.20   25.80
  13  -3 -27    4.70   22.30
 -13  -3  27    8.90   17.40
  13  -3 -27   47.20   17.70
  13   3 -27  -23.70   22.00
 -13   3  27   16.50   15.00
  11  -3 -27  343.37   32.10
 -11  -3  27  365.96   37.60
 -11  -3  27  228.18   42.30
  11  -3 -27  360.36   49.60
  11   3 -27  330.27   50.09
 -11   3  27  318.97   32.00
  -9  -3  27   63.09   28.50
   9  -3 -27   44.30   27.70
   9  -3 -27   12.30   15.00
  -9  -3  27   -5.70   16.60
   9   3 -27   15.40   25.00
  -9   3  27   17.10   13.70
   7  -3 -27   42.10   28.20
  -7  -3  27  146.99   27.50
   7  -3 -27   89.49   18.70
  -7  -3  27   82.29   30.20
  -7   3  27   99.79   19.00
   7   3 -27   94.59   30.70
  -5  -3  27   20.80   26.80
  -5  -3  27   58.09   22.70
   5   3 -27   34.20   23.90
  -5   3  27   11.10   16.60
  -3  -3  27   31.30   19.80
   3  -3 -27   -4.40   25.50
  -3   3  27   30.40   13.10
   3   3 -27   -4.60   22.60
   1  -3 -27    0.70   22.80
  -1  -3  27   31.80   22.70
   1   3 -27   48.40   20.90
  -1   3  27   17.10   12.20
  -1  -3 -27   -1.90   26.70
   1  -3  27   23.90   22.00
   1   3  27   30.70   12.20
  20  -4 -27    7.00   27.30
 -20  -4  27   31.70   23.30
 -20   4  27   47.60   21.40
  20   4 -27   12.20   30.00
  18  -4 -27    8.40   26.70
 -18  -4  27   -7.00   16.60
  18   4 -27  -12.30   25.80
 -18   4  27  -10.60   14.60
 -16  -4  27  -14.60   15.70
  16  -4 -27   18.60   26.50
 -16   4  27   -8.60   12.90
  16   4 -27   12.90   29.50
  14  -4 -27    8.70   14.40
  14  -4 -27   21.60   27.40
 -14  -4  27    1.40   16.90
 -14   4  27  -11.60   13.60
  14   4 -27   -3.80   26.20
  12  -4 -27   -8.90   22.10
  12  -4 -27    1.80   13.30
 -12  -4  27   42.80   20.10
  12   4 -27   29.50   28.40
 -12   4  27   -7.50   13.00
 -10  -4  27   49.80   28.10
 -10  -4  27   18.80   19.30
  10  -4 -27   21.00   14.40
  10  -4 -27   -0.10   24.40
  10   4 -27   10.20   25.70
 -10   4  27    1.40   13.40
   8  -4 -27   -1.90   11.60
  -8  -4  27   24.40   24.80
  -8  -4  27   -1.50   16.90
   8  -4 -27   10.40   25.90
   8   4 -27   -6.10   24.50
  -8   4  27    0.40   12.00
   6  -4 -27   -0.10   25.40
  -6  -4  27   41.10   20.60
  -6  -4  27   59.49   27.40
   6   4 -27   56.89   26.50
  -6   4  27    4.40   10.10
   4  -4 -27    2.30   25.00
  -4  -4  27   -0.60   19.90
  -4   4  27   12.30    9.80
  -2  -4  27   12.00   21.90
   2  -4 -27   44.10   33.00
   2   4 -27   17.40   19.90
   0  -4  27   60.89   24.70
   0  -4 -27   20.30   28.70
 -19  -5  27   27.50   20.80
  19  -5 -27   -0.30   25.30
 -19   5  27   17.60   16.70
  19   5 -27    1.50   28.80
  17  -5 -27   22.20   26.30
 -17  -5  27   28.00   18.60
  17   5 -27  -12.20   28.70
 -17   5  27   19.10   17.20
 -15  -5  27   65.59   22.50
  15  -5 -27   77.09   33.90
  15  -5 -27   37.50   17.30
  15   5 -27   50.79   36.30
 -15   5  27   30.70   16.30
 -13  -5  27    4.50   19.00
  13  -5 -27   16.10   15.20
  13  -5 -27    1.80   24.10
  13   5 -27   11.30   30.60
 -13   5  27   17.00   14.30
  11  -5 -27   42.20   15.20
 -11  -5  27    6.70   22.00
 -11  -5  27  -13.30   16.50
  11  -5 -27   30.80   28.40
 -11   5  27   21.00   13.50
  11   5 -27    6.00   28.00
   9  -5 -27   19.20   13.40
   9  -5 -27  -23.30   21.30
  -9  -5  27   44.20   21.70
   9   5 -27   69.29   32.60
  -7  -5  27  125.49   32.30
  -7  -5  27  151.98   31.00
   7  -5 -27  148.79   38.30
  -7   5  27  183.48   19.50
   7   5 -27  147.19   37.50
  -5  -5  27  132.69   30.70
  -5  -5  27   45.30   23.30
   5  -5 -27   86.79   37.80
   5   5 -27  113.79   33.10
   3  -5 -27   68.69   33.80
  -3  -5  27   35.70   22.70
   3   5 -27   62.39   25.30
   1  -5 -27   45.00   33.60
  -1  -5  27   16.40   20.50
  16  -6 -27   47.70   32.50
  16  -6 -27   47.70   19.20
 -16  -6  27   34.00   22.90
 -16   6  27   49.10   18.60
  16   6 -27   52.49   37.40
  14  -6 -27   14.80   15.40
 -14  -6  27    0.00   16.90
  14  -6 -27    5.70   27.80
  14   6 -27   13.10   30.60
 -14   6  27   -0.80   15.30
  12  -6 -27    9.40   26.60
  12  -6 -27   27.20   14.70
 -12  -6  27    4.60   18.70
  12   6 -27   38.30   33.80
 -12   6  27  -16.30   11.20
  10  -6 -27  197.88   49.10
 -10  -6  27   95.29   26.40
 -10  -6  27   96.09   31.90
  10  -6 -27  172.78   21.40
  10   6 -27   91.49   39.00
  -8  -6  27   -6.00   18.00
  -8  -6  27   36.10   25.70
   8  -6 -27   22.60   10.80
   8  -6 -27   42.90   31.00
   8   6 -27  -13.90   27.40
  -6  -6  27   55.59   26.60
   6  -6 -27   59.89   33.70
  -6  -6  27   36.30   22.10
   6   6 -27   47.70   32.60
  -4  -6  27   -7.50   19.10
  -4  -6  27   51.19   33.40
   4  -6 -27  -36.20   22.80
   4   6 -27   20.20   24.10
  -2  -6  27  -25.30   19.50
  13  -7 -27   15.20   26.70
 -13  -7  27   -5.30   18.60
  13  -7 -27   18.20   14.30
  13   7 -27  -15.70   32.30
  11  -7 -27   71.99   40.00
  11  -7 -27   63.29   15.60
 -11  -7  27   23.00   19.00
  11   7 -27   33.60   36.90
  -9  -7  27   37.50   28.90
   9  -7 -27   37.50   32.50
  -9  -7  27    5.70   19.30
   9   7 -27   16.00   33.60
  -7  -7  27   35.90   25.00
   7  -7 -27   48.00   34.30
  -7  -7  27  -25.50   16.70
   7   7 -27   31.70   33.90
 -22   0  28   66.69   24.60
  22   0 -28   90.59   38.90
  20   0 -28    6.80   25.90
 -20   0  28   -1.40   17.90
  18   0 -28   -8.50   24.20
 -18   0  28   28.40   20.50
  16   0 -28   86.79   34.00
 -16   0  28   93.59   23.60
  14   0 -28   59.89   31.00
 -14   0  28   90.09   34.40
  12   0 -28  113.09   36.80
 -12   0  28  165.18   28.00
  10   0 -28  353.06   37.60
 -10   0  28  409.06   37.40
  10   0 -28  331.07   48.10
   8   0 -28  126.09   34.10
  -8   0  28  202.18   45.80
  -8   0  28  140.89   26.30
   8   0 -28  124.69   24.80
   6   0 -28   89.49   29.30
   6   0 -28   79.49   20.60
  -6   0  28  105.89   22.70
  -4   0  28   38.40   17.70
   4   0 -28   56.89   26.80
  -2   0  28    3.60   17.60
   2   0 -28   31.80   23.70
   0   0  28    3.20   18.60
   0   0 -28   31.80   45.30
   0   0 -28   -4.40   20.20
  -2   0 -28   23.80   22.40
  -2   0 -28   14.30   40.80
   2   0  28   49.99   21.80
  21  -1 -28   41.20   32.40
 -21  -1  28   19.60   17.80
 -21   1  28   23.00   19.00
  21   1 -28   12.30   27.60
 -19  -1  28   13.80   20.30
  19  -1 -28  -15.80   21.90
 -19   1  28   10.20   18.30
  19   1 -28  -21.30   25.80
 -17  -1  28   31.30   19.90
  17  -1 -28   95.09   33.40
  17   1 -28   88.29   33.90
 -17   1  28   76.39   23.10
 -15  -1  28   -1.20   16.00
  15  -1 -28    1.70   21.50
  15   1 -28   29.20   26.30
 -13  -1  28   -0.90   17.80
  13  -1 -28    5.80   24.80
  13   1 -28   13.40   27.10
 -13   1  28  -10.10   14.00
 -11  -1  28   41.00   24.00
  11  -1 -28   14.50   17.00
  11  -1 -28  -24.70   21.40
  11   1 -28   -5.60   22.40
 -11   1  28  -17.20   13.40
   9  -1 -28   14.10   16.40
  -9  -1  28   33.90   31.10
  -9  -1  28  -10.10   17.20
   9  -1 -28   20.80   26.50
  -9   1  28   17.90   15.70
   9   1 -28   45.30   29.50
   7  -1 -28   10.60   26.70
  -7  -1  28   14.00   30.30
   7  -1 -28   40.20   27.40
  -7  -1  28   57.59   20.20
   7   1 -28   45.20   25.30
  -7   1  28   47.20   18.30
   5  -1 -28    1.20   23.50
  -5  -1  28   29.90   17.50
  -5   1  28    1.80   15.30
   5   1 -28   11.90   21.40
  -3  -1  28   36.40   19.30
   3  -1 -28   31.90   26.50
   3   1 -28   18.80   21.90
  -3   1  28   -7.40   14.80
   1  -1 -28   27.10   24.60
  -1  -1  28   -8.20   18.50
  -1   1  28   -3.90   15.20
   1   1 -28   -2.60   20.20
   1  -1  28   51.59   22.20
  -1  -1 -28   42.40   27.10
  -1   1 -28   35.30   22.40
  -1   1 -28   -9.70   36.30
   1   1  28   16.10   17.30
  20  -2 -28  148.59   40.40
 -20  -2  28   79.69   25.90
 -20   2  28  135.69   29.00
  20   2 -28   74.59   39.40
  18  -2 -28   19.60   27.80
 -18  -2  28   47.00   21.90
  18   2 -28   21.40   28.00
 -18   2  28   21.50   18.70
  16  -2 -28  -10.50   21.40
 -16  -2  28  -11.00   16.80
  16   2 -28   10.50   24.90
  14  -2 -28  108.49   35.10
  14  -2 -28  129.09   31.30
 -14  -2  28  140.19   27.70
  14   2 -28  104.79   35.80
 -14   2  28  168.38   26.90
  12  -2 -28   -1.30   26.20
  12  -2 -28    6.10   14.60
 -12  -2  28   25.90   18.30
 -12   2  28   30.30   16.70
  12   2 -28   20.00   25.70
 -10  -2  28  119.29   37.60
 -10  -2  28  131.09   26.30
  10  -2 -28  102.89   33.30
  10  -2 -28  119.99   36.90
  10   2 -28   62.29   28.50
 -10   2  28  120.09   23.10
  -8  -2  28  400.46   42.00
  -8  -2  28  288.87   47.30
   8  -2 -28  342.47   56.39
   8  -2 -28  283.47   30.80
   8   2 -28  238.58   43.10
  -8   2  28  306.67   31.40
   6  -2 -28  -17.00   21.60
  -6  -2  28   11.80   27.60
   6  -2 -28   58.29   17.90
   6   2 -28  -18.70   19.60
  -6   2  28   16.00   15.40
   4  -2 -28   22.90   24.60
  -4   2  28   55.59   17.20
   4   2 -28   66.99   26.10
   2  -2 -28    2.50   24.60
  -2  -2  28    9.30   21.10
  -2   2  28    9.20   15.00
   2   2 -28   21.40   20.50
   0  -2 -28    8.10   54.09
   0  -2 -28   30.30   25.80
   0  -2  28   -4.50   18.90
   0   2 -28   20.60   18.30
   0   2 -28   -0.30   40.70
   0   2  28   13.20   14.40
 -19  -3  28   -8.60   17.20
  19  -3 -28   66.69   35.50
 -19   3  28   -6.20   14.90
  19   3 -28  -37.60   24.70
 -17  -3  28  -41.80   15.40
  17  -3 -28   24.80   30.20
 -17   3  28   57.59   24.80
  17   3 -28   45.10   33.20
  15  -3 -28   44.20   31.30
 -15  -3  28   27.50   20.50
 -15   3  28  -16.90   12.70
  15   3 -28    5.60   26.20
  13  -3 -28   -2.40   15.90
  13  -3 -28   -1.10   27.60
 -13  -3  28   22.00   18.40
 -13   3  28   16.40   15.60
  11  -3 -28  -10.30   23.70
  11  -3 -28   -3.90   14.60
 -11  -3  28  -20.60   13.70
 -11  -3  28   21.80   30.70
  11   3 -28   -1.20   21.90
 -11   3  28   -3.30   13.40
   9  -3 -28   64.89   31.30
   9  -3 -28   86.19   19.10
  -9  -3  28   48.90   21.20
  -9  -3  28   83.79   32.70
  -9   3  28  100.09   19.70
   9   3 -28   46.80   28.60
  -7  -3  28  -23.10   15.50
   7  -3 -28   33.00   15.30
   7  -3 -28  -23.70   22.30
  -7  -3  28    4.90   23.90
  -7   3  28   13.60   13.30
   7   3 -28    1.90   22.50
   5  -3 -28   50.09   30.50
  -5  -3  28   44.50   29.80
  -5  -3  28  -12.20   18.60
   5   3 -28   16.10   22.60
  -5   3  28   22.80   14.30
   3  -3 -28   29.60   28.80
  -3  -3  28   19.40   21.00
  -3   3  28   20.10   13.50
   3   3 -28   28.30   21.10
  -1  -3  28    9.90   19.10
   1  -3 -28    4.80   35.20
   1   3 -28   15.80   18.70
  -1   3  28   12.90   11.50
  18  -4 -28   88.09   37.70
 -18  -4  28   79.39   27.60
  18   4 -28   37.70   33.20
 -18   4  28   42.20   20.50
 -16  -4  28   70.69   24.70
  16  -4 -28   44.90   34.20
 -16   4  28   74.39   20.90
  16   4 -28   75.49   36.60
  14  -4 -28  231.58   50.99
 -14  -4  28  181.28   33.80
  14  -4 -28  117.69   23.40
  14   4 -28  178.58   42.80
 -14   4  28  149.59   25.00
 -12  -4  28    1.80   16.50
  12  -4 -28    8.30   24.40
  12  -4 -28   -2.50   13.70
  12   4 -28    0.60   27.90
 -12   4  28  -14.70   12.80
  10  -4 -28   31.50   28.60
 -10  -4  28    7.30   26.10
  10  -4 -28   23.90   15.80
 -10  -4  28   23.20   20.70
  10   4 -28   -8.10   26.00
 -10   4  28   45.10   16.90
  -8  -4  28   33.10   22.40
  -8  -4  28   31.10   25.30
   8  -4 -28   36.30   27.40
   8  -4 -28   70.39   16.50
  -8   4  28   89.79   17.90
   8   4 -28   31.30   29.80
  -6  -4  28   -7.90   22.80
   6  -4 -28    7.80   27.80
  -6  -4  28   24.00   21.30
   6   4 -28    2.50   23.20
  -6   4  28   41.00   13.30
  -4  -4  28   25.40   21.30
   4  -4 -28   68.99   32.30
  -4   4  28   67.29   12.80
  -2  -4  28   24.20   23.20
   2  -4 -28  -16.00   25.20
   2   4 -28   56.09   22.70
  17  -5 -28   17.10   25.30
 -17  -5  28    3.30   18.30
 -17   5  28   39.60   19.80
  17   5 -28   41.90   37.70
 -15  -5  28  -11.80   17.90
  15  -5 -28    2.60   25.30
  15  -5 -28  -17.10   13.60
  15   5 -28   43.10   35.80
 -15   5  28    4.70   15.50
 -13  -5  28   11.80   18.80
  13  -5 -28   17.00   15.30
  13  -5 -28   -4.40   23.50
 -13   5  28   -7.80   13.40
 -11  -5  28  -11.80   16.60
  11  -5 -28   -1.60   24.90
  11  -5 -28   26.90   15.40
 -11  -5  28   27.20   26.80
  11   5 -28   10.80   28.90
 -11   5  28   27.80   13.60
  -9  -5  28    2.30   27.90
  -9  -5  28  -21.20   13.70
   9  -5 -28   10.20   13.50
   9  -5 -28  -39.90   18.70
   9   5 -28    1.70   25.50
   7  -5 -28   88.29   37.60
  -7  -5  28   22.90   22.10
  -7  -5  28   25.10   27.30
   7   5 -28   56.59   29.10
  -7   5  28   60.29   12.80
  -5  -5  28   14.90   22.30
  -5  -5  28   20.50   21.90
   5  -5 -28   -1.10   27.80
   5   5 -28   50.09   28.30
   3  -5 -28   73.39   37.10
  -3  -5  28   55.39   25.00
   3   5 -28   56.29   25.40
  14  -6 -28   49.20   18.80
  14  -6 -28  118.09   43.90
 -14  -6  28   69.99   26.30
  14   6 -28   26.00   37.70
 -14   6  28   60.09   19.30
 -12  -6  28   68.09   25.30
  12  -6 -28   40.50   35.10
  12  -6 -28   17.40   14.50
 -12   6  28   -4.00   13.50
  12   6 -28   26.20   34.00
 -10  -6  28   11.20   19.70
  10  -6 -28   22.10   28.10
  10  -6 -28   38.40   14.60
 -10  -6  28   45.00   28.20
  10   6 -28   49.20   36.10
  -8  -6  28   32.30   25.20
   8  -6 -28   11.70   30.50
  -8  -6  28   -2.50   20.50
   8   6 -28   10.70   28.10
  -6  -6  28   12.80   25.50
   6  -6 -28   11.20   28.70
  -6  -6  28   -7.10   21.00
   6   6 -28   37.60   30.50
  20   0 -29  -13.00   23.20
 -20   0  29   28.30   19.30
 -18   0  29   -1.70   17.10
  18   0 -29   -4.40   22.70
  16   0 -29    0.00   25.10
 -16   0  29    7.90   16.30
 -14   0  29   17.30   17.70
  14   0 -29    3.20   25.50
  12   0 -29   -7.60   20.70
 -12   0  29   28.90   20.80
  10   0 -29  -20.30   24.70
 -10   0  29   -7.60   14.60
  -8   0  29  -13.30   17.70
   8   0 -29  -12.90   16.50
   8   0 -29   -6.40   20.80
  -6   0  29   -3.80   16.50
   6   0 -29  -13.00   23.00
   6   0 -29   14.00   17.80
   4   0 -29   27.00   24.80
  -4   0  29    2.80   16.80
   2   0 -29   41.80   25.50
  -2   0  29   24.10   17.70
   0   0 -29  -12.60   21.00
   0   0  29  -10.10   17.30
   0   0 -29   16.10   46.80
 -19  -1  29   56.49   22.10
  19  -1 -29  105.69   39.50
 -19   1  29  100.99   28.00
  19   1 -29  145.99   44.40
  17  -1 -29   14.10   26.30
 -17  -1  29  105.99   26.50
  17   1 -29   64.59   33.00
 -17   1  29   58.59   21.50
 -15  -1  29    0.80   16.60
  15  -1 -29    1.70   21.90
  15   1 -29   -7.70   21.70
 -15   1  29   -2.30   16.50
 -13  -1  29   26.30   19.40
  13  -1 -29   47.40   28.40
 -13   1  29    3.90   15.60
  13   1 -29   65.49   32.20
  11  -1 -29   -9.70   23.50
  11  -1 -29   51.39   21.50
 -11  -1  29   56.19   22.70
  11   1 -29   59.49   33.10
 -11   1  29   12.40   16.50
   9  -1 -29   -8.70   24.90
   9  -1 -29   37.70   20.40
  -9  -1  29   42.60   34.20
  -9   1  29   53.69   19.20
   9   1 -29   19.10   24.30
   7  -1 -29   71.79   31.00
  -7  -1  29  116.19   24.10
   7  -1 -29   99.39   22.40
  -7  -1  29  113.79   38.70
   7   1 -29  123.29   33.80
  -7   1  29  119.89   23.50
   5  -1 -29   82.29   30.20
  -5  -1  29  102.29   23.80
  -5   1  29   89.19   21.70
   5   1 -29  123.49   30.30
   3  -1 -29   25.50   24.50
  -3  -1  29    4.50   20.10
   3   1 -29   62.39   24.40
  -3   1  29   46.60   19.00
  -1  -1  29   -5.90   17.90
   1  -1 -29  -18.90   45.70
   1  -1 -29   10.90   24.40
   1   1 -29  -41.70   38.90
  -1   1  29   18.70   17.50
   1   1 -29   43.50   23.00
  20  -2 -29  -10.00   21.60
 -20  -2  29  -22.60   14.80
 -20   2  29    8.50   17.40
  20   2 -29   -4.40   24.60
 -18  -2  29   -4.70   19.10
  18  -2 -29  -12.50   22.20
 -18   2  29    8.40   16.90
  18   2 -29   49.40   31.40
 -16  -2  29   35.70   21.60
  16  -2 -29   11.60   25.80
  16   2 -29    0.90   27.60
 -16   2  29   21.50   17.80
 -14  -2  29   10.10   18.80
  14  -2 -29   -7.90   24.70
 -14   2  29   16.20   16.50
  14   2 -29  -17.30   25.20
 -12  -2  29   33.60   20.60
  12  -2 -29   28.40   26.80
  12  -2 -29    8.60   16.70
 -12   2  29   -4.00   15.20
  10  -2 -29   -0.20   16.00
 -10  -2  29    8.50   18.50
  10  -2 -29   30.40   27.70
  10   2 -29    7.50   26.40
 -10   2  29   20.70   16.40
   8  -2 -29   39.60   29.30
  -8  -2  29  -15.30   29.50
  -8  -2  29   45.80   20.50
   8  -2 -29   12.40   16.20
  -8   2  29   26.60   17.40
   8   2 -29    2.00   24.30
   6  -2 -29   45.60   18.20
  -6  -2  29   30.30   34.80
   6  -2 -29   33.40   31.10
  -6  -2  29   -5.00   18.90
   6   2 -29   48.80   26.60
  -6   2  29   47.00   17.80
  -4  -2  29    8.50   19.40
   4  -2 -29  -18.70   27.30
   4   2 -29    1.30   19.60
  -4   2  29   -9.00   13.70
   2  -2 -29   59.99   32.00
  -2  -2  29   38.10   22.90
  -2   2  29    9.20   15.50
   2   2 -29   30.70   20.30
 -19  -3  29  -12.80   16.60
  19  -3 -29   27.20   30.70
  19   3 -29   -0.20   30.20
 -19   3  29  -13.50   17.10
  17  -3 -29  136.89   43.20
 -17  -3  29  201.28   36.30
 -17   3  29  153.28   27.90
  17   3 -29  150.38   45.60
 -15  -3  29   60.79   24.50
  15  -3 -29   30.70   30.70
  15   3 -29   31.90   32.20
 -15   3  29   67.79   20.50
  13  -3 -29   -6.80   15.80
 -13  -3  29  -11.60   17.20
  13  -3 -29   -5.20   25.00
  13   3 -29    4.40   25.40
 -13   3  29   17.70   16.00
 -11  -3  29  305.97   37.60
  11  -3 -29  231.28   41.30
  11  -3 -29  226.58   46.60
  11   3 -29  218.98   44.50
 -11   3  29  251.57   30.40
   9  -3 -29   31.40   27.30
  -9  -3  29  -17.50   28.50
  -9  -3  29   17.50   18.70
   9  -3 -29   -5.30   14.10
  -9   3  29    8.50   14.50
   9   3 -29   21.60   27.60
  -7  -3  29   56.49   21.50
   7  -3 -29   50.19   29.60
   7  -3 -29   43.20   16.90
  -7  -3  29   71.09   32.70
   7   3 -29   83.49   30.60
  -7   3  29   32.30   15.60
  -5  -3  29   12.90   19.40
   5  -3 -29   25.80   28.00
  -5   3  29    5.00   13.40
   5   3 -29   36.10   24.40
  -3  -3  29    7.70   21.40
   3  -3 -29    9.10   28.70
   3   3 -29    2.70   21.00
  -3   3  29   21.60   20.00
  16  -4 -29   -7.40   25.20
 -16  -4  29  -13.70   18.30
 -16   4  29   -4.30   15.80
  16   4 -29  -35.00   25.90
 -14  -4  29    8.40   20.40
  14  -4 -29  -12.80   14.40
  14  -4 -29    3.80   27.10
 -14   4  29   20.60   17.30
  14   4 -29   59.29   36.50
  12  -4 -29   19.00   25.10
  12  -4 -29   -0.60   15.20
 -12  -4  29   -7.70   17.90
  12   4 -29  -14.30   25.00
 -12   4  29    4.20   15.40
 -10  -4  29   40.30   21.40
  10  -4 -29   68.59   19.40
 -10  -4  29    6.40   26.70
  10  -4 -29   75.99   30.90
  10   4 -29   57.19   34.00
 -10   4  29   49.50   17.00
  -8  -4  29  -22.10   17.10
   8  -4 -29    2.80   14.10
   8  -4 -29   15.30   27.30
  -8   4  29   20.30   13.70
   8   4 -29  127.19   35.90
  -6  -4  29   75.39   30.70
   6  -4 -29   36.10   28.50
  -6  -4  29   14.20   20.70
  -6   4  29   37.90   12.90
   6   4 -29    8.70   23.60
  -4  -4  29  -20.70   18.20
   4  -4 -29   15.10   27.40
  -4   4  29    8.80   10.30
   4   4 -29  -10.00   36.10
  15  -5 -29   25.70   17.90
 -15  -5  29   26.90   21.30
  15  -5 -29   84.59   35.00
 -15   5  29   64.59   19.80
  15   5 -29   58.09   38.30
  13  -5 -29   62.49   18.90
  13  -5 -29   73.09   35.30
 -13  -5  29   41.20   21.40
 -13   5  29   29.20   16.20
  13   5 -29   64.99   37.30
  11  -5 -29    7.30   26.80
 -11  -5  29   -8.50   16.50
  11  -5 -29   31.80   16.70
  11   5 -29   37.80   35.30
 -11   5  29   19.40   13.90
  -9  -5  29   13.00   20.40
   9  -5 -29   20.70   14.40
   9  -5 -29   87.89   37.10
  -9  -5  29   46.50   29.40
   9   5 -29   26.30   32.40
  -9   5  29   40.40   21.10
   7  -5 -29   -2.00   25.20
  -7  -5  29   17.60   20.90
  -7  -5  29   60.89   29.50
  -7   5  29   31.20   11.10
   7   5 -29   49.20   31.10
 -18   0  30  120.49   28.30
  18   0 -30   81.99   35.80
  16   0 -30  337.77   53.29
 -16   0  30  323.97   39.20
 -14   0  30   60.49   23.70
  14   0 -30   69.39   32.90
 -12   0  30  130.39   26.00
  12   0 -30  116.29   36.00
  10   0 -30    3.00   23.80
 -10   0  30   20.00   18.10
  -8   0  30    0.60   17.90
   8   0 -30   53.09   27.30
  -6   0  30    7.40   18.40
   6   0 -30   10.20   23.70
  -4   0  30   15.20   17.60
   4   0 -30   20.00   25.60
  19  -1 -30   65.49   32.20
 -19  -1  30   69.59   25.60
 -19   1  30   32.80   21.10
  19   1 -30  107.79   39.40
 -17  -1  30    3.80   18.30
  17  -1 -30   -8.00   25.60
 -17   1  30   19.20   18.30
  17   1 -30   13.80   26.90
  15  -1 -30   92.79   36.10
 -15  -1  30   83.39   24.90
  15   1 -30   76.79   32.10
 -15   1  30   76.19   23.80
 -13  -1  30    8.00   18.10
  13  -1 -30   13.00   27.90
 -13   1  30   -4.10   26.00
  13   1 -30   -0.50   24.60
 -11  -1  30  -12.10   17.40
  11  -1 -30   -8.30   23.60
  11   1 -30   45.30   30.20
 -11   1  30   -2.80   17.20
   9  -1 -30   -6.50   18.20
   9  -1 -30  -18.00   22.90
  -9  -1  30    5.60   17.90
  -9   1  30  -26.80   13.10
   9   1 -30  -15.20   23.20
   7  -1 -30   -3.40   16.20
  -7  -1  30   19.00   20.30
   7   1 -30   30.30   25.80
  -7   1  30   30.90   19.70
   5  -1 -30   14.70   26.90
  -5   1  30  -13.50   17.10
   5   1 -30    7.50   22.70
   3  -1 -30    2.90   26.70
  -3   1  30   24.80   18.60
   3   1 -30   33.70   23.80
 -18  -2  30    6.70   18.30
  18  -2 -30   10.90   26.30
 -18   2  30   45.20   20.60
  18   2 -30   22.60   30.70
  16  -2 -30   84.39   32.60
 -16  -2  30   18.50   22.20
 -16   2  30   51.19   20.50
  16   2 -30   42.90   32.00
  14  -2 -30  142.89   41.30
 -14  -2  30  155.88   29.20
 -14   2  30  145.09   25.40
  14   2 -30  200.98   47.20
  12  -2 -30    6.10   28.80
 -12  -2  30   17.80   20.90
  12  -2 -30   26.70   19.60
  12   2 -30  -26.60   20.40
 -12   2  30   -9.20   15.40
 -10  -2  30   18.50   18.40
  10  -2 -30   89.49   34.60
  10  -2 -30   50.59   20.30
  10   2 -30   45.40   30.20
 -10   2  30   83.79   22.00
  -8  -2  30   44.90   33.30
   8  -2 -30   47.40   29.30
  -8  -2  30   13.40   16.70
  -8   2  30    2.70   16.80
   8   2 -30   64.79   30.40
  -6  -2  30   28.20   20.70
   6  -2 -30   38.60   28.10
   6   2 -30    6.60   22.40
  -6   2  30    4.20   14.80
  -4  -2  30  -25.70   18.10
   4  -2 -30   -7.30   22.80
  -4   2  30  -10.00   14.60
   4   2 -30    5.40   22.10
  17  -3 -30   24.90   30.00
 -17  -3  30    0.80   18.20
  17   3 -30  -24.50   24.30
 -17   3  30   18.30   18.20
 -15  -3  30   38.40   22.10
  15  -3 -30   18.50   28.90
  15   3 -30   17.70   29.70
 -15   3  30   43.30   18.50
  13  -3 -30   23.20   19.10
 -13  -3  30   10.10   19.40
  13  -3 -30  -20.50   25.00
 -13   3  30    7.80   16.50
  13   3 -30    3.10   26.90
  11  -3 -30   18.90   30.10
 -11  -3  30   32.90   20.20
  11  -3 -30   26.30   20.40
  11   3 -30   35.80   31.10
 -11   3  30   36.80   18.50
  -9  -3  30   23.00   19.40
   9  -3 -30    0.60   27.20
   9  -3 -30    9.70   16.40
  -9  -3  30    4.40   29.70
  -9   3  30   12.80   15.20
   9   3 -30    6.80   26.20
  -7  -3  30   35.90   22.70
   7  -3 -30   20.40   27.50
  -7   3  30   44.40   16.30
   7   3 -30   72.09   30.70
  -5  -3  30   21.60   21.50
   5  -3 -30  -11.50   26.20
  -5   3  30   22.20   14.90
   5   3 -30   79.39   29.40
  14  -4 -30   62.29   21.80
  14  -4 -30   32.70   28.30
 -14  -4  30   99.89   27.80
 -14   4  30  110.59   22.30
  14   4 -30  104.59   42.20
  12  -4 -30   51.59   31.60
  12  -4 -30   28.00   26.90
 -12  -4  30   38.90   23.30
 -12   4  30   -9.00   13.90
  10  -4 -30   78.29   37.60
 -10  -4  30  102.29   27.60
 -10  -4  30   61.29   34.00
  10  -4 -30   63.39   20.20
 -10   4  30  116.59   21.40
  10   4 -30  154.88   43.00
   8  -4 -30    6.40   28.90
  -8  -4  30   32.20   33.70
   8  -4 -30   29.80   16.10
  -8  -4  30   35.40   24.50
  -8   4  30   67.19   16.50
   8   4 -30   27.90   30.00
 -16   0  31  -13.10   18.10
  16   0 -31   22.50   32.40
 -14   0  31   -5.60   17.90
  14   0 -31  -25.90   22.50
 -12   0  31  -11.40   17.90
  12   0 -31   17.60   24.70
 -10   0  31    4.70   17.90
  10   0 -31    2.10   24.80
   8   0 -31   22.50   33.20
  -8   0  31   -7.90   19.00
  -6   0  31  -25.40   17.70
   6   0 -31   18.60   26.10
  15  -1 -31   26.00   26.90
 -15  -1  31   18.50   19.60
  15   1 -31   27.50   30.70
 -15   1  31  -19.90   14.50
 -13  -1  31   65.39   23.50
  13  -1 -31   28.90   31.70
 -13   1  31  104.59   25.30
  13   1 -31   66.89   33.60
  11  -1 -31  105.29   36.70
 -11  -1  31  137.09   28.50
  11   1 -31  129.79   36.80
 -11   1  31  160.68   27.60
  -9  -1  31   82.99   25.50
   9  -1 -31  155.08   41.80
   9   1 -31  103.89   39.80
  -9   1  31   43.50   19.10
   7  -1 -31   54.39   22.00
  -7  -1  31  107.49   26.90
   7  -1 -31   77.89   33.30
  -7   1  31   69.29   21.20
   7   1 -31   37.90   28.70
  14  -2 -31  -32.60   21.10
 -14  -2  31   -2.50   17.50
  14   2 -31    3.90   29.10
 -12  -2  31    7.90   20.40
  12  -2 -31   21.30   30.20
  12   2 -31   28.80   29.60
 -12   2  31   22.80   17.10
  10  -2 -31    5.70   18.20
 -10  -2  31   12.20   20.80
  10  -2 -31   11.50   27.10
  10   2 -31   -9.40   23.70
 -10   2  31   11.30   16.10
   8  -2 -31   21.30   27.70
   8  -2 -31   11.90   18.40
  -8  -2  31   14.30   20.30
  -8  -2  31   45.90   38.20
   8   2 -31   36.60   29.00
  -8   2  31   16.50   16.80
  11  -3 -31   32.50   19.50
 -11  -3  31   17.90   21.00
  11  -3 -31   47.70   30.80
 -11   3  31   52.79   18.90
   0   0   0    0.00    0.00

_computing_structure_solution     'SHELXT 2018/2 (Sheldrick, 2018)'
;
_shelx_hkl_checksum   82969

