 
data_pvl810_auto_a
 
_audit_creation_method            'SHELXL-2018/3'
_shelx_SHELXL_version_number      '2018/3'
_chemical_name_systematic         ?
_chemical_name_common             ?
_chemical_melting_point           ?
_chemical_formula_moiety          ?
_chemical_formula_sum
 'C3.51 H1.89 N1.12 O0.77 S0.14 Zn0.25' 
_chemical_formula_weight          92.69

loop_
 _atom_type_symbol
 _atom_type_description
 _atom_type_scat_dispersion_real
 _atom_type_scat_dispersion_imag
 _atom_type_scat_source
 'C'  'C'   0.0033   0.0016
 'International Tables Vol C Tables 4.2.6.8 and 6.1.1.4'
 'H'  'H'   0.0000   0.0000
 'International Tables Vol C Tables 4.2.6.8 and 6.1.1.4'
 'N'  'N'   0.0061   0.0033
 'International Tables Vol C Tables 4.2.6.8 and 6.1.1.4'
 'O'  'O'   0.0106   0.0060
 'International Tables Vol C Tables 4.2.6.8 and 6.1.1.4'
 'S'  'S'   0.1246   0.1234
 'International Tables Vol C Tables 4.2.6.8 and 6.1.1.4'
 'Zn'  'Zn'   0.2839   1.4301
 'International Tables Vol C Tables 4.2.6.8 and 6.1.1.4'
 
_space_group_crystal_system       monoclinic
_space_group_IT_number            14
_space_group_name_H-M_alt         'P 21/c'
_space_group_name_Hall            '-P 2ybc'
 
_shelx_space_group_comment
;
The symmetry employed for this shelxl refinement is uniquely defined
by the following loop, which should always be used as a source of
symmetry information in preference to the above space-group names.
They are only intended as comments.
;
 
loop_
 _space_group_symop_operation_xyz
 'x, y, z'
 '-x, y+1/2, -z+1/2'
 '-x, -y, -z'
 'x, -y-1/2, z-1/2'
 
_cell_length_a                    15.3786(7)
_cell_length_b                    17.3699(8)
_cell_length_c                    19.0255(7)
_cell_angle_alpha                 90
_cell_angle_beta                  97.253(4)
_cell_angle_gamma                 90
_cell_volume                      5041.5(4)
_cell_formula_units_Z             57
_cell_measurement_temperature     170(2)
_cell_measurement_reflns_used     ?
_cell_measurement_theta_min       ?
_cell_measurement_theta_max       ?
 
_exptl_crystal_description        ?
_exptl_crystal_colour             ?
_exptl_crystal_density_meas       ?
_exptl_crystal_density_method     ?
_exptl_crystal_density_diffrn     1.740          
_exptl_crystal_F_000              2656
_exptl_transmission_factor_min    ?
_exptl_transmission_factor_max    ?
_exptl_crystal_size_max           ?
_exptl_crystal_size_mid           ?
_exptl_crystal_size_min           ?
_exptl_absorpt_coefficient_mu     1.812
_shelx_estimated_absorpt_T_min    ?
_shelx_estimated_absorpt_T_max    ?
_exptl_absorpt_correction_type    ?
_exptl_absorpt_correction_T_min   ?
_exptl_absorpt_correction_T_max   ?
_exptl_absorpt_process_details    ?
_exptl_absorpt_special_details    ?
_diffrn_ambient_temperature       170(2)
_diffrn_radiation_wavelength      0.71073
_diffrn_radiation_type            MoK\a
_diffrn_source                    ?
_diffrn_measurement_device_type   ?
_diffrn_measurement_method        ?
_diffrn_detector_area_resol_mean  ?
_diffrn_reflns_number             25697
_diffrn_reflns_av_unetI/netI      0.0325
_diffrn_reflns_av_R_equivalents   0.0238
_diffrn_reflns_limit_h_min        -15
_diffrn_reflns_limit_h_max        20
_diffrn_reflns_limit_k_min        -23
_diffrn_reflns_limit_k_max        15
_diffrn_reflns_limit_l_min        -24
_diffrn_reflns_limit_l_max        23
_diffrn_reflns_theta_min          2.158
_diffrn_reflns_theta_max          28.999
_diffrn_reflns_theta_full         25.242
_diffrn_measured_fraction_theta_max   0.833
_diffrn_measured_fraction_theta_full  0.999
_diffrn_reflns_Laue_measured_fraction_max    0.833
_diffrn_reflns_Laue_measured_fraction_full   0.999
_diffrn_reflns_point_group_measured_fraction_max   0.833
_diffrn_reflns_point_group_measured_fraction_full  0.999
_reflns_number_total              11156
_reflns_number_gt                 9272
_reflns_threshold_expression      'I > 2\s(I)'
_reflns_Friedel_coverage          0.000
_reflns_Friedel_fraction_max      .
_reflns_Friedel_fraction_full     .
 
_reflns_special_details
;
 Reflections were merged by SHELXL according to the crystal
 class for the calculation of statistics and refinement.
 
 _reflns_Friedel_fraction is defined as the number of unique
 Friedel pairs measured divided by the number that would be
 possible theoretically, ignoring centric projections and
 systematic absences.
;
 
_computing_data_collection        ?
_computing_cell_refinement        ?
_computing_data_reduction         ?
_computing_structure_solution     'SHELXT 2018/2 (Sheldrick, 2018)'
_computing_structure_refinement 'SHELXL-2018/3 (Sheldrick, 2018)'
_computing_molecular_graphics     ?
_computing_publication_material   ?
_refine_special_details           ?
_refine_ls_structure_factor_coef  Fsqd
_refine_ls_matrix_type            full
_refine_ls_weighting_scheme       calc
_refine_ls_weighting_details
'w=1/[\s^2^(Fo^2^)+(0.0170P)^2^+18.1058P] where P=(Fo^2^+2Fc^2^)/3'
_atom_sites_solution_primary      ?
_atom_sites_solution_secondary    ?
_atom_sites_solution_hydrogens    mixed
_refine_ls_hydrogen_treatment     mixed
_refine_ls_extinction_method      none
_refine_ls_extinction_coef        .
_refine_ls_number_reflns          11156
_refine_ls_number_parameters      996
_refine_ls_number_restraints      46
_refine_ls_R_factor_all           0.0668
_refine_ls_R_factor_gt            0.0540
_refine_ls_wR_factor_ref          0.1154
_refine_ls_wR_factor_gt           0.1116
_refine_ls_goodness_of_fit_ref    1.209
_refine_ls_restrained_S_all       1.209
_refine_ls_shift/su_max           0.001
_refine_ls_shift/su_mean          0.000
 
loop_
 _atom_site_label
 _atom_site_type_symbol
 _atom_site_fract_x
 _atom_site_fract_y
 _atom_site_fract_z
 _atom_site_U_iso_or_equiv
 _atom_site_adp_type
 _atom_site_occupancy
 _atom_site_site_symmetry_order  
 _atom_site_calc_flag
 _atom_site_refinement_flags_posn
 _atom_site_refinement_flags_adp
 _atom_site_refinement_flags_occupancy
 _atom_site_disorder_assembly
 _atom_site_disorder_group
C33 C -0.0888(8) 0.6532(7) -0.0266(7) 0.068(4) Uani 0.5 1 d . U P A -9
H33 H -0.150591 0.655176 -0.039156 0.082 Uiso 0.5 1 calc R U P A -9
C34 C 0.0919(8) 0.6485(7) 0.0072(9) 0.087(5) Uani 0.5 1 d . U P A -9
H34 H 0.154041 0.647672 0.016116 0.104 Uiso 0.5 1 calc R U P A -9
C35 C -0.0427(10) 0.7165(8) -0.0281(10) 0.105(6) Uani 0.5 1 d . U P A -9
H35 H -0.071287 0.763515 -0.042141 0.126 Uiso 0.5 1 calc R U P A -9
C36 C 0.0508(10) 0.7156(9) -0.0087(11) 0.129(7) Uani 0.5 1 d . U P A -9
H36 H 0.083263 0.762272 -0.007205 0.155 Uiso 0.5 1 calc R U P A -9
O901 O -0.2277(4) 0.4407(4) -0.0178(4) 0.0350(15) Uani 0.5 1 d . . P A -9
C901 C -0.1905(9) 0.5039(14) -0.0202(6) 0.035(4) Uani 0.5 1 d D . P A -9
O902 O -0.2337(6) 0.5620(5) -0.0197(4) 0.037(2) Uani 0.5 1 d . . P A -9
C902 C 0.1866(8) 0.5017(11) 0.0455(6) 0.022(3) Uani 0.5 1 d D . P A -9
O903 O 0.2246(5) 0.5568(5) 0.0738(6) 0.056(2) Uani 0.5 1 d . . P A -9
C903 C 0.0887(9) 0.5087(8) 0.0304(7) 0.039(3) Uani 0.5 1 d D . P A -9
O904 O 0.2204(6) 0.4443(7) 0.0610(7) 0.072(4) Uani 0.5 1 d . . P A -9
C904 C -0.0928(8) 0.5098(8) -0.0031(4) 0.034(3) Uani 0.5 1 d D . P A -9
C905 C -0.0476(10) 0.5805(7) -0.0064(7) 0.034(3) Uani 0.5 1 d . . P A -9
C906 C 0.0458(12) 0.5803(7) 0.0111(8) 0.039(3) Uani 0.5 1 d . . P A -9
C911 C 0.0410(10) 0.4435(8) 0.0342(9) 0.061(5) Uani 0.5 1 d . . P A -9
H911 H 0.069835 0.396947 0.049597 0.073 Uiso 0.5 1 calc R U P A -9
C912 C -0.0504(11) 0.4436(8) 0.0158(6) 0.058(5) Uani 0.5 1 d . . P A -9
H912 H -0.082366 0.396921 0.016625 0.070 Uiso 0.5 1 calc R U P A -9
Zn1 Zn 0.34593(3) 0.41143(3) 0.07037(2) 0.02101(11) Uani 1 1 d . . . . .
O1 O 0.42011(16) 0.50075(15) 0.07376(12) 0.0172(5) Uani 1 1 d . . . . .
N1 N 0.7124(2) 0.4821(3) 0.31062(19) 0.0380(10) Uani 1 1 d . . . . .
C1 C 0.7173(3) 0.4137(3) 0.4251(2) 0.0346(11) Uani 1 1 d . . . . .
Zn2 Zn 0.34482(3) 0.58940(3) 0.06145(2) 0.01900(11) Uani 1 1 d . . . . .
S2 S 0.61609(10) 0.47937(10) 0.65269(8) 0.0542(4) Uani 1 1 d . . . . .
O2 O 0.3636(3) 0.1698(2) 0.50323(17) 0.0532(11) Uani 1 1 d . . . . .
N2 N 0.6324(3) 0.3968(2) 0.42173(19) 0.0344(9) Uani 1 1 d . . . . .
C2 C 0.7601(3) 0.4550(4) 0.3750(3) 0.0537(17) Uani 1 1 d . . . . .
Zn3 Zn 0.500000 0.500000 0.000000 0.02091(14) Uani 1 2 d S . P . .
O3 O 0.45317(19) 0.41788(17) 0.22104(14) 0.0266(6) Uani 1 1 d . . . . .
N3 N 0.7265(3) 0.6189(3) 0.4835(3) 0.0625(15) Uani 1 1 d . . . . .
C3 C 0.3883(3) 0.6456(2) 0.1998(2) 0.0260(9) Uani 1 1 d . . . . .
O4 O 0.4254(2) 0.92526(18) 0.42510(14) 0.0293(7) Uani 1 1 d . . . . .
N4 N 0.6355(4) 0.6429(4) 0.3892(3) 0.0774(18) Uani 1 1 d . . . . .
C4 C 0.3821(3) 0.3197(2) 0.27773(19) 0.0212(8) Uani 1 1 d . . . . .
Zn5 Zn 0.49499(3) 0.50471(3) 0.16282(2) 0.01913(10) Uani 1 1 d . . . . .
N5 N 0.7726(4) 0.6609(5) 0.4415(3) 0.098(3) Uani 1 1 d . . . . .
C5 C 0.3020(3) 0.2876(3) 0.2935(2) 0.0288(9) Uani 1 1 d . . . . .
O6 O 0.3600(4) 0.8400(2) 0.4856(2) 0.0813(18) Uani 1 1 d . . . . .
N6 N 0.7132(3) 0.4732(3) 0.6959(2) 0.0549(13) Uani 1 1 d . . . . .
C6 C 0.3037(3) 0.2355(3) 0.3523(2) 0.0323(10) Uani 1 1 d . . . . .
O7 O 0.3384(2) 0.35984(19) 0.15963(14) 0.0346(8) Uani 1 1 d . . . . .
N7 N 0.6358(3) 0.5298(3) 0.5851(2) 0.0469(11) Uani 1 1 d . . . . .
C7 C 0.3854(3) 0.2151(2) 0.3900(2) 0.0259(9) Uani 1 1 d . . . . .
O8 O 0.4329(2) 0.09331(18) 0.43544(14) 0.0292(7) Uani 1 1 d . . . . .
C8 C 0.4622(3) 0.2474(2) 0.3737(2) 0.0291(9) Uani 1 1 d . . . . .
H8 H 0.516652 0.233106 0.399720 0.035 Uiso 1 1 calc R U . . .
O9 O 0.3451(3) 0.6581(2) 0.14072(16) 0.0488(10) Uani 1 1 d . . . . .
N9 N 0.6127(2) 0.5060(2) 0.22161(17) 0.0254(7) Uani 1 1 d . . . . .
C9 C 0.4600(3) 0.3008(2) 0.3192(2) 0.0266(9) Uani 1 1 d . . . . .
H9 H 0.512918 0.324981 0.310062 0.032 Uiso 1 1 calc R U . . .
O10 O 0.4401(2) 0.59090(17) 0.21328(14) 0.0286(7) Uani 1 1 d . . . . .
N10 N 0.7198(3) 0.3486(3) 0.5319(2) 0.0405(10) Uani 1 1 d . . . . .
C10 C 0.3894(3) 0.8623(2) 0.4309(2) 0.0285(9) Uani 1 1 d . . . . .
N11 N 0.7535(3) 0.5254(4) 0.2643(2) 0.0625(17) Uani 1 1 d . . . . .
C11 C 0.6286(3) 0.4717(3) 0.2845(2) 0.0264(9) Uani 1 1 d . . . . .
H11 H 0.586766 0.444149 0.307234 0.032 Uiso 1 1 calc R U . . .
C12 C 0.3801(3) 0.7018(2) 0.2585(2) 0.0259(9) Uani 1 1 d . . . . .
C13 C 0.4510(3) 0.7069(2) 0.3093(2) 0.0258(9) Uani 1 1 d . . . . .
H13 H 0.499653 0.673756 0.306645 0.031 Uiso 1 1 calc R U . . .
C14 C 0.4540(3) 0.7599(3) 0.3652(2) 0.0284(9) Uani 1 1 d . . . . .
H14 H 0.504523 0.762999 0.399372 0.034 Uiso 1 1 calc R U . . .
C15 C 0.3844(3) 0.8067(2) 0.3704(2) 0.0270(9) Uani 1 1 d . . . . .
C16 C 0.3072(3) 0.8022(3) 0.3207(2) 0.0341(11) Uani 1 1 d . . . . .
C17 C 0.3048(3) 0.7495(3) 0.2624(2) 0.0323(10) Uani 1 1 d . . . . .
C18 C 0.3914(3) 0.3705(2) 0.21509(19) 0.0225(8) Uani 1 1 d . . . . .
C19 C 0.3943(3) 0.1537(2) 0.4467(2) 0.0265(9) Uani 1 1 d . . . . .
C20 C 0.2336(5) 0.8488(4) 0.3274(3) 0.067(2) Uani 1 1 d . . . . .
H20 H 0.235023 0.884033 0.365669 0.080 Uiso 1 1 calc R U . . .
C21 C 0.7681(3) 0.3864(4) 0.4891(2) 0.0484(15) Uani 1 1 d . . . . .
C22 C 0.2234(4) 0.2046(4) 0.3691(3) 0.0547(17) Uani 1 1 d . . . . .
H22 H 0.224(5) 0.178(4) 0.403(4) 0.082 Uiso 1 1 d . U . . .
C23 C 0.6446(4) 0.6090(4) 0.4511(3) 0.0653(18) Uani 1 1 d . . . . .
H23 H 0.599791 0.581348 0.470324 0.078 Uiso 1 1 calc R U . . .
C24 C 0.6916(3) 0.5372(4) 0.2123(3) 0.0462(14) Uani 1 1 d . . . . .
H24 H 0.700671 0.565509 0.171147 0.055 Uiso 1 1 calc R U . . .
C25 C 0.1610(5) 0.8435(5) 0.2794(4) 0.093(3) Uani 1 1 d . . . . .
H25 H 0.111886 0.875311 0.284293 0.112 Uiso 1 1 calc R U . . .
C26 C 0.1571(5) 0.7916(5) 0.2224(3) 0.085(3) Uani 1 1 d . . . . .
H26 H 0.105101 0.787697 0.189915 0.102 Uiso 1 1 calc R U . . .
C27 C 0.2273(4) 0.7471(4) 0.2137(3) 0.0519(16) Uani 1 1 d . . . . .
H27 H 0.224450 0.713597 0.173980 0.062 Uiso 1 1 calc R U . . .
C28 C 0.2193(3) 0.3051(4) 0.2550(3) 0.0489(15) Uani 1 1 d . . . . .
H28 H 0.216(4) 0.340(4) 0.218(3) 0.073 Uiso 1 1 d . U . . .
C29 C 0.7138(5) 0.6734(5) 0.3861(4) 0.078(2) Uani 1 1 d . . . . .
H29 H 0.726792 0.702422 0.346445 0.093 Uiso 1 1 calc R U . . .
C30 C 0.7677(4) 0.5888(5) 0.5482(3) 0.072(2) Uani 1 1 d . . . . .
C31 C 0.7215(4) 0.5444(4) 0.5939(3) 0.0530(15) Uani 1 1 d . . . . .
C32 C 0.7667(4) 0.5118(4) 0.6580(3) 0.0659(19) Uani 1 1 d . . . . .
S101 S 0.6161(8) 0.3529(7) 0.4940(5) 0.0317(13) Uani 0.508(7) 1 d . . P B 1
N101 N 0.9108(5) 0.3453(6) 0.5541(4) 0.039(2) Uani 0.508(7) 1 d . . P B 1
C101 C 0.8907(7) 0.2953(11) 0.6028(7) 0.074(5) Uani 0.508(7) 1 d . . P B 1
H101 H 0.833639 0.275307 0.605003 0.089 Uiso 0.508(7) 1 calc R U P B 1
N102 N 0.9611(6) 0.2770(9) 0.6480(6) 0.081(5) Uani 0.508(7) 1 d . . P B 1
C102 C 1.0230(8) 0.3207(10) 0.6233(7) 0.074(5) Uani 0.508(7) 1 d . . P B 1
H102 H 1.082186 0.320102 0.644940 0.088 Uiso 0.508(7) 1 calc R U P B 1
N103 N 0.9981(7) 0.3638(9) 0.5685(6) 0.063(3) Uani 0.508(7) 1 d . . P B 1
C103 C 0.8593(6) 0.3781(7) 0.4941(5) 0.032(2) Uani 0.508(7) 1 d . . P B 1
C104 C 0.8995(6) 0.4128(7) 0.4425(5) 0.037(2) Uani 0.508(7) 1 d . . P B 1
H104 H 0.961609 0.416180 0.447647 0.045 Uiso 0.508(7) 1 calc R U P B 1
C105 C 0.8495(6) 0.4440(7) 0.3809(5) 0.036(2) Uani 0.508(7) 1 d . . P B 1
H105 H 0.879199 0.457916 0.341929 0.043 Uiso 0.508(7) 1 calc R U P B 1
S201 S 0.6273(9) 0.3453(8) 0.4914(6) 0.058(3) Uani 0.492(7) 1 d . . P B 2
N201 N 0.9090(5) 0.3993(5) 0.5723(4) 0.0281(19) Uani 0.492(7) 1 d . . P B 2
C201 C 0.8576(6) 0.4231(6) 0.5085(5) 0.027(2) Uani 0.492(7) 1 d . . P B 2
N202 N 0.9610(7) 0.3505(7) 0.6749(5) 0.051(3) Uani 0.492(7) 1 d . . P B 2
C202 C 0.8904(8) 0.3590(7) 0.6290(6) 0.043(3) Uani 0.492(7) 1 d . . P B 2
H202 H 0.834060 0.339502 0.635023 0.052 Uiso 0.492(7) 1 calc R U P B 2
N203 N 0.9963(6) 0.4197(6) 0.5825(5) 0.037(2) Uani 0.492(7) 1 d . . P B 2
C203 C 1.0226(7) 0.3878(7) 0.6449(5) 0.043(3) Uani 0.492(7) 1 d . . P B 2
H203 H 1.081510 0.391193 0.666776 0.052 Uiso 0.492(7) 1 calc R U P B 2
C204 C 0.8424(6) 0.4914(7) 0.3963(5) 0.029(2) Uani 0.492(7) 1 d . . P B 2
H204 H 0.863914 0.529652 0.367296 0.035 Uiso 0.492(7) 1 calc R U P B 2
C205 C 0.8919(6) 0.4695(6) 0.4617(4) 0.029(2) Uani 0.492(7) 1 d . . P B 2
H205 H 0.950256 0.487767 0.472708 0.034 Uiso 0.492(7) 1 calc R U P B 2
N501 N 0.9137(7) 0.4715(8) 0.7256(6) 0.048(3) Uani 0.496(15) 1 d . . P C 5
C501 C 0.8621(8) 0.5800(9) 0.5574(7) 0.044(3) Uani 0.496(15) 1 d . . P C 5
H501 H 0.894225 0.598131 0.521273 0.053 Uiso 0.496(15) 1 calc R U P C 5
N502 N 0.9613(9) 0.3972(11) 0.8153(9) 0.077(5) Uani 0.496(15) 1 d . . P C 5
C502 C 0.9088(8) 0.5448(8) 0.6192(7) 0.046(3) Uani 0.496(15) 1 d . . P C 5
H502 H 0.970887 0.548239 0.627206 0.055 Uiso 0.496(15) 1 calc R U P C 5
N503 N 1.0037(9) 0.4849(11) 0.7401(9) 0.077(5) Uani 0.496(15) 1 d . . P C 5
C503 C 0.8651(9) 0.5066(9) 0.6666(7) 0.042(3) Uani 0.496(15) 1 d . . P C 5
C504 C 0.8918(11) 0.4213(11) 0.7732(10) 0.061(5) Uani 0.496(15) 1 d . . P C 5
H504 H 0.833585 0.404843 0.776545 0.073 Uiso 0.496(15) 1 calc R U P C 5
C505 C 1.0248(12) 0.4406(12) 0.7942(9) 0.075(5) Uani 0.496(15) 1 d . . P C 5
H505 H 1.082900 0.439087 0.818001 0.090 Uiso 0.496(15) 1 calc R U P C 5
N601 N 0.8937(8) 0.5104(8) 0.7461(6) 0.052(3) Uani 0.504(15) 1 d . . P C 6
C601 C 0.8482(9) 0.6175(9) 0.5773(7) 0.049(3) Uani 0.504(15) 1 d . . P C 6
H601 H 0.874331 0.658445 0.554384 0.059 Uiso 0.504(15) 1 calc R U P C 6
N602 N 0.9770(10) 0.5293(9) 0.7658(8) 0.073(4) Uani 0.504(15) 1 d . . P C 6
C602 C 0.8922(9) 0.5864(8) 0.6411(7) 0.049(3) Uani 0.504(15) 1 d . . P C 6
H602 H 0.952576 0.597496 0.654288 0.059 Uiso 0.504(15) 1 calc R U P C 6
N603 N 0.9350(12) 0.4398(11) 0.8404(7) 0.080(5) Uani 0.504(15) 1 d . . P C 6
C603 C 0.8492(9) 0.5408(9) 0.6837(6) 0.042(3) Uani 0.504(15) 1 d . . P C 6
C604 C 0.9992(13) 0.4840(11) 0.8231(10) 0.079(5) Uani 0.504(15) 1 d . . P C 6
H604 H 1.056236 0.483846 0.848886 0.095 Uiso 0.504(15) 1 calc R U P C 6
C605 C 0.8689(15) 0.4583(11) 0.7914(9) 0.070(5) Uani 0.504(15) 1 d . . P C 6
H605 H 0.811609 0.437181 0.788827 0.084 Uiso 0.504(15) 1 calc R U P C 6
C701 C 0.1434(9) 0.2863(8) 0.2834(7) 0.037(3) Uani 0.5 1 d . . P D 7
H701 H 0.088744 0.307518 0.263626 0.045 Uiso 0.5 1 calc R U P D 7
C702 C 0.1474(10) 0.2364(8) 0.3409(7) 0.039(3) Uani 0.5 1 d . . P D 7
H702 H 0.095244 0.224490 0.360512 0.047 Uiso 0.5 1 calc R U P D 7
C801 C 0.1456(9) 0.2079(7) 0.3189(7) 0.036(3) Uani 0.5 1 d . . P D 8
H801 H 0.096203 0.176660 0.324446 0.043 Uiso 0.5 1 calc R U P D 8
C802 C 0.1446(9) 0.2582(8) 0.2618(7) 0.034(3) Uani 0.5 1 d . . P D 8
H802 H 0.094252 0.261388 0.227436 0.041 Uiso 0.5 1 calc R U P D 8
 
loop_
 _atom_site_aniso_label
 _atom_site_aniso_U_11
 _atom_site_aniso_U_22
 _atom_site_aniso_U_33
 _atom_site_aniso_U_23
 _atom_site_aniso_U_13
 _atom_site_aniso_U_12
C33 0.038(6) 0.051(7) 0.116(10) 0.040(7) 0.010(7) 0.001(6)
C34 0.024(6) 0.053(7) 0.182(14) 0.058(9) 0.008(7) -0.008(5)
C35 0.047(8) 0.045(7) 0.223(16) 0.058(10) 0.013(10) 0.005(6)
C36 0.049(9) 0.048(8) 0.282(19) 0.069(11) -0.012(11) -0.009(7)
O901 0.015(3) 0.033(4) 0.053(4) 0.009(3) -0.011(3) 0.000(3)
C901 0.030(6) 0.047(8) 0.026(8) -0.008(8) -0.007(6) 0.002(6)
O902 0.035(5) 0.034(4) 0.037(4) -0.003(4) -0.017(3) 0.002(4)
C902 0.016(4) 0.028(5) 0.022(7) -0.010(7) -0.007(5) -0.001(4)
O903 0.026(4) 0.042(5) 0.102(7) -0.019(5) 0.018(4) -0.004(3)
C903 0.027(5) 0.034(8) 0.053(9) -0.005(6) -0.008(6) -0.002(5)
O904 0.018(4) 0.058(6) 0.140(11) 0.046(8) 0.010(6) 0.009(4)
C904 0.021(5) 0.030(7) 0.047(8) 0.000(5) -0.010(5) 0.001(5)
C905 0.026(6) 0.032(8) 0.045(7) 0.007(5) 0.011(5) 0.003(6)
C906 0.034(6) 0.028(8) 0.055(8) 0.007(6) 0.007(6) 0.006(6)
C911 0.026(7) 0.028(7) 0.121(16) 0.011(8) -0.020(9) 0.008(6)
C912 0.020(6) 0.024(8) 0.126(17) 0.019(8) -0.010(9) -0.005(6)
Zn1 0.0262(3) 0.0203(2) 0.0159(2) -0.00024(17) -0.00034(17) -0.0008(2)
O1 0.0178(12) 0.0208(13) 0.0136(11) 0.0005(10) 0.0034(9) 0.0035(12)
N1 0.0223(18) 0.066(3) 0.0251(18) 0.0165(18) -0.0011(14) -0.0117(19)
C1 0.027(2) 0.052(3) 0.023(2) 0.007(2) -0.0021(17) -0.001(2)
Zn2 0.0212(2) 0.0201(2) 0.0156(2) 0.00106(17) 0.00169(16) 0.00190(19)
S2 0.0550(9) 0.0646(10) 0.0463(8) -0.0022(7) 0.0190(7) -0.0139(8)
O2 0.107(3) 0.0303(18) 0.0291(17) 0.0105(14) 0.035(2) 0.024(2)
N2 0.032(2) 0.044(2) 0.0253(18) 0.0075(16) -0.0022(15) -0.0115(18)
C2 0.023(2) 0.107(5) 0.029(2) 0.030(3) -0.0034(19) -0.006(3)
Zn3 0.0241(3) 0.0259(3) 0.0139(3) 0.0011(2) 0.0070(2) 0.0031(3)
O3 0.0264(16) 0.0275(15) 0.0249(14) 0.0086(12) 0.0000(11) -0.0083(13)
N3 0.046(3) 0.088(4) 0.055(3) 0.024(3) 0.012(2) -0.004(3)
C3 0.030(2) 0.027(2) 0.022(2) -0.0047(16) 0.0044(16) 0.0012(19)
O4 0.0319(17) 0.0362(18) 0.0202(14) -0.0073(12) 0.0047(12) -0.0136(14)
N4 0.066(4) 0.108(5) 0.058(3) 0.027(3) 0.004(3) 0.017(4)
C4 0.028(2) 0.022(2) 0.0140(17) -0.0017(14) 0.0069(15) -0.0001(17)
Zn5 0.0208(2) 0.0201(2) 0.0156(2) 0.00102(17) -0.00096(15) -0.0001(2)
N5 0.061(4) 0.148(7) 0.087(4) 0.070(5) 0.013(3) -0.006(4)
C5 0.033(2) 0.032(2) 0.022(2) 0.0070(17) 0.0082(17) 0.003(2)
O6 0.174(5) 0.044(2) 0.038(2) -0.0246(18) 0.062(3) -0.056(3)
N6 0.058(3) 0.070(3) 0.037(2) -0.002(2) 0.010(2) -0.024(3)
C6 0.039(3) 0.034(2) 0.026(2) 0.0092(18) 0.0138(19) 0.001(2)
O7 0.0420(19) 0.045(2) 0.0170(14) 0.0036(13) 0.0052(13) -0.0196(16)
N7 0.048(3) 0.051(3) 0.045(2) -0.008(2) 0.014(2) -0.005(2)
C7 0.043(3) 0.021(2) 0.0150(18) 0.0027(15) 0.0095(17) 0.0034(19)
O8 0.0360(17) 0.0312(17) 0.0215(14) 0.0077(12) 0.0076(12) 0.0076(14)
C8 0.036(3) 0.025(2) 0.025(2) 0.0009(17) -0.0015(17) -0.0007(19)
O9 0.065(2) 0.059(2) 0.0190(15) -0.0130(15) -0.0062(15) 0.036(2)
N9 0.0231(17) 0.034(2) 0.0187(16) 0.0031(14) 0.0005(13) 0.0000(16)
C9 0.031(2) 0.023(2) 0.026(2) 0.0021(16) 0.0036(17) -0.0048(18)
O10 0.0365(17) 0.0285(16) 0.0210(14) -0.0067(12) 0.0039(12) 0.0076(14)
N10 0.036(2) 0.055(3) 0.029(2) 0.0111(18) -0.0029(16) -0.009(2)
C10 0.043(3) 0.025(2) 0.0187(19) -0.0046(16) 0.0076(17) 0.000(2)
N11 0.027(2) 0.116(5) 0.042(2) 0.041(3) -0.0060(18) -0.026(3)
C11 0.022(2) 0.036(2) 0.0210(19) 0.0027(17) 0.0007(15) -0.0023(18)
C12 0.037(2) 0.024(2) 0.0168(18) -0.0014(15) 0.0063(16) 0.0021(18)
C13 0.028(2) 0.029(2) 0.0201(19) -0.0037(16) 0.0056(16) 0.0022(18)
C14 0.034(2) 0.032(2) 0.0192(19) -0.0076(17) 0.0057(17) -0.006(2)
C15 0.042(3) 0.021(2) 0.0202(19) -0.0023(16) 0.0126(17) -0.0083(19)
C16 0.044(3) 0.035(3) 0.022(2) -0.0060(18) 0.0003(18) 0.016(2)
C17 0.038(3) 0.035(2) 0.023(2) -0.0072(18) -0.0004(18) 0.013(2)
C18 0.029(2) 0.025(2) 0.0140(17) -0.0001(15) 0.0046(15) 0.0033(18)
C19 0.035(2) 0.026(2) 0.0180(18) 0.0035(16) 0.0024(16) 0.0019(19)
C20 0.082(5) 0.074(4) 0.041(3) -0.024(3) -0.004(3) 0.050(4)
C21 0.028(3) 0.091(5) 0.025(2) 0.022(3) 0.0001(19) 0.003(3)
C22 0.038(3) 0.071(4) 0.059(4) 0.040(3) 0.019(3) 0.003(3)
C23 0.052(4) 0.091(5) 0.052(4) 0.014(3) 0.003(3) 0.012(4)
C24 0.025(2) 0.079(4) 0.033(2) 0.026(3) -0.0032(19) -0.014(3)
C25 0.085(5) 0.123(7) 0.065(4) -0.044(4) -0.018(4) 0.078(5)
C26 0.066(4) 0.122(7) 0.059(4) -0.038(4) -0.022(3) 0.061(5)
C27 0.048(3) 0.069(4) 0.034(3) -0.023(3) -0.012(2) 0.030(3)
C28 0.027(3) 0.069(4) 0.053(3) 0.034(3) 0.012(2) 0.007(3)
C29 0.064(5) 0.103(6) 0.069(4) 0.046(4) 0.018(4) 0.022(4)
C30 0.055(4) 0.107(6) 0.052(4) 0.031(4) 0.001(3) -0.018(4)
C31 0.052(4) 0.064(4) 0.044(3) 0.001(3) 0.011(3) -0.016(3)
C32 0.064(4) 0.090(5) 0.042(3) 0.012(3) 0.002(3) -0.033(4)
S101 0.021(2) 0.051(3) 0.022(2) 0.0037(18) -0.0018(14) -0.0073(18)
N101 0.030(4) 0.050(6) 0.034(4) 0.014(4) -0.005(3) 0.000(4)
C101 0.024(6) 0.131(15) 0.063(8) 0.062(9) -0.011(5) -0.011(7)
N102 0.034(5) 0.135(13) 0.068(7) 0.067(8) -0.022(5) -0.016(7)
C102 0.034(6) 0.108(13) 0.071(9) 0.054(9) -0.020(6) -0.014(8)
N103 0.038(6) 0.090(10) 0.057(6) 0.040(7) -0.011(4) -0.011(6)
C103 0.034(5) 0.033(6) 0.026(5) 0.011(4) -0.010(4) -0.003(5)
C104 0.020(5) 0.054(7) 0.036(5) 0.011(5) -0.004(4) -0.004(5)
C105 0.026(5) 0.049(7) 0.031(5) 0.012(5) 0.002(4) -0.004(5)
S201 0.047(5) 0.079(6) 0.045(4) 0.036(4) -0.011(3) -0.035(4)
N201 0.028(4) 0.029(5) 0.025(4) 0.002(3) -0.004(3) 0.006(4)
C201 0.034(5) 0.024(5) 0.022(4) -0.002(4) 0.001(3) 0.001(4)
N202 0.048(6) 0.075(8) 0.029(5) 0.017(5) -0.004(4) 0.001(5)
C202 0.039(6) 0.051(7) 0.038(6) 0.012(5) -0.002(4) -0.009(5)
N203 0.030(5) 0.042(6) 0.035(4) 0.016(4) -0.007(3) 0.001(4)
C203 0.039(6) 0.053(7) 0.034(5) 0.009(5) -0.009(4) -0.001(5)
C204 0.023(5) 0.039(6) 0.025(4) 0.007(4) 0.002(3) -0.003(5)
C205 0.021(4) 0.039(6) 0.025(4) 0.003(4) -0.003(3) -0.002(4)
N501 0.054(7) 0.055(8) 0.034(5) 0.006(5) 0.003(4) -0.005(6)
C501 0.033(6) 0.053(9) 0.047(7) 0.008(6) 0.010(5) -0.005(6)
N502 0.060(8) 0.107(13) 0.063(9) 0.027(9) 0.002(6) 0.012(8)
C502 0.033(6) 0.045(8) 0.061(8) 0.004(6) 0.008(5) 0.007(5)
N503 0.051(8) 0.085(12) 0.091(11) 0.032(9) -0.005(7) -0.011(8)
C503 0.051(7) 0.036(7) 0.039(6) 0.002(6) 0.009(5) 0.003(6)
C504 0.051(8) 0.067(11) 0.064(11) 0.033(9) -0.001(7) 0.002(8)
C505 0.073(11) 0.084(13) 0.063(10) 0.027(9) -0.009(8) -0.015(10)
N601 0.067(7) 0.046(7) 0.043(6) -0.010(5) 0.006(5) -0.006(6)
C601 0.059(8) 0.039(7) 0.052(7) -0.005(6) 0.018(6) 0.000(6)
N602 0.061(9) 0.069(9) 0.081(9) 0.008(7) -0.022(7) -0.015(7)
C602 0.050(7) 0.046(8) 0.051(7) -0.002(6) 0.007(5) 0.008(6)
N603 0.093(12) 0.100(12) 0.043(7) 0.014(7) -0.010(7) -0.020(10)
C603 0.050(7) 0.041(7) 0.037(6) -0.013(5) 0.009(5) 0.004(6)
C604 0.070(11) 0.076(12) 0.083(12) -0.015(10) -0.027(9) -0.009(9)
C605 0.100(15) 0.063(11) 0.049(8) 0.013(8) 0.011(8) -0.018(10)
C701 0.029(6) 0.044(9) 0.040(7) -0.006(5) 0.011(5) 0.001(6)
C702 0.034(6) 0.041(8) 0.050(8) -0.002(6) 0.031(6) -0.003(6)
C801 0.029(6) 0.032(7) 0.049(8) 0.001(5) 0.013(5) 0.004(5)
C802 0.030(6) 0.039(8) 0.034(7) -0.001(5) 0.003(5) 0.005(6)
 
_geom_special_details
;
 All esds (except the esd in the dihedral angle between two l.s. planes)
 are estimated using the full covariance matrix.  The cell esds are taken
 into account individually in the estimation of esds in distances, angles
 and torsion angles; correlations between esds in cell parameters are only
 used when they are defined by crystal symmetry.  An approximate (isotropic)
 treatment of cell esds is used for estimating esds involving l.s. planes.
;
 
loop_
 _geom_bond_atom_site_label_1
 _geom_bond_atom_site_label_2
 _geom_bond_distance
 _geom_bond_site_symmetry_2
 _geom_bond_publ_flag
C33 C35 1.311(18) . ?
C33 C905 1.443(18) . ?
C33 H33 0.9500 . ?
C34 C36 1.343(18) . ?
C34 C906 1.387(19) . ?
C34 H34 0.9500 . ?
C35 C36 1.438(19) . ?
C35 H35 0.9500 . ?
C36 H36 0.9500 . ?
O901 C901 1.24(2) . ?
C901 O902 1.21(2) . ?
C901 C904 1.499(10) . ?
C902 O904 1.14(2) . ?
C902 O903 1.212(17) . ?
C902 C903 1.502(9) . ?
O903 Zn2 1.975(7) . ?
C903 C911 1.36(2) . ?
C903 C906 1.43(2) . ?
O904 Zn1 1.999(9) . ?
C904 C912 1.35(2) . ?
C904 C905 1.417(19) . ?
C905 C906 1.43(2) . ?
C911 C912 1.40(2) . ?
C911 H911 0.9500 . ?
C912 H912 0.9500 . ?
Zn1 O1 1.922(3) . ?
Zn1 O7 1.936(3) . ?
Zn1 O2 1.945(3) 4_565 ?
Zn1 Zn2 3.0959(6) . ?
Zn1 Zn5 3.1552(6) . ?
O1 Zn2 1.923(3) . ?
O1 Zn5 1.926(2) . ?
O1 Zn3 1.979(2) . ?
N1 C11 1.334(5) . ?
N1 N11 1.372(5) . ?
N1 C2 1.425(6) . ?
C1 N2 1.333(6) . ?
C1 C2 1.419(6) . ?
C1 C21 1.441(6) . ?
Zn2 O9 1.923(3) . ?
Zn2 O6 1.929(3) 4_575 ?
S2 N6 1.615(5) . ?
S2 N7 1.616(5) . ?
O2 C19 1.259(5) . ?
N2 S201 1.608(13) . ?
N2 S101 1.619(12) . ?
C2 C105 1.378(11) . ?
C2 C204 1.427(11) . ?
Zn3 O4 2.149(3) 4_575 ?
Zn3 O4 2.149(3) 2_645 ?
Zn3 O8 2.209(3) 4_565 ?
Zn3 O8 2.209(3) 2_655 ?
Zn3 Zn5 3.1095(4) 3_665 ?
Zn3 Zn5 3.1095(4) . ?
O3 C18 1.251(5) . ?
O3 Zn5 2.024(3) . ?
N3 C23 1.341(8) . ?
N3 N5 1.349(7) . ?
N3 C30 1.412(8) . ?
C3 O10 1.246(5) . ?
C3 O9 1.251(5) . ?
C3 C12 1.499(5) . ?
O4 C10 1.238(5) . ?
N4 C23 1.308(8) . ?
N4 C29 1.324(9) . ?
C4 C9 1.388(6) . ?
C4 C5 1.417(6) . ?
C4 C18 1.504(5) . ?
Zn5 N9 2.004(3) . ?
Zn5 O10 2.020(3) . ?
N5 C29 1.316(9) . ?
C5 C28 1.419(7) . ?
C5 C6 1.437(6) . ?
O6 C10 1.249(5) . ?
N6 C32 1.340(7) . ?
C6 C7 1.410(6) . ?
C6 C22 1.420(7) . ?
O7 C18 1.263(5) . ?
N7 C31 1.332(7) . ?
C7 C8 1.378(6) . ?
C7 C19 1.511(5) . ?
O8 C19 1.238(5) . ?
C8 C9 1.389(6) . ?
C8 H8 0.9500 . ?
N9 C11 1.330(5) . ?
N9 C24 1.361(6) . ?
C9 H9 0.9500 . ?
N10 C21 1.342(6) . ?
N10 S201 1.531(14) . ?
N10 S101 1.666(12) . ?
C10 C15 1.497(5) . ?
N11 C24 1.299(6) . ?
C11 H11 0.9500 . ?
C12 C13 1.366(6) . ?
C12 C17 1.433(6) . ?
C13 C14 1.404(5) . ?
C13 H13 0.9500 . ?
C14 C15 1.358(6) . ?
C14 H14 0.9500 . ?
C15 C16 1.423(6) . ?
C16 C20 1.410(7) . ?
C16 C17 1.436(6) . ?
C17 C27 1.415(7) . ?
C20 C25 1.353(9) . ?
C20 H20 0.9500 . ?
C21 C103 1.400(11) . ?
C21 C201 1.519(11) . ?
C21 S201 2.285(14) . ?
C22 C702 1.341(16) . ?
C22 C801 1.434(16) . ?
C22 H22 0.79(7) . ?
C23 H23 0.9500 . ?
C24 H24 0.9500 . ?
C25 C26 1.405(9) . ?
C25 H25 0.9500 . ?
C26 C27 1.355(8) . ?
C26 H26 0.9500 . ?
C27 H27 0.9500 . ?
C28 C701 1.385(14) . ?
C28 C802 1.426(15) . ?
C28 H28 0.93(7) . ?
C29 H29 0.9500 . ?
C30 C601 1.384(15) . ?
C30 C31 1.419(8) . ?
C30 C501 1.448(14) . ?
C31 C32 1.440(8) . ?
C32 C603 1.396(14) . ?
C32 C503 1.505(15) . ?
N101 C101 1.334(14) . ?
N101 N103 1.374(13) . ?
N101 C103 1.425(11) . ?
C101 N102 1.333(13) . ?
C101 H101 0.9500 . ?
N102 C102 1.348(16) . ?
C102 N103 1.301(14) . ?
C102 H102 0.9500 . ?
C103 C104 1.365(13) . ?
C104 C105 1.425(13) . ?
C104 H104 0.9500 . ?
C105 H105 0.9500 . ?
N201 C202 1.348(13) . ?
N201 N203 1.378(12) . ?
N201 C201 1.423(11) . ?
C201 C205 1.356(13) . ?
N202 C202 1.313(14) . ?
N202 C203 1.333(15) . ?
C202 H202 0.9500 . ?
N203 C203 1.327(13) . ?
C203 H203 0.9500 . ?
C204 C205 1.426(12) . ?
C204 H204 0.9500 . ?
C205 H205 0.9500 . ?
N501 C504 1.331(18) . ?
N501 N503 1.396(16) . ?
N501 C503 1.407(15) . ?
C501 C502 1.434(16) . ?
C501 H501 0.9500 . ?
N502 C504 1.32(2) . ?
N502 C505 1.33(2) . ?
C502 C503 1.362(16) . ?
C502 H502 0.9500 . ?
N503 C505 1.294(19) . ?
C504 H504 0.9500 . ?
C505 H505 0.9500 . ?
N601 N602 1.331(16) . ?
N601 C605 1.339(19) . ?
N601 C603 1.396(16) . ?
C601 C602 1.420(18) . ?
C601 H601 0.9500 . ?
N602 C604 1.35(2) . ?
C602 C603 1.363(17) . ?
C602 H602 0.9500 . ?
N603 C604 1.32(2) . ?
N603 C605 1.33(2) . ?
C604 H604 0.9500 . ?
C605 H605 0.9500 . ?
C701 C702 1.39(2) . ?
C701 H701 0.9500 . ?
C702 H702 0.9500 . ?
C801 C802 1.39(2) . ?
C801 H801 0.9500 . ?
C802 H802 0.9500 . ?
 
loop_
 _geom_angle_atom_site_label_1
 _geom_angle_atom_site_label_2
 _geom_angle_atom_site_label_3
 _geom_angle
 _geom_angle_site_symmetry_1
 _geom_angle_site_symmetry_3
 _geom_angle_publ_flag
C35 C33 C905 121.2(13) . . ?
C35 C33 H33 119.4 . . ?
C905 C33 H33 119.4 . . ?
C36 C34 C906 121.7(13) . . ?
C36 C34 H34 119.1 . . ?
C906 C34 H34 119.1 . . ?
C33 C35 C36 120.8(13) . . ?
C33 C35 H35 119.6 . . ?
C36 C35 H35 119.6 . . ?
C34 C36 C35 119.5(13) . . ?
C34 C36 H36 120.2 . . ?
C35 C36 H36 120.2 . . ?
O902 C901 O901 118.8(13) . . ?
O902 C901 C904 118.5(17) . . ?
O901 C901 C904 120.4(17) . . ?
O904 C902 O903 113.3(12) . . ?
O904 C902 C903 122.1(15) . . ?
O903 C902 C903 115.8(13) . . ?
C902 O903 Zn2 125.4(8) . . ?
C911 C903 C906 120.2(14) . . ?
C911 C903 C902 117.2(14) . . ?
C906 C903 C902 122.5(14) . . ?
C902 O904 Zn1 132.3(10) . . ?
C912 C904 C905 121.8(13) . . ?
C912 C904 C901 115.9(15) . . ?
C905 C904 C901 122.3(14) . . ?
C904 C905 C906 118.1(12) . . ?
C904 C905 C33 124.6(13) . . ?
C906 C905 C33 117.3(12) . . ?
C34 C906 C905 119.2(13) . . ?
C34 C906 C903 122.2(15) . . ?
C905 C906 C903 118.6(13) . . ?
C903 C911 C912 121.0(13) . . ?
C903 C911 H911 119.5 . . ?
C912 C911 H911 119.5 . . ?
C904 C912 C911 120.3(13) . . ?
C904 C912 H912 119.9 . . ?
C911 C912 H912 119.9 . . ?
O1 Zn1 O7 116.43(12) . . ?
O1 Zn1 O2 118.41(13) . 4_565 ?
O7 Zn1 O2 105.62(14) . 4_565 ?
O1 Zn1 O904 109.6(3) . . ?
O7 Zn1 O904 92.7(3) . . ?
O2 Zn1 O904 111.2(4) 4_565 . ?
O1 Zn1 Zn2 36.38(7) . . ?
O7 Zn1 Zn2 120.64(10) . . ?
O2 Zn1 Zn2 133.50(10) 4_565 . ?
O904 Zn1 Zn2 73.2(3) . . ?
O1 Zn1 Zn5 34.96(7) . . ?
O7 Zn1 Zn5 82.45(9) . . ?
O2 Zn1 Zn5 125.91(13) 4_565 . ?
O904 Zn1 Zn5 121.9(4) . . ?
Zn2 Zn1 Zn5 61.080(15) . . ?
Zn1 O1 Zn2 107.26(12) . . ?
Zn1 O1 Zn5 110.17(12) . . ?
Zn2 O1 Zn5 111.26(12) . . ?
Zn1 O1 Zn3 112.95(12) . . ?
Zn2 O1 Zn3 109.70(12) . . ?
Zn5 O1 Zn3 105.57(11) . . ?
C11 N1 N11 109.6(3) . . ?
C11 N1 C2 130.1(4) . . ?
N11 N1 C2 120.3(4) . . ?
N2 C1 C2 127.8(4) . . ?
N2 C1 C21 113.1(4) . . ?
C2 C1 C21 119.1(4) . . ?
O1 Zn2 O9 117.39(12) . . ?
O1 Zn2 O6 118.18(14) . 4_575 ?
O9 Zn2 O6 101.74(17) . 4_575 ?
O1 Zn2 O903 108.3(3) . . ?
O9 Zn2 O903 89.7(3) . . ?
O6 Zn2 O903 118.3(4) 4_575 . ?
O1 Zn2 Zn1 36.36(8) . . ?
O9 Zn2 Zn1 125.27(12) . . ?
O6 Zn2 Zn1 132.46(12) 4_575 . ?
O903 Zn2 Zn1 72.9(2) . . ?
N6 S2 N7 100.8(2) . . ?
C19 O2 Zn1 119.9(3) . 4_566 ?
C1 N2 S201 103.4(6) . . ?
C1 N2 S101 108.5(5) . . ?
C105 C2 C1 114.6(6) . . ?
C105 C2 N1 121.0(5) . . ?
C1 C2 N1 120.9(4) . . ?
C1 C2 C204 120.2(5) . . ?
N1 C2 C204 116.1(6) . . ?
O1 Zn3 O1 180.0 3_665 . ?
O1 Zn3 O4 82.01(10) 3_665 4_575 ?
O1 Zn3 O4 97.99(10) . 4_575 ?
O1 Zn3 O4 97.99(10) 3_665 2_645 ?
O1 Zn3 O4 82.01(10) . 2_645 ?
O4 Zn3 O4 180.00(17) 4_575 2_645 ?
O1 Zn3 O8 83.64(10) 3_665 4_565 ?
O1 Zn3 O8 96.36(10) . 4_565 ?
O4 Zn3 O8 84.36(12) 4_575 4_565 ?
O4 Zn3 O8 95.64(12) 2_645 4_565 ?
O1 Zn3 O8 96.36(10) 3_665 2_655 ?
O1 Zn3 O8 83.64(10) . 2_655 ?
O4 Zn3 O8 95.64(12) 4_575 2_655 ?
O4 Zn3 O8 84.36(12) 2_645 2_655 ?
O8 Zn3 O8 180.00(16) 4_565 2_655 ?
O1 Zn3 Zn5 36.63(7) 3_665 3_665 ?
O1 Zn3 Zn5 143.37(7) . 3_665 ?
O4 Zn3 Zn5 55.50(8) 4_575 3_665 ?
O4 Zn3 Zn5 124.50(8) 2_645 3_665 ?
O8 Zn3 Zn5 59.70(7) 4_565 3_665 ?
O8 Zn3 Zn5 120.30(7) 2_655 3_665 ?
O1 Zn3 Zn5 143.37(7) 3_665 . ?
O1 Zn3 Zn5 36.63(7) . . ?
O4 Zn3 Zn5 124.50(8) 4_575 . ?
O4 Zn3 Zn5 55.50(8) 2_645 . ?
O8 Zn3 Zn5 120.30(7) 4_565 . ?
O8 Zn3 Zn5 59.70(7) 2_655 . ?
Zn5 Zn3 Zn5 180.0 3_665 . ?
C18 O3 Zn5 137.0(3) . . ?
C23 N3 N5 109.3(5) . . ?
C23 N3 C30 130.2(5) . . ?
N5 N3 C30 120.4(5) . . ?
O10 C3 O9 124.8(4) . . ?
O10 C3 C12 117.1(4) . . ?
O9 C3 C12 118.1(4) . . ?
C10 O4 Zn3 133.1(3) . 2_655 ?
C23 N4 C29 103.0(6) . . ?
C9 C4 C5 119.9(4) . . ?
C9 C4 C18 115.2(4) . . ?
C5 C4 C18 124.8(4) . . ?
O1 Zn5 N9 152.74(12) . . ?
O1 Zn5 O10 101.85(11) . . ?
N9 Zn5 O10 97.40(13) . . ?
O1 Zn5 O3 105.01(11) . . ?
N9 Zn5 O3 91.70(13) . . ?
O10 Zn5 O3 96.40(12) . . ?
O1 Zn5 Zn3 37.80(7) . . ?
N9 Zn5 Zn3 114.96(9) . . ?
O10 Zn5 Zn3 123.87(8) . . ?
O3 Zn5 Zn3 125.12(8) . . ?
O1 Zn5 Zn1 34.88(8) . . ?
N9 Zn5 Zn1 149.10(11) . . ?
O10 Zn5 Zn1 109.14(9) . . ?
O3 Zn5 Zn1 70.35(8) . . ?
Zn3 Zn5 Zn1 62.535(11) . . ?
C29 N5 N3 101.8(6) . . ?
C4 C5 C28 123.5(4) . . ?
C4 C5 C6 118.8(4) . . ?
C28 C5 C6 117.6(4) . . ?
C10 O6 Zn2 121.2(3) . 4_576 ?
C32 N6 S2 106.4(4) . . ?
C7 C6 C22 122.4(4) . . ?
C7 C6 C5 118.7(4) . . ?
C22 C6 C5 118.9(4) . . ?
C18 O7 Zn1 124.1(3) . . ?
C31 N7 S2 106.5(4) . . ?
C8 C7 C6 121.2(4) . . ?
C8 C7 C19 116.4(4) . . ?
C6 C7 C19 122.3(4) . . ?
C19 O8 Zn3 136.6(3) . 2_645 ?
C7 C8 C9 119.9(4) . . ?
C7 C8 H8 120.0 . . ?
C9 C8 H8 120.0 . . ?
C3 O9 Zn2 123.0(3) . . ?
C11 N9 C24 103.2(3) . . ?
C11 N9 Zn5 123.2(3) . . ?
C24 N9 Zn5 133.6(3) . . ?
C4 C9 C8 121.3(4) . . ?
C4 C9 H9 119.4 . . ?
C8 C9 H9 119.4 . . ?
C3 O10 Zn5 139.7(3) . . ?
C21 N10 S201 105.2(5) . . ?
C21 N10 S101 106.8(5) . . ?
O4 C10 O6 124.1(4) . . ?
O4 C10 C15 118.8(4) . . ?
O6 C10 C15 117.0(4) . . ?
C24 N11 N1 102.9(4) . . ?
N9 C11 N1 109.6(4) . . ?
N9 C11 H11 125.2 . . ?
N1 C11 H11 125.2 . . ?
C13 C12 C17 120.3(4) . . ?
C13 C12 C3 115.7(4) . . ?
C17 C12 C3 124.0(4) . . ?
C12 C13 C14 121.7(4) . . ?
C12 C13 H13 119.2 . . ?
C14 C13 H13 119.2 . . ?
C15 C14 C13 119.8(4) . . ?
C15 C14 H14 120.1 . . ?
C13 C14 H14 120.1 . . ?
C14 C15 C16 121.2(4) . . ?
C14 C15 C10 118.5(4) . . ?
C16 C15 C10 120.3(4) . . ?
C20 C16 C15 121.3(4) . . ?
C20 C16 C17 119.6(5) . . ?
C15 C16 C17 119.1(4) . . ?
C27 C17 C12 124.7(4) . . ?
C27 C17 C16 117.5(4) . . ?
C12 C17 C16 117.8(4) . . ?
O3 C18 O7 125.1(4) . . ?
O3 C18 C4 117.5(3) . . ?
O7 C18 C4 117.4(4) . . ?
O8 C19 O2 125.1(4) . . ?
O8 C19 C7 118.5(4) . . ?
O2 C19 C7 116.4(4) . . ?
C25 C20 C16 120.2(5) . . ?
C25 C20 H20 119.9 . . ?
C16 C20 H20 119.9 . . ?
N10 C21 C103 122.4(6) . . ?
N10 C21 C1 113.0(4) . . ?
C103 C21 C1 121.4(5) . . ?
N10 C21 C201 127.8(5) . . ?
C1 C21 C201 116.4(5) . . ?
N10 C21 S201 40.3(4) . . ?
C1 C21 S201 72.8(4) . . ?
C201 C21 S201 163.2(6) . . ?
C702 C22 C6 119.5(7) . . ?
C6 C22 C801 120.7(7) . . ?
C702 C22 H22 119(5) . . ?
C6 C22 H22 119(5) . . ?
C801 C22 H22 119(5) . . ?
N4 C23 N3 110.1(6) . . ?
N4 C23 H23 124.9 . . ?
N3 C23 H23 124.9 . . ?
N11 C24 N9 114.7(4) . . ?
N11 C24 H24 122.7 . . ?
N9 C24 H24 122.7 . . ?
C20 C25 C26 121.0(6) . . ?
C20 C25 H25 119.5 . . ?
C26 C25 H25 119.5 . . ?
C27 C26 C25 120.3(6) . . ?
C27 C26 H26 119.9 . . ?
C25 C26 H26 119.9 . . ?
C26 C27 C17 121.4(5) . . ?
C26 C27 H27 119.3 . . ?
C17 C27 H27 119.3 . . ?
C701 C28 C5 119.6(7) . . ?
C5 C28 C802 120.7(7) . . ?
C701 C28 H28 119(4) . . ?
C5 C28 H28 120(4) . . ?
C802 C28 H28 118(4) . . ?
N5 C29 N4 115.8(6) . . ?
N5 C29 H29 122.1 . . ?
N4 C29 H29 122.1 . . ?
C601 C30 N3 119.8(8) . . ?
C601 C30 C31 116.2(7) . . ?
N3 C30 C31 122.1(6) . . ?
N3 C30 C501 118.5(7) . . ?
C31 C30 C501 116.1(7) . . ?
N7 C31 C30 126.2(6) . . ?
N7 C31 C32 113.3(5) . . ?
C30 C31 C32 120.5(6) . . ?
N6 C32 C603 125.7(7) . . ?
N6 C32 C31 112.9(6) . . ?
C603 C32 C31 118.4(7) . . ?
N6 C32 C503 126.1(7) . . ?
C31 C32 C503 119.1(6) . . ?
N2 S101 N10 98.5(6) . . ?
C101 N101 N103 108.7(8) . . ?
C101 N101 C103 131.5(9) . . ?
N103 N101 C103 119.8(8) . . ?
N102 C101 N101 111.2(10) . . ?
N102 C101 H101 124.4 . . ?
N101 C101 H101 124.4 . . ?
C101 N102 C102 101.1(10) . . ?
N103 C102 N102 117.0(10) . . ?
N103 C102 H102 121.5 . . ?
N102 C102 H102 121.5 . . ?
C102 N103 N101 101.9(9) . . ?
C104 C103 C21 116.5(8) . . ?
C104 C103 N101 119.8(9) . . ?
C21 C103 N101 123.1(8) . . ?
C103 C104 C105 120.9(9) . . ?
C103 C104 H104 119.6 . . ?
C105 C104 H104 119.6 . . ?
C2 C105 C104 123.3(8) . . ?
C2 C105 H105 118.4 . . ?
C104 C105 H105 118.4 . . ?
N10 S201 N2 104.9(7) . . ?
N10 S201 C21 34.5(3) . . ?
N2 S201 C21 70.5(5) . . ?
C202 N201 N203 108.8(8) . . ?
C202 N201 C201 133.1(9) . . ?
N203 N201 C201 118.1(8) . . ?
C205 C201 N201 120.8(9) . . ?
C205 C201 C21 120.4(7) . . ?
N201 C201 C21 118.3(8) . . ?
C202 N202 C203 103.5(9) . . ?
N202 C202 N201 110.4(10) . . ?
N202 C202 H202 124.8 . . ?
N201 C202 H202 124.8 . . ?
C203 N203 N201 101.5(8) . . ?
N203 C203 N202 115.7(10) . . ?
N203 C203 H203 122.2 . . ?
N202 C203 H203 122.2 . . ?
C205 C204 C2 119.1(8) . . ?
C205 C204 H204 120.4 . . ?
C2 C204 H204 120.4 . . ?
C201 C205 C204 121.5(9) . . ?
C201 C205 H205 119.3 . . ?
C204 C205 H205 119.3 . . ?
C504 N501 N503 107.7(11) . . ?
C504 N501 C503 132.4(12) . . ?
N503 N501 C503 119.9(10) . . ?
C502 C501 C30 122.3(10) . . ?
C502 C501 H501 118.8 . . ?
C30 C501 H501 118.8 . . ?
C504 N502 C505 101.9(14) . . ?
C503 C502 C501 120.8(11) . . ?
C503 C502 H502 119.6 . . ?
C501 C502 H502 119.6 . . ?
C505 N503 N501 101.6(12) . . ?
C502 C503 N501 118.9(11) . . ?
C502 C503 C32 118.2(10) . . ?
N501 C503 C32 122.5(10) . . ?
N502 C504 N501 111.5(15) . . ?
N502 C504 H504 124.3 . . ?
N501 C504 H504 124.3 . . ?
N503 C505 N502 117.1(15) . . ?
N503 C505 H505 121.4 . . ?
N502 C505 H505 121.4 . . ?
N602 N601 C605 109.1(14) . . ?
N602 N601 C603 119.9(11) . . ?
C605 N601 C603 130.9(14) . . ?
C30 C601 C602 120.8(11) . . ?
C30 C601 H601 119.6 . . ?
C602 C601 H601 119.6 . . ?
N601 N602 C604 102.6(13) . . ?
C603 C602 C601 121.0(12) . . ?
C603 C602 H602 119.5 . . ?
C601 C602 H602 119.5 . . ?
C604 N603 C605 102.3(14) . . ?
C602 C603 C32 119.3(11) . . ?
C602 C603 N601 120.2(12) . . ?
C32 C603 N601 119.2(11) . . ?
N603 C604 N602 114.7(15) . . ?
N603 C604 H604 122.6 . . ?
N602 C604 H604 122.6 . . ?
N603 C605 N601 111.2(17) . . ?
N603 C605 H605 124.4 . . ?
N601 C605 H605 124.4 . . ?
C28 C701 C702 119.8(13) . . ?
C28 C701 H701 120.1 . . ?
C702 C701 H701 120.1 . . ?
C22 C702 C701 121.5(11) . . ?
C22 C702 H702 119.2 . . ?
C701 C702 H702 119.2 . . ?
C802 C801 C22 118.1(12) . . ?
C802 C801 H801 121.0 . . ?
C22 C801 H801 121.0 . . ?
C801 C802 C28 119.9(12) . . ?
C801 C802 H802 120.0 . . ?
C28 C802 H802 120.0 . . ?
 
_refine_diff_density_max    0.987
_refine_diff_density_min   -0.759
_refine_diff_density_rms    0.088

_shelx_res_file
;
TITL pvl810_auto_a.res in P2(1)/c
    pvl810_auto_a.res
    created by SHELXL-2018/3 at 13:18:54 on 19-Dec-2021
REM Old TITL pvl810_auto in P2(1)/c
REM SHELXT solution in P2(1)/c: R1 0.152, Rweak 0.007, Alpha 0.070
REM <I/s>   4.368 for  358 systematic absences,  Orientation as input
REM Formula found by SHELXT:  C112 N38 O20 S4 Zn7
CELL  0.71073  15.3786  17.3699  19.0255   90.000   97.253   90.000
ZERR   57.000   0.0007   0.0008   0.0007    0.000    0.004    0.000
LATT  1
SYMM -X, 1/2+Y, 1/2-Z
SFAC C H N O S ZN
UNIT 200 108 64 44 8 14
FLAT 0.05 C901 C904 C912 C911 C903 C902 C906 C34 C36 C35 C33 C905
SADI 0.01 C904 C901 C903 C902
SIMU 0.04 0.08 4 C33 C35 C36 C34
LIST 4

BOND $H
ACTA
REM LIST 4
REM LIST 4
TEMP -103
L.S. 10
REM LIST 6
OMIT 0
OMIT -3   4   3
OMIT 1   5   2
OMIT -1   2   5
OMIT -5   7   6
OMIT -9   6   1
OMIT -5   6   7
OMIT -2   4   4
FMAP 2
PLAN 20
WGHT    0.017000   18.105799
FVAR       0.18780   0.50758   0.49584
PART -9
C33   1   -0.088844    0.653182   -0.026641    10.50000    0.03816    0.05109 =
         0.11599    0.04028    0.00995    0.00050
AFIX  43
H33   2   -0.150591    0.655176   -0.039156    10.50000   -1.20000
AFIX   0
C34   1    0.091856    0.648475    0.007228    10.50000    0.02365    0.05250 =
         0.18248    0.05793    0.00751   -0.00823
AFIX  43
H34   2    0.154041    0.647672    0.016116    10.50000   -1.20000
AFIX   0
C35   1   -0.042652    0.716499   -0.028102    10.50000    0.04691    0.04516 =
         0.22259    0.05771    0.01339    0.00529
AFIX  43
H35   2   -0.071287    0.763515   -0.042141    10.50000   -1.20000
AFIX   0
C36   1    0.050793    0.715644   -0.008720    10.50000    0.04890    0.04834 =
         0.28231    0.06897   -0.01227   -0.00868
AFIX  43
H36   2    0.083263    0.762272   -0.007205    10.50000   -1.20000
AFIX   0
O901  4   -0.227658    0.440673   -0.017786    10.50000    0.01479    0.03309 =
         0.05309    0.00922   -0.01091   -0.00022
C901  1   -0.190494    0.503862   -0.020216    10.50000    0.02983    0.04679 =
         0.02571   -0.00830   -0.00723    0.00181
O902  4   -0.233679    0.562008   -0.019652    10.50000    0.03499    0.03420 =
         0.03657   -0.00267   -0.01666    0.00207
C902  1    0.186617    0.501653    0.045487    10.50000    0.01586    0.02770 =
         0.02161   -0.01007   -0.00666   -0.00061
O903  4    0.224630    0.556794    0.073788    10.50000    0.02576    0.04211 =
         0.10229   -0.01867    0.01770   -0.00409
C903  1    0.088725    0.508730    0.030410    10.50000    0.02660    0.03417 =
         0.05253   -0.00474   -0.00783   -0.00243
O904  4    0.220396    0.444299    0.060993    10.50000    0.01808    0.05793 =
         0.13973    0.04576    0.01044    0.00857
C904  1   -0.092841    0.509809   -0.003108    10.50000    0.02102    0.02955 =
         0.04703    0.00018   -0.00964    0.00068
C905  1   -0.047554    0.580537   -0.006364    10.50000    0.02644    0.03205 =
         0.04498    0.00741    0.01052    0.00300
C906  1    0.045836    0.580252    0.011057    10.50000    0.03437    0.02836 =
         0.05543    0.00748    0.00739    0.00592
C911  1    0.040989    0.443465    0.034219    10.50000    0.02642    0.02805 =
         0.12111    0.01069   -0.02038    0.00811
AFIX  43
H911  2    0.069835    0.396947    0.049597    10.50000   -1.20000
AFIX   0
C912  1   -0.050369    0.443625    0.015783    10.50000    0.02005    0.02438 =
         0.12560    0.01852   -0.00951   -0.00461
AFIX  43
H912  2   -0.082366    0.396921    0.016625    10.50000   -1.20000
AFIX   0
PART 0
ZN1   6    0.345929    0.411432    0.070371    11.00000    0.02616    0.02025 =
         0.01586   -0.00024   -0.00034   -0.00079
O1    4    0.420107    0.500754    0.073764    11.00000    0.01776    0.02077 =
         0.01358    0.00045    0.00340    0.00352
N1    3    0.712436    0.482071    0.310617    11.00000    0.02226    0.06558 =
         0.02507    0.01652   -0.00112   -0.01172
C1    1    0.717341    0.413699    0.425124    11.00000    0.02720    0.05223 =
         0.02292    0.00699   -0.00207   -0.00149
ZN2   6    0.344823    0.589402    0.061447    11.00000    0.02119    0.02009 =
         0.01556    0.00106    0.00169    0.00190
S2    5    0.616088    0.479370    0.652695    11.00000    0.05500    0.06458 =
         0.04627   -0.00219    0.01901   -0.01389
O2    4    0.363615    0.169777    0.503228    11.00000    0.10681    0.03030 =
         0.02914    0.01054    0.03483    0.02384
N2    3    0.632354    0.396768    0.421731    11.00000    0.03233    0.04421 =
         0.02530    0.00750   -0.00223   -0.01152
C2    1    0.760061    0.455033    0.375014    11.00000    0.02254    0.10749 =
         0.02940    0.03045   -0.00335   -0.00588
ZN3   6    0.500000    0.500000    0.000000    10.50000    0.02414    0.02587 =
         0.01388    0.00107    0.00696    0.00311
O3    4    0.453171    0.417879    0.221042    11.00000    0.02636    0.02754 =
         0.02494    0.00859    0.00002   -0.00827
N3    3    0.726489    0.618883    0.483504    11.00000    0.04620    0.08751 =
         0.05506    0.02441    0.01171   -0.00425
C3    1    0.388288    0.645627    0.199817    11.00000    0.02968    0.02671 =
         0.02182   -0.00469    0.00442    0.00116
O4    4    0.425407    0.925263    0.425101    11.00000    0.03186    0.03622 =
         0.02022   -0.00731    0.00466   -0.01356
N4    3    0.635476    0.642862    0.389208    11.00000    0.06558    0.10791 =
         0.05780    0.02727    0.00387    0.01722
C4    1    0.382074    0.319652    0.277726    11.00000    0.02847    0.02211 =
         0.01398   -0.00169    0.00691   -0.00007
ZN5   6    0.494985    0.504705    0.162820    11.00000    0.02082    0.02013 =
         0.01562    0.00102   -0.00096   -0.00005
N5    3    0.772578    0.660930    0.441467    11.00000    0.06076    0.14841 =
         0.08717    0.07015    0.01347   -0.00610
C5    1    0.302048    0.287553    0.293504    11.00000    0.03313    0.03212 =
         0.02228    0.00703    0.00815    0.00255
O6    4    0.359960    0.840032    0.485644    11.00000    0.17436    0.04399 =
         0.03789   -0.02457    0.06180   -0.05558
N6    3    0.713226    0.473203    0.695917    11.00000    0.05835    0.07032 =
         0.03710   -0.00190    0.01046   -0.02422
C6    1    0.303733    0.235451    0.352322    11.00000    0.03912    0.03398 =
         0.02622    0.00921    0.01377    0.00094
O7    4    0.338379    0.359844    0.159628    11.00000    0.04199    0.04522 =
         0.01697    0.00364    0.00519   -0.01958
N7    3    0.635783    0.529822    0.585113    11.00000    0.04757    0.05075 =
         0.04453   -0.00758    0.01377   -0.00455
C7    1    0.385411    0.215105    0.389976    11.00000    0.04340    0.02068 =
         0.01505    0.00268    0.00955    0.00342
O8    4    0.432874    0.093310    0.435440    11.00000    0.03596    0.03125 =
         0.02146    0.00772    0.00763    0.00765
C8    1    0.462234    0.247386    0.373690    11.00000    0.03609    0.02465 =
         0.02505    0.00091   -0.00155   -0.00066
AFIX  43
H8    2    0.516652    0.233106    0.399720    11.00000   -1.20000
AFIX   0
O9    4    0.345057    0.658132    0.140719    11.00000    0.06519    0.05930 =
         0.01896   -0.01300   -0.00617    0.03607
N9    3    0.612699    0.505954    0.221614    11.00000    0.02307    0.03378 =
         0.01873    0.00314    0.00051   -0.00002
C9    1    0.460045    0.300841    0.319163    11.00000    0.03062    0.02319 =
         0.02597    0.00214    0.00358   -0.00482
AFIX  43
H9    2    0.512918    0.324981    0.310062    11.00000   -1.20000
AFIX   0
O10   4    0.440113    0.590901    0.213282    11.00000    0.03650    0.02854 =
         0.02098   -0.00674    0.00391    0.00760
N10   3    0.719755    0.348576    0.531947    11.00000    0.03602    0.05490 =
         0.02885    0.01108   -0.00291   -0.00918
C10   1    0.389383    0.862267    0.430860    11.00000    0.04259    0.02518 =
         0.01871   -0.00456    0.00757    0.00028
N11   3    0.753501    0.525353    0.264294    11.00000    0.02740    0.11598 =
         0.04151    0.04051   -0.00600   -0.02627
C11   1    0.628649    0.471731    0.284465    11.00000    0.02171    0.03591 =
         0.02097    0.00273    0.00065   -0.00231
AFIX  43
H11   2    0.586766    0.444149    0.307234    11.00000   -1.20000
AFIX   0
C12   1    0.380107    0.701802    0.258465    11.00000    0.03714    0.02435 =
         0.01683   -0.00137    0.00633    0.00207
C13   1    0.451041    0.706917    0.309253    11.00000    0.02849    0.02949 =
         0.02014   -0.00372    0.00561    0.00224
AFIX  43
H13   2    0.499653    0.673756    0.306645    11.00000   -1.20000
AFIX   0
C14   1    0.453964    0.759901    0.365200    11.00000    0.03427    0.03239 =
         0.01918   -0.00763    0.00567   -0.00580
AFIX  43
H14   2    0.504523    0.762999    0.399372    11.00000   -1.20000
AFIX   0
C15   1    0.384366    0.806711    0.370361    11.00000    0.04177    0.02128 =
         0.02018   -0.00231    0.01257   -0.00830
C16   1    0.307165    0.802195    0.320672    11.00000    0.04411    0.03526 =
         0.02187   -0.00603    0.00033    0.01552
C17   1    0.304843    0.749461    0.262352    11.00000    0.03801    0.03452 =
         0.02334   -0.00723   -0.00039    0.01336
C18   1    0.391432    0.370457    0.215085    11.00000    0.02904    0.02502 =
         0.01396   -0.00014    0.00464    0.00333
C19   1    0.394277    0.153733    0.446677    11.00000    0.03548    0.02578 =
         0.01804    0.00354    0.00235    0.00192
C20   1    0.233611    0.848789    0.327358    11.00000    0.08177    0.07432 =
         0.04100   -0.02353   -0.00436    0.04988
AFIX  43
H20   2    0.235023    0.884033    0.365669    11.00000   -1.20000
AFIX   0
C21   1    0.768134    0.386361    0.489117    11.00000    0.02803    0.09127 =
         0.02504    0.02157    0.00006    0.00251
C22   1    0.223359    0.204588    0.369145    11.00000    0.03779    0.07104 =
         0.05866    0.04007    0.01894    0.00296
H22   2    0.223733    0.178140    0.403257    11.00000   -1.50000
C23   1    0.644616    0.608964    0.451114    11.00000    0.05213    0.09089 =
         0.05195    0.01419    0.00326    0.01156
AFIX  43
H23   2    0.599791    0.581348    0.470324    11.00000   -1.20000
AFIX   0
C24   1    0.691588    0.537234    0.212337    11.00000    0.02541    0.07884 =
         0.03268    0.02551   -0.00323   -0.01354
AFIX  43
H24   2    0.700671    0.565509    0.171147    11.00000   -1.20000
AFIX   0
C25   1    0.160990    0.843480    0.279382    11.00000    0.08496    0.12301 =
         0.06493   -0.04396   -0.01833    0.07825
AFIX  43
H25   2    0.111886    0.875311    0.284293    11.00000   -1.20000
AFIX   0
C26   1    0.157135    0.791600    0.222424    11.00000    0.06557    0.12180 =
         0.05888   -0.03819   -0.02190    0.06142
AFIX  43
H26   2    0.105101    0.787697    0.189915    11.00000   -1.20000
AFIX   0
C27   1    0.227339    0.747105    0.213671    11.00000    0.04809    0.06907 =
         0.03404   -0.02272   -0.01181    0.03044
AFIX  43
H27   2    0.224450    0.713597    0.173980    11.00000   -1.20000
AFIX   0
C28   1    0.219286    0.305074    0.254987    11.00000    0.02686    0.06873 =
         0.05294    0.03400    0.01243    0.00661
H28   2    0.215763    0.340000    0.217917    11.00000   -1.50000
C29   1    0.713820    0.673370    0.386129    11.00000    0.06419    0.10274 =
         0.06899    0.04558    0.01838    0.02228
AFIX  43
H29   2    0.726792    0.702422    0.346445    11.00000   -1.20000
AFIX   0
C30   1    0.767696    0.588811    0.548208    11.00000    0.05484    0.10733 =
         0.05166    0.03114    0.00146   -0.01849
C31   1    0.721488    0.544401    0.593942    11.00000    0.05201    0.06410 =
         0.04413    0.00099    0.01103   -0.01611
C32   1    0.766672    0.511779    0.657950    11.00000    0.06373    0.09038 =
         0.04238    0.01227    0.00153   -0.03314
PART 1
S101  5    0.616103    0.352934    0.494030    21.00000    0.02139    0.05064 =
         0.02198    0.00370   -0.00178   -0.00733
N101  3    0.910829    0.345311    0.554135    21.00000    0.02996    0.04990 =
         0.03432    0.01413   -0.00470   -0.00001
C101  1    0.890732    0.295307    0.602826    21.00000    0.02366    0.13106 =
         0.06306    0.06151   -0.01136   -0.01101
AFIX  43
H101  2    0.833639    0.275307    0.605003    21.00000   -1.20000
AFIX   0
N102  3    0.961120    0.277049    0.648013    21.00000    0.03377    0.13471 =
         0.06795    0.06698   -0.02202   -0.01571
C102  1    1.023028    0.320740    0.623318    21.00000    0.03417    0.10848 =
         0.07099    0.05412   -0.02033   -0.01364
AFIX  43
H102  2    1.082186    0.320102    0.644940    21.00000   -1.20000
AFIX   0
N103  3    0.998119    0.363844    0.568517    21.00000    0.03775    0.08957 =
         0.05682    0.04050   -0.01077   -0.01125
C103  1    0.859285    0.378105    0.494052    21.00000    0.03357    0.03259 =
         0.02641    0.01075   -0.01002   -0.00286
C104  1    0.899472    0.412795    0.442453    21.00000    0.02027    0.05362 =
         0.03632    0.01129   -0.00387   -0.00406
AFIX  43
H104  2    0.961609    0.416180    0.447647    21.00000   -1.20000
AFIX   0
C105  1    0.849453    0.444007    0.380884    21.00000    0.02609    0.04939 =
         0.03073    0.01198    0.00185   -0.00417
AFIX  43
H105  2    0.879199    0.457916    0.341929    21.00000   -1.20000
AFIX   0
PART 2
S201  5    0.627313    0.345329    0.491391   -21.00000    0.04688    0.07917 =
         0.04468    0.03646   -0.01091   -0.03543
N201  3    0.908973    0.399327    0.572280   -21.00000    0.02802    0.02948 =
         0.02467    0.00237   -0.00447    0.00645
C201  1    0.857575    0.423129    0.508512   -21.00000    0.03386    0.02371 =
         0.02189   -0.00210    0.00084    0.00115
N202  3    0.961021    0.350511    0.674884   -21.00000    0.04820    0.07472 =
         0.02869    0.01728   -0.00412    0.00097
C202  1    0.890363    0.359015    0.629033   -21.00000    0.03862    0.05127 =
         0.03810    0.01205   -0.00185   -0.00907
AFIX  43
H202  2    0.834060    0.339502    0.635023   -21.00000   -1.20000
AFIX   0
N203  3    0.996270    0.419733    0.582474   -21.00000    0.03004    0.04237 =
         0.03542    0.01558   -0.00722    0.00079
C203  1    1.022599    0.387761    0.644886   -21.00000    0.03914    0.05272 =
         0.03362    0.00936   -0.00908   -0.00060
AFIX  43
H203  2    1.081510    0.391193    0.666776   -21.00000   -1.20000
AFIX   0
C204  1    0.842382    0.491372    0.396304   -21.00000    0.02323    0.03895 =
         0.02474    0.00740    0.00184   -0.00292
AFIX  43
H204  2    0.863914    0.529652    0.367296   -21.00000   -1.20000
AFIX   0
C205  1    0.891909    0.469478    0.461694   -21.00000    0.02092    0.03905 =
         0.02456    0.00330   -0.00333   -0.00235
AFIX  43
H205  2    0.950256    0.487767    0.472708   -21.00000   -1.20000
AFIX   0
PART 5
N501  3    0.913679    0.471470    0.725591    31.00000    0.05448    0.05469 =
         0.03385    0.00645    0.00323   -0.00493
C501  1    0.862089    0.579988    0.557426    31.00000    0.03276    0.05346 =
         0.04730    0.00842    0.01048   -0.00488
AFIX  43
H501  2    0.894225    0.598131    0.521273    31.00000   -1.20000
AFIX   0
N502  3    0.961344    0.397189    0.815265    31.00000    0.05998    0.10654 =
         0.06331    0.02712    0.00160    0.01241
C502  1    0.908770    0.544827    0.619210    31.00000    0.03323    0.04460 =
         0.06114    0.00439    0.00802    0.00681
AFIX  43
H502  2    0.970887    0.548239    0.627206    31.00000   -1.20000
AFIX   0
N503  3    1.003660    0.484875    0.740079    31.00000    0.05123    0.08531 =
         0.09088    0.03229   -0.00500   -0.01070
C503  1    0.865145    0.506608    0.666556    31.00000    0.05149    0.03627 =
         0.03912    0.00165    0.00886    0.00271
C504  1    0.891849    0.421267    0.773227    31.00000    0.05061    0.06680 =
         0.06400    0.03296   -0.00125    0.00175
AFIX  43
H504  2    0.833585    0.404843    0.776545    31.00000   -1.20000
AFIX   0
C505  1    1.024756    0.440600    0.794242    31.00000    0.07297    0.08411 =
         0.06299    0.02739   -0.00881   -0.01514
AFIX  43
H505  2    1.082900    0.439087    0.818001    31.00000   -1.20000
AFIX   0
PART 6
N601  3    0.893674    0.510422    0.746066   -31.00000    0.06718    0.04594 =
         0.04310   -0.00972    0.00613   -0.00554
C601  1    0.848215    0.617484    0.577337   -31.00000    0.05875    0.03922 =
         0.05180   -0.00507    0.01766    0.00014
AFIX  43
H601  2    0.874331    0.658445    0.554384   -31.00000   -1.20000
AFIX   0
N602  3    0.977038    0.529312    0.765794   -31.00000    0.06071    0.06865 =
         0.08079    0.00807   -0.02229   -0.01535
C602  1    0.892230    0.586391    0.641118   -31.00000    0.04990    0.04581 =
         0.05068   -0.00184    0.00654    0.00751
AFIX  43
H602  2    0.952576    0.597496    0.654288   -31.00000   -1.20000
AFIX   0
N603  3    0.934987    0.439808    0.840410   -31.00000    0.09347    0.10007 =
         0.04282    0.01420   -0.00988   -0.02028
C603  1    0.849180    0.540841    0.683737   -31.00000    0.05039    0.04079 =
         0.03691   -0.01257    0.00868    0.00386
C604  1    0.999156    0.483974    0.823101   -31.00000    0.06993    0.07570 =
         0.08319   -0.01502   -0.02695   -0.00925
AFIX  43
H604  2    1.056236    0.483846    0.848886   -31.00000   -1.20000
AFIX   0
C605  1    0.868924    0.458258    0.791384   -31.00000    0.09979    0.06251 =
         0.04871    0.01270    0.01134   -0.01822
AFIX  43
H605  2    0.811609    0.437181    0.788827   -31.00000   -1.20000
AFIX   0
PART 7
C701  1    0.143375    0.286335    0.283353    10.50000    0.02898    0.04436 =
         0.04044   -0.00604    0.01062    0.00112
AFIX  43
H701  2    0.088744    0.307518    0.263626    10.50000   -1.20000
AFIX   0
C702  1    0.147437    0.236365    0.340852    10.50000    0.03371    0.04099 =
         0.04955   -0.00246    0.03092   -0.00274
AFIX  43
H702  2    0.095244    0.224490    0.360512    10.50000   -1.20000
AFIX   0
PART 8
C801  1    0.145598    0.207892    0.318926    10.50000    0.02927    0.03160 =
         0.04905    0.00062    0.01347    0.00373
AFIX  43
H801  2    0.096203    0.176660    0.324446    10.50000   -1.20000
AFIX   0
C802  1    0.144613    0.258249    0.261805    10.50000    0.02962    0.03931 =
         0.03414   -0.00094    0.00310    0.00489
AFIX  43
H802  2    0.094252    0.261388    0.227436    10.50000   -1.20000
REM #####
PART 0
AFIX   0
HKLF 4




REM  pvl810_auto_a.res in P2(1)/c
REM wR2 = 0.1154, GooF = S = 1.209, Restrained GooF = 1.209 for all data
REM R1 = 0.0540 for 9272 Fo > 4sig(Fo) and 0.0668 for all 11156 data
REM 996 parameters refined using 46 restraints

END

WGHT      0.0170     18.1058

REM Highest difference peak  0.987,  deepest hole -0.759,  1-sigma level  0.088
Q1    1   0.0382  0.7149  0.0745  11.00000  0.05    0.99
Q2    1   0.3813  0.8312  0.4903  11.00000  0.05    0.76
Q3    1   0.3203  0.8661  0.4737  11.00000  0.05    0.68
Q4    1   0.3213  0.1471  0.4838  11.00000  0.05    0.64
Q5    1   0.3031  0.3707  0.0656  11.00000  0.05    0.58
Q6    1  -0.1188  0.7084 -0.0080  11.00000  0.05    0.53
Q7    1   0.3852  0.1653  0.4992  11.00000  0.05    0.47
Q8    1   0.5565  0.5819  0.4104  11.00000  0.05    0.45
Q9    1   0.3864  0.6332  0.0697  11.00000  0.05    0.44
Q10   1   0.4503  0.5474  0.1589  11.00000  0.05    0.43
Q11   1   0.1698  0.8680  0.2706  11.00000  0.05    0.42
Q12   1   0.3012  0.5518  0.0593  11.00000  0.05    0.41
Q13   1   0.3925  0.3756  0.0711  11.00000  0.05    0.41
Q14   1   0.2593  0.7336  0.2475  11.00000  0.05    0.41
Q15   1   0.1876  0.8298  0.3178  11.00000  0.05    0.41
Q16   1   0.4618  0.8930  0.4422  11.00000  0.05    0.40
Q17   1   0.3886  0.4570  0.0736  11.00000  0.05    0.40
Q18   1   0.3993  0.5520  0.0676  11.00000  0.05    0.39
Q19   1   0.4489  0.4626  0.1660  11.00000  0.05    0.39
Q20   1   0.5491  0.4701  0.0088  11.00000  0.05    0.37
;
_shelx_res_checksum    8873

_shelx_hkl_file
;
   0   0   2  961.37   11.97
   0   0   2  934.79   11.98
   0   0   3    2.19    0.53
   0   0   3    2.28    0.67
   0   0  -3    4.20    0.64
   0   0  -3    2.95    0.60
   0   0   4  885.53   15.08
   0   0  -4  892.27   15.02
   0   0   4  888.09   15.01
   0   0  -4  905.89   15.03
   0   0   5    4.06    1.02
   0   0   5    5.88    0.97
   0   0  -5    4.85    0.96
   0   0  -5    7.01    1.02
   0   0   6   72.76    2.88
   0   0   6   77.10    2.90
   0   0  -6   73.71    2.79
   0   0  -6   76.99    2.86
   0   0   7    4.11    1.25
   0   0  -7    2.39    0.68
   0   0  -7    1.88    0.95
   0   0  -7    2.35    1.03
   0   0   7    2.69    0.97
   0   0   8  647.35   12.80
   0   0   8  646.14   12.81
   0   0  -8  641.18   12.72
   0   0  -8  630.92   11.42
   0   0   9   -0.49    0.99
   0   0  -9   -1.19    1.14
   0   0   9   -0.01    1.09
   0   0  -9    1.48    0.65
   0   0  10  182.09    5.83
   0   0  10  190.40    5.92
   0   0 -10  173.28    5.68
   0   0 -10  179.71    4.70
   0   0 -11    8.27    1.62
   0   0  11    9.18    1.54
   0   0  11    5.75    1.53
   0   0 -11    8.86    1.16
   0   0  12  999.56   20.08
   0   0 -12 1002.51   19.98
   0   0  12 1037.68   20.23
   0   0 -12 1011.13   18.13
   0   0 -13    4.06    1.35
   0   0  13    2.76    1.38
   0   0 -13    1.82    0.74
   0   0 -14 2378.20   42.07
   0   0  14 2413.55   42.30
   0   0 -14 2409.33   39.68
   0   0 -15    3.58    1.59
   0   0  15    3.70    1.48
   0   0 -15    4.82    1.16
   0   0 -16  355.55   10.66
   0   0  16  346.21   10.67
   0   0 -16  358.10    8.83
   0   0 -17    5.38    1.74
   0   0  17    7.72    2.11
   0   0 -17    8.28    1.49
   0   0 -18  583.09   15.47
   0   0  18  588.71   15.75
   0   0 -18  574.86   13.02
   0   0 -19    3.09    2.01
   0   0  19    0.48    1.82
   0   0  20   23.79    3.30
   0   0  21   -2.20    2.05
   0   0  22  156.57    8.21
   0   0  23    3.55    1.89
   0  -1   2    3.23    0.51
   0  -1  -2    2.23    0.46
   0   1   2    2.59    0.53
   0  -1   3  337.00    6.20
   0   1  -3  335.06    6.20
   0  -1  -3  326.97    6.15
   0   1   3  330.14    6.20
   0   1  -3  303.06    5.54
   0  -1   3  339.70    5.52
   0  -1  -4  228.83    5.01
   0   1   4  226.69    5.02
   0   1  -4  234.53    5.02
   0  -1   4  229.25    5.01
   0  -1  -4  231.05    5.00
   0  -1   4  230.57    5.00
   0  -1   4  227.79    4.19
   0   1  -4  232.11    4.29
   0   1  -5  643.12   11.74
   0  -1   5  652.82   11.71
   0  -1   5  652.82   11.76
   0  -1  -5  633.22   11.64
   0  -1  -5  641.57   11.70
   0   1   5  651.82   11.79
   0   1  -5  636.91   10.70
   0  -1  -6   35.25    1.92
   0  -1   6   32.10    1.98
   0   1  -6   34.44    1.93
   0  -1   6   33.35    1.92
   0   1   6   31.18    1.99
   0  -1  -6   33.70    1.92
   0   1  -6   31.67    1.38
   0  -1  -7  466.65    9.58
   0   1  -7  452.02    9.59
   0  -1   7  470.27    9.72
   0  -1  -7  463.73    9.64
   0   1   7  462.52    9.69
   0  -1   7  456.94    9.72
   0   1  -7  458.99    8.43
   0  -1   8   81.58    3.40
   0  -1  -8   82.00    3.53
   0   1  -8   85.72    3.43
   0  -1  -8   84.54    3.41
   0   1   8   79.75    3.41
   0  -1   8   77.03    3.33
   0   1  -8   80.22    2.55
   0  -1   9  750.26   14.77
   0  -1  -9  732.60   14.65
   0  -1  -9  731.59   14.58
   0   1  -9  733.34   14.65
   0  -1   9  744.02   14.79
   0   1   9  731.81   14.67
   0   1  -9  745.18   13.13
   0  -1  10   16.04    1.83
   0  -1 -10   12.00    1.66
   0  -1 -10   14.76    1.78
   0   1 -10   14.82    1.82
   0  -1  10   13.58    1.77
   0   1  10   16.86    1.91
   0   1 -10   16.43    1.35
   0   1  11    4.61    1.38
   0  -1  11    3.99    1.36
   0   1 -11    2.74    1.27
   0  -1 -11    4.64    1.34
   0  -1  11    4.55    1.11
   0  -1 -11    1.92    1.16
   0  -1 -11    3.97    0.94
   0   1 -11    3.91    0.91
   0   1 -12   16.26    1.97
   0  -1 -12   13.35    1.73
   0  -1  12   18.11    1.94
   0   1  12   14.90    1.95
   0  -1  12   16.94    2.03
   0  -1 -12   16.74    1.55
   0   1 -12   17.73    1.44
   0   1  13 1012.80   20.71
   0  -1  13 1009.37   20.79
   0  -1 -13 1008.27   20.55
   0   1 -13 1025.79   20.76
   0  -1  13 1088.73   21.16
   0  -1 -13 1016.73   18.76
   0   1 -13 1028.36   18.53
   0   1  14   61.12    3.84
   0  -1  14   60.12    3.84
   0   1 -14   63.10    3.81
   0  -1 -14   61.28    3.77
   0  -1 -14   57.52    2.92
   0   1 -14   58.16    2.78
   0  -1  15  244.86    8.36
   0   1  15  240.17    8.29
   0   1 -15  241.75    8.24
   0  -1 -15  241.98    8.18
   0  -1 -15  237.46    6.73
   0   1 -15  232.66    6.48
   0  -1 -16    8.31    1.97
   0   1 -16    7.06    1.95
   0   1  16    8.99    2.08
   0  -1  16    8.08    1.96
   0  -1 -16    6.96    1.36
   0   1 -16    9.45    1.54
   0  -1 -17  203.61    7.98
   0  -1  17  209.09    8.21
   0   1  17  212.24    8.32
   0  -1 -17  220.03    6.67
   0   1 -17  200.25    6.35
   0  -1 -18   24.05    3.02
   0   1  18   19.09    2.65
   0  -1  18   24.26    3.14
   0  -1 -18   23.33    2.26
   0   1 -18   21.74    2.10
   0  -1 -19  138.21    6.86
   0   1  19  143.28    7.15
   0  -1  19  139.67    7.06
   0  -1 -19  129.77    5.32
   0  -1  20   29.31    3.53
   0   1  20   31.80    3.78
   0  -1 -20   30.31    3.63
   0   1  21  287.84   11.08
   0  -1  21  305.92   11.41
   0  -1 -21  278.28   10.74
   0   1  22   26.31    3.61
   0  -1  22   18.70    3.20
   0  -1  23   12.32    2.93
   0  -2   0 5327.21   77.23
   0   2   0 4872.35   77.33
   0   2  -1    4.64    0.49
   0  -2   1    5.48    0.55
   0  -2   2  714.40   11.37
   0  -2  -3   59.90    2.00
   0   2  -3   56.89    1.48
   0  -2   3   62.49    1.56
   0  -2   4   74.09    2.47
   0  -2  -4   63.52    2.33
   0   2  -4   69.12    1.75
   0  -2   4   65.74    1.85
   0  -2   5  143.96    4.06
   0   2   5  150.27    4.09
   0  -2  -5  145.32    4.03
   0   2  -5  150.70    3.16
   0  -2   5  146.29    3.16
   0  -2  -6    3.66    1.01
   0  -2   6    3.26    1.06
   0  -2  -6    5.01    1.03
   0   2   6    1.08    1.06
   0  -2   6    5.08    0.70
   0   2  -6    2.10    0.63
   0  -2  -7   28.56    1.91
   0   2   7   26.74    1.92
   0  -2   7   28.33    1.90
   0  -2   7   28.42    2.01
   0  -2  -7   29.19    1.93
   0  -2   7   28.60    1.28
   0   2  -7   24.96    1.32
   0  -2  -8 1142.07   20.10
   0  -2   8 1150.10   20.28
   0  -2   8 1167.37   20.39
   0   2   8 1147.36   20.36
   0  -2  -8 1158.61   20.35
   0   2  -8 1039.63   18.53
   0   2  -9   79.06    3.57
   0  -2   9   73.25    3.38
   0  -2  -9   74.74    3.36
   0  -2   9   78.49    3.57
   0   2   9   78.46    3.58
   0  -2  -9   77.87    3.44
   0   2  -9   66.06    2.51
   0  -2  10  107.30    4.37
   0  -2 -10  110.40    4.31
   0   2 -10  110.23    4.40
   0  -2  10  102.20    4.28
   0  -2 -10  112.00    4.42
   0   2  10  107.52    4.36
   0   2 -10   95.09    3.22
   0  -2  11    2.27    1.21
   0  -2 -11    0.46    0.90
   0  -2  11    0.11    1.10
   0  -2 -11    2.30    1.16
   0   2  11    1.28    1.11
   0   2 -11    1.44    0.72
   0  -2 -12  853.78   17.35
   0  -2  12  872.46   17.42
   0  -2 -12  823.01   17.00
   0  -2  12  826.51   17.21
   0   2  12  835.40   17.26
   0   2 -12  747.18   14.93
   0  -2 -13  161.95    6.05
   0  -2  13  164.44    6.17
   0  -2 -13  160.34    6.08
   0  -2  13  154.86    6.05
   0   2  13  154.41    6.03
   0   2 -13  141.24    4.58
   0  -2  14  364.49   10.30
   0   2  14  362.48   10.26
   0  -2 -14  359.79   10.06
   0  -2 -14  358.82    8.68
   0   2 -14  330.29    8.12
   0   2  15  283.75    9.18
   0  -2  15  299.93    9.43
   0  -2 -15  290.08    9.05
   0  -2 -15  292.50    7.73
   0   2 -15  257.63    6.97
   0  -2 -16   11.23    2.00
   0   2  16   13.16    2.31
   0  -2  16   17.14    2.52
   0  -2 -16   14.87    1.71
   0   2 -16   17.23    1.72
   0   2  17   82.45    5.05
   0  -2  17   85.81    5.23
   0  -2 -17   82.74    4.89
   0  -2 -17   86.05    4.05
   0   2 -17   80.64    3.57
   0  -2 -18  213.24    8.40
   0   2  18  216.88    8.60
   0  -2  18  211.40    8.63
   0   2 -18  202.42    6.15
   0  -2 -18  222.19    7.05
   0  -2 -19   50.53    4.15
   0  -2  19   57.63    4.71
   0   2  19   55.75    4.55
   0  -2 -19   56.99    3.53
   0   2  20   -3.43    2.19
   0  -2  20    1.10    1.79
   0  -2 -20   -0.43    1.68
   0  -2  21   54.04    4.80
   0  -2 -21   54.16    4.61
   0  -2  22   97.69    6.49
   0  -2 -22   87.00    5.88
   0  -2  23   39.04    4.48
   0   3   0    0.56    0.57
   0  -3   0   -0.29    0.64
   0   3  -1  367.28    6.61
   0  -3   1  363.44    6.64
   0  -3  -1  374.47    6.84
   0   3  -2   13.95    0.90
   0  -3   3 1074.16   17.09
   0  -3   4   74.78    2.04
   0  -3   5  462.74    9.15
   0   3  -5  437.02    7.78
   0  -3  -5  462.92    9.09
   0  -3   5  450.80    7.98
   0  -3   6   24.83    1.82
   0   3  -6   19.52    1.03
   0  -3  -6   20.70    1.64
   0  -3   6   20.89    1.17
   0  -3  -7   33.58    2.10
   0  -3   7   29.22    1.97
   0  -3  -7   30.06    1.99
   0  -3   7   31.05    1.40
   0   3  -7   29.72    1.35
   0  -3  -8   39.07    2.39
   0  -3   8   38.89    2.38
   0  -3  -8   41.15    2.47
   0  -3   8   41.71    1.64
   0   3  -8   36.99    1.57
   0  -3   9   21.02    2.01
   0  -3  -9   22.32    1.99
   0  -3   9   23.36    2.06
   0  -3  -9   21.42    1.95
   0   3   9   22.33    2.01
   0   3  -9   21.85    1.30
   0  -3 -10   11.78    1.54
   0  -3  10    9.28    1.59
   0  -3 -10   10.23    1.56
   0  -3  10    9.07    1.51
   0   3  10   10.71    1.62
   0   3 -10    9.07    0.98
   0  -3  11  177.74    6.13
   0  -3  11  192.61    6.42
   0  -3 -11  182.20    6.08
   0  -3 -11  183.85    6.25
   0   3  11  183.95    6.23
   0   3 -11  189.71    4.67
   0  -3  12    5.02    1.44
   0  -3  12    0.97    1.22
   0  -3 -12    4.41    1.35
   0  -3 -12    2.79    1.08
   0   3  12   -0.87    1.30
   0   3 -12    1.82    0.73
   0  -3 -13  174.19    6.47
   0  -3  13  191.66    6.92
   0  -3 -13  195.67    6.90
   0  -3  13  176.32    6.61
   0   3  13  187.35    6.75
   0   3 -13  189.73    4.94
   0  -3 -14  153.50    6.14
   0  -3  14  155.54    6.39
   0   3  14  155.67    6.33
   0   3 -14  156.84    4.52
   0  -3  15   23.62    2.67
   0  -3 -15   24.04    2.56
   0   3  15   29.46    2.93
   0   3 -15   26.87    1.77
   0   3  16   47.64    3.72
   0  -3  16   58.56    4.20
   0  -3 -16   51.15    3.79
   0  -3 -16   46.34    2.96
   0   3 -16   55.60    2.62
   0  -3  17   68.32    4.66
   0  -3 -17   69.48    4.54
   0  -3 -17   66.80    3.68
   0   3 -17   70.71    3.06
   0  -3 -18    2.58    1.58
   0   3 -18    5.39    1.10
   0  -3  18    3.95    1.90
   0  -3 -18    3.77    1.20
   0  -3  19   68.73    5.06
   0  -3 -19   65.83    3.87
   0  -3 -19   70.70    4.89
   0  -3  20    0.50    1.75
   0  -3 -20    2.80    1.80
   0  -3  21   13.99    2.92
   0  -3 -21    7.95    2.28
   0  -3  22   78.68    5.92
   0  -3 -22   75.48    5.59
   0  -3  23   30.27    4.19
   0  -3 -23   29.77    3.91
   0   4   0   80.73    2.46
   0  -4   0   77.55    2.50
   0  -4  -1   15.60    1.30
   0   4  -1   13.98    1.08
   0  -4   1   13.43    1.11
   0  -4   2 6265.69   94.94
   0   4  -2 6224.12   94.92
   0   4  -3 2354.69   36.78
   0  -4   4  254.62    5.09
   0  -4   5   14.80    1.06
   0  -4  -6 1125.10   19.69
   0  -4   6 1101.15   18.24
   0  -4   7  351.93    8.11
   0  -4  -7  341.23    7.92
   0   4  -7  332.98    6.33
   0  -4   7  307.38    6.51
   0  -4   8  972.86   18.09
   0   4  -8  941.65   15.76
   0  -4  -8  972.93   17.98
   0  -4   8  934.91   15.97
   0  -4   9   29.98    2.29
   0  -4  -9   29.57    2.23
   0   4  -9   27.63    1.39
   0  -4  -9   27.90    2.17
   0  -4   9   28.25    1.47
   0  -4  10    7.02    1.46
   0  -4  10    8.70    1.54
   0  -4 -10    7.95    1.42
   0  -4 -10    6.42    1.36
   0   4 -10    9.84    0.97
   0  -4  10    9.28    1.01
   0  -4 -11    3.49    1.19
   0  -4  11    3.10    1.19
   0  -4 -11    3.92    1.28
   0  -4  11    5.20    1.47
   0   4 -11    3.57    0.72
   0  -4  12  126.28    5.32
   0  -4  12  111.67    4.93
   0  -4 -12  120.09    5.01
   0  -4 -12  123.75    5.24
   0   4 -12  118.78    3.44
   0  -4  13    4.92    1.51
   0  -4 -13    3.82    1.28
   0   4 -13    4.49    0.88
   0  -4 -14  320.88    9.58
   0  -4  14  321.46    9.71
   0   4 -14  330.56    7.13
   0   4 -15   16.48    1.33
   0  -4  15   15.30    2.31
   0  -4 -15   15.60    2.16
   0  -4  16  361.46   11.07
   0   4 -16  356.84    7.83
   0  -4 -16  360.04   10.82
   0   4 -17   46.14    2.26
   0  -4  17   43.83    3.79
   0  -4 -17   46.02    3.78
   0  -4 -17   44.11    3.07
   0  -4 -18    6.61    2.03
   0  -4  18    5.31    2.07
   0  -4 -18    6.83    1.58
   0  -4  19   32.36    3.62
   0  -4 -19   34.33    3.56
   0  -4  20   52.65    4.67
   0  -4 -20   46.22    4.03
   0  -4  21   56.19    4.92
   0  -4 -21   42.19    4.19
   0  -4  22   12.76    2.97
   0  -4 -22    8.32    2.06
   0  -4 -23   40.40    4.55
   0  -5   0   -0.17    0.95
   0   5   0    1.31    0.88
   0  -5   1   21.42    1.48
   0  -5  -1   20.13    1.60
   0   5  -1   17.36    1.33
   0  -5  -2 1730.96   28.31
   0   5  -2 1742.04   27.82
   0  -5   2 1717.57   27.87
   0   5  -3  292.15    6.05
   0   5  -4   23.56    1.46
   0  -5   5   84.14    2.57
   0   5  -5   82.09    2.67
   0  -5  -6   38.25    2.28
   0  -5   6   38.83    1.75
   0  -5  -7 4588.34   72.05
   0  -5   7 4540.37   70.22
   0  -5   8   11.46    1.59
   0  -5  -8    6.38    1.29
   0  -5   8    5.88    0.93
   0  -5   9  122.27    4.70
   0  -5  -9  117.89    4.57
   0  -5   9  109.61    3.30
   0  -5  10    1.69    1.12
   0  -5 -10    0.37    1.01
   0  -5 -10    1.53    0.95
   0   5 -10    2.23    0.62
   0  -5  10    2.41    0.70
   0  -5 -11  381.13    9.97
   0   5 -11  361.99    7.41
   0  -5  11  378.27    7.60
   0  -5 -11  375.39    9.72
   0  -5  11  390.29   10.14
   0   5 -12    7.84    0.89
   0  -5 -12    8.21    1.64
   0  -5  12   12.76    1.85
   0  -5  12    9.26    1.78
   0  -5 -12    9.13    1.58
   0   5 -13    6.78    0.88
   0  -5  13    7.58    1.78
   0  -5 -13    6.35    1.66
   0   5 -14   29.18    1.62
   0  -5  14   31.94    2.96
   0  -5 -14   29.51    2.67
   0   5 -15  190.44    4.79
   0  -5  15  186.87    7.36
   0  -5 -15  187.33    7.19
   0   5 -16   57.58    2.38
   0  -5  16   58.75    4.24
   0  -5 -16   59.64    4.04
   0   5 -17    8.55    1.06
   0  -5  17    8.07    2.06
   0  -5 -17    9.03    2.10
   0  -5 -18   17.32    2.55
   0  -5  18   16.69    2.70
   0  -5  19   48.01    4.28
   0  -5 -19   48.77    4.15
   0  -5  20   52.11    4.56
   0  -5 -20   48.79    4.20
   0  -5  21   37.39    4.07
   0  -5 -21   33.12    3.90
   0  -5  22   35.56    4.13
   0  -5 -22   30.80    3.66
   0  -5 -23  219.04    9.89
   0  -6   0  258.40    6.07
   0   6   0  260.79    5.97
   0   6  -1    2.53    0.84
   0  -6  -1    4.12    1.15
   0  -6   1    3.65    1.19
   0   6  -2  793.20   14.07
   0  -6  -2  794.51   14.61
   0  -6   2  789.31   14.09
   0  -6   3   71.73    2.67
   0  -6  -3   69.45    2.94
   0   6  -3   69.45    2.56
   0   6  -4   80.20    2.75
   0  -6   5  175.27    4.36
   0   6  -5  171.96    4.43
   0  -6   6 5201.44   79.33
   0   6  -6 5112.96   79.65
   0  -6   7    0.62    0.68
   0  -6  -7    0.77    0.89
   0  -6   8 1435.81   25.87
   0  -6  -8 1451.18   25.74
   0  -6   8 1414.37   23.75
   0  -6   9    5.80    1.40
   0  -6  -9    4.56    1.40
   0  -6   9    4.60    0.89
   0  -6  10  182.32    6.29
   0  -6 -10  186.58    6.29
   0  -6  10  173.24    4.60
   0  -6  11   69.16    3.92
   0  -6 -11   67.48    3.66
   0  -6 -11   75.01    3.99
   0  -6  11   67.43    2.59
   0  -6 -12  282.18    8.58
   0  -6  12  270.86    6.14
   0  -6 -12  273.14    8.26
   0  -6  13   42.26    1.97
   0  -6 -13   44.39    3.21
   0  -6  13   39.41    3.11
   0  -6  14  335.47   10.11
   0  -6 -14  339.84    9.91
   0  -6 -15   78.70    4.59
   0  -6  15   78.96    4.79
   0  -6  16  295.15    9.91
   0  -6 -16  296.67    9.70
   0  -6  17   12.25    2.50
   0  -6 -17   11.40    2.27
   0  -6  18   74.22    5.10
   0  -6 -18   70.43    4.77
   0  -6  19    5.05    1.97
   0  -6 -19    2.54    1.66
   0  -6  20  150.34    7.66
   0  -6 -20  144.70    7.32
   0  -6  21   20.97    3.31
   0  -6 -21   17.98    2.95
   0  -6  22   57.83    5.18
   0  -6 -22   66.71    5.30
   0  -6 -23    3.62    1.92
   0  -7   0   -0.27    1.04
   0   7  -1  354.69    7.66
   0  -7  -1  327.90    7.67
   0  -7   1  351.95    7.65
   0  -7   2    4.11    1.18
   0  -7  -2    4.49    1.31
   0   7  -2    3.44    0.83
   0  -7  -3  364.19    8.43
   0   7  -3  362.14    7.82
   0  -7   3  377.25    7.98
   0   7  -4   41.97    2.06
   0  -7   5  662.33   12.25
   0   7  -5  654.39   12.33
   0  -7   6   12.07    1.15
   0   7  -6    9.90    1.17
   0  -7   7  484.10    9.40
   0   7  -7  456.92    9.52
   0  -7  -8   57.55    3.15
   0   7  -8   56.33    2.52
   0  -7   8   57.83    2.44
   0  -7   9   24.16    2.31
   0  -7  -9   23.36    2.21
   0  -7   9   25.30    1.68
   0  -7  10    5.63    1.44
   0  -7 -10    2.50    1.08
   0  -7  10    2.80    0.81
   0  -7  11   74.89    4.09
   0  -7 -11   74.18    4.00
   0  -7  11   68.07    2.74
   0  -7 -12   15.18    1.98
   0  -7  12   15.27    1.36
   0  -7 -13    6.59    1.63
   0  -7  13    7.49    1.03
   0  -7  14   42.93    2.01
   0  -7 -14   41.22    3.32
   0  -7  14   37.66    3.23
   0  -7  15  251.75    8.83
   0  -7 -15  251.81    8.59
   0  -7  16   16.92    2.52
   0  -7 -16   16.80    2.49
   0  -7 -17   31.29    3.19
   0  -7  17   23.85    3.01
   0  -7  18   -0.89    1.67
   0  -7 -18    2.05    1.91
   0  -7  19   69.20    5.34
   0  -7 -19   71.14    5.13
   0  -7  20    8.03    2.20
   0  -7 -20    5.96    2.33
   0  -7  21    9.37    2.63
   0  -7 -21    9.89    2.53
   0  -7  22   58.29    5.24
   0  -7 -22   50.71    4.75
   0  -8   0  528.84   10.90
   0  -8  -1   37.60    2.42
   0   8  -1   38.77    2.23
   0  -8   1   40.93    2.35
   0  -8  -2   33.72    2.25
   0   8  -2   38.40    2.11
   0  -8   2   34.87    2.17
   0   8  -3    1.69    0.78
   0  -8  -3    1.53    1.31
   0  -8   3    2.64    1.08
   0   8  -4   33.61    2.03
   0  -8  -4   30.24    2.29
   0  -8  -5   41.47    2.63
   0   8  -5   37.02    2.11
   0  -8   6  778.77   14.25
   0   8  -6  758.41   14.33
   0  -8   7    1.93    0.84
   0   8  -7    2.96    0.92
   0  -8  -8   94.40    4.21
   0   8  -8   90.02    3.40
   0  -8   8   94.49    3.32
   0  -8  -9   12.83    1.74
   0   8  -9    9.46    1.24
   0  -8   9    8.30    1.14
   0  -8 -10   47.35    3.22
   0  -8  10   41.95    3.08
   0   8 -10   37.37    2.24
   0  -8  10   41.84    2.22
   0  -8 -11   76.93    4.19
   0  -8  11   71.88    3.09
   0  -8  12  327.29    7.54
   0  -8 -13   16.83    2.20
   0  -8  13   16.65    1.42
   0  -8 -14   18.41    2.46
   0  -8  14   16.30    1.37
   0  -8  15   35.73    3.41
   0  -8 -15   38.34    3.29
   0  -8 -16   48.31    3.91
   0  -8  16   54.89    4.22
   0  -8 -17    5.50    1.82
   0  -8  17    8.36    2.19
   0  -8  18   80.55    5.42
   0  -8 -18   69.91    4.87
   0  -8 -19   12.84    2.49
   0  -8  19   14.38    2.68
   0  -8  20   46.01    4.55
   0  -8 -20   46.37    4.33
   0  -8 -21   46.26    4.61
   0  -8  21   47.66    5.66
   0  -8 -22    6.57    2.15
   0  -9   0    1.84    1.33
   0  -9   1  294.48    7.32
   0  -9  -1  284.97    7.47
   0   9  -1  288.11    7.27
   0  -9  -2    1.42    1.16
   0  -9   2    0.93    1.05
   0   9  -2    0.94    0.87
   0  -9   3   58.16    2.88
   0   9  -3   61.60    2.82
   0  -9  -3   53.51    3.08
   0   9  -4    9.67    1.34
   0  -9  -4    8.53    1.64
   0  -9  -5   27.05    2.31
   0   9  -5   23.24    1.83
   0  -9   6   66.94    2.93
   0  -9  -6   63.98    3.45
   0   9  -6   64.57    2.87
   0  -9   7   16.71    1.57
   0   9  -7   17.79    1.60
   0  -9   8   40.68    2.23
   0   9  -8   40.66    2.38
   0  -9  -9   70.44    3.86
   0   9  -9   66.42    3.06
   0  -9   9   67.92    2.93
   0  -9 -10   16.68    2.05
   0   9 -10   15.07    1.58
   0  -9  10   15.17    1.47
   0   9 -11    8.14    1.29
   0  -9  11   11.81    1.46
   0   9 -12  110.82    4.25
   0  -9  12  100.54    3.86
   0   9 -13   83.46    3.70
   0  -9  13   89.64    3.42
   0  -9 -14   39.79    3.36
   0  -9  14   37.55    2.15
   0  -9 -15   -2.29    1.71
   0  -9  15    1.32    1.54
   0  -9  15    0.86    0.72
   0  -9 -16   53.44    4.09
   0  -9  16   57.15    4.32
   0  -9  17  119.19    6.45
   0  -9 -17  121.39    6.28
   0  -9 -18    5.43    1.76
   0  -9  18    3.25    1.84
   0  -9  19   69.27    5.24
   0  -9 -19   66.76    5.02
   0  -9  20    3.70    1.90
   0  -9 -20    5.05    2.07
   0  -9  21   55.51    5.05
   0  -9 -21   58.74    4.98
   0  -9 -22   25.63    3.74
   0 -10   0 1636.35   28.64
   0 -10  -1   83.15    3.78
   0 -10   1   79.09    3.55
   0  10  -2   15.15    1.66
   0 -10  -2   13.81    1.82
   0 -10   2   13.28    1.66
   0  10  -3    1.36    0.93
   0 -10  -3    0.78    1.13
   0 -10   3    0.71    1.05
   0  10  -4   32.79    2.19
   0 -10  -4   35.80    2.71
   0 -10  -5   53.83    3.37
   0  10  -5   54.51    2.81
   0 -10   6   68.99    3.12
   0  10  -6   71.38    3.23
   0 -10  -6   68.40    3.73
   0 -10   7    4.61    1.04
   0  10  -7    2.82    0.94
   0 -10  -7    5.39    1.64
   0 -10   8  725.54   14.03
   0  10  -8  698.76   14.19
   0 -10  -9    7.65    1.70
   0 -10   9    6.44    1.22
   0  10  -9    5.00    1.05
   0  10 -10  161.29    5.25
   0 -10  10  166.13    5.15
   0  10 -11   29.34    2.18
   0 -10  11   29.94    2.09
   0  10 -12  384.04    9.36
   0 -10  12  390.10    9.25
   0  10 -13   13.33    1.66
   0 -10  13   10.87    1.36
   0  10 -14  132.02    4.94
   0 -10  14  132.99    4.39
   0  10 -15   46.19    2.94
   0 -10  15   50.75    2.53
   0 -10 -15   51.89    3.93
   0 -10 -16   77.85    5.00
   0 -10  16   75.31    5.05
   0 -10  17    2.76    1.66
   0 -10 -17    1.31    1.65
   0 -10 -18  115.21    6.39
   0 -10  18  121.06    6.82
   0 -10 -19    5.11    1.89
   0 -10  19    3.90    2.02
   0 -10  20    6.30    2.12
   0 -10 -20   10.21    2.45
   0 -10 -21   -0.59    2.11
   0 -10  21    1.64    1.87
   0 -11   0   -1.85    1.30
   0 -11  -1 1379.52   25.25
   0 -11   1 1376.74   25.03
   0 -11   2   43.38    2.78
   0 -11  -2   43.35    2.96
   0  11  -2   42.40    2.66
   0 -11  -3   79.39    3.95
   0 -11   3   78.99    3.69
   0  11  -3   76.92    3.59
   0 -11  -4   14.60    1.98
   0  11  -4   16.88    1.77
   0 -11  -5   10.96    1.77
   0  11  -5   11.41    1.52
   0 -11  -6   32.80    2.86
   0  11  -6   30.79    2.25
   0 -11   7  121.09    4.41
   0 -11  -7  115.82    5.23
   0  11  -7  116.52    4.43
   0 -11   8   18.32    1.78
   0 -11  -8   16.39    2.16
   0  11  -8   15.75    1.69
   0 -11   9  165.71    5.25
   0 -11  -9  157.58    6.34
   0  11  -9  146.42    5.14
   0 -11 -10   31.41    2.90
   0  11 -10   31.66    2.34
   0 -11  10   35.91    2.36
   0  11 -11   39.26    2.64
   0 -11  11   48.25    2.74
   0  11 -12   18.99    1.91
   0 -11  12   23.72    2.07
   0  11 -13  444.38   10.61
   0 -11  13  439.30   10.42
   0  11 -14   18.11    1.91
   0 -11  14   18.49    1.73
   0 -11 -15  223.69    8.52
   0  11 -15  218.12    6.86
   0 -11  15  224.13    6.13
   0 -11 -16    2.41    1.63
   0 -11  17  236.34    9.36
   0 -11 -17  227.45    9.05
   0 -11  18   -1.12    1.89
   0 -11 -18    3.28    1.78
   0 -11  19   48.20    4.46
   0 -11 -19   43.58    4.20
   0 -11  20    9.15    2.48
   0 -11 -20   11.42    2.65
   0 -11 -21   56.74    4.98
   0 -12   0 2493.46   42.44
   0 -12  -1   10.42    1.76
   0 -12   1   11.73    1.73
   0 -12  -2  591.55   13.57
   0 -12   2  591.05   13.13
   0 -12   3    1.02    1.12
   0 -12  -3    3.14    1.41
   0  12  -3    0.96    0.91
   0 -12  -4   11.03    1.88
   0  12  -4   12.12    1.64
   0  12  -5    1.62    1.03
   0 -12  -5    1.72    1.32
   0 -12  -6    4.76    1.64
   0  12  -6    2.50    1.04
   0 -12   7   50.62    2.95
   0 -12  -7   53.78    3.84
   0  12  -7   47.26    2.85
   0 -12   8  172.96    5.66
   0 -12  -8  171.43    6.76
   0  12  -8  164.29    5.64
   0 -12   9   38.08    2.57
   0 -12  -9   42.15    3.45
   0  12  -9   38.62    2.68
   0  12 -10  243.02    7.23
   0 -12 -10  249.28    8.69
   0 -12  10  264.55    7.31
   0 -12 -11   25.29    2.81
   0  12 -11   27.21    2.33
   0 -12  11   33.32    2.41
   0  12 -12  297.25    8.31
   0 -12 -12  298.32    9.97
   0 -12  12  322.45    8.38
   0  12 -13    0.66    1.04
   0 -12 -13   -4.09    1.93
   0 -12  13    2.31    1.18
   0  12 -14  417.88   10.45
   0 -12 -14  433.00   12.63
   0 -12  14  407.81    9.99
   0 -12 -16   87.61    5.50
   0 -12 -17    7.13    2.06
   0 -12  17    6.26    2.16
   0 -12 -18  170.63    8.10
   0 -12  18  193.90    8.74
   0 -12 -19   11.85    2.76
   0 -12  19   10.55    2.86
   0 -12 -19   10.41    2.57
   0 -12 -20    6.34    2.29
   0 -12  20    3.30    1.94
   0 -12 -20    6.32    2.09
   0 -12 -21   24.97    3.74
   0 -13   0    2.15    1.26
   0 -13  -1 1120.12   22.22
   0 -13   1 1131.66   22.08
   0 -13  -2   53.61    3.50
   0 -13   2   57.60    3.39
   0 -13   3   16.43    2.13
   0 -13  -3   17.32    2.19
   0 -13  -4   -0.95    1.48
   0  13  -4    1.01    1.03
   0 -13  -5   54.76    3.65
   0  13  -5   63.66    3.49
   0 -13  -6   76.43    4.35
   0  13  -6   79.31    3.92
   0 -13   7   38.93    2.76
   0 -13  -7   26.74    2.76
   0  13  -7   31.81    2.48
   0 -13   8   27.51    2.30
   0 -13  -8   25.06    2.84
   0  13  -8   23.95    2.13
   0 -13   9   90.47    4.10
   0  13  -9   81.64    4.00
   0 -13  -9   94.82    5.38
   0 -13  10   11.09    1.58
   0 -13 -10   12.27    2.32
   0  13 -10    9.49    1.58
   0 -13  11    7.62    1.44
   0 -13 -11    6.33    2.10
   0  13 -11    7.22    1.39
   0  13 -12   20.51    2.12
   0 -13 -12   19.45    2.69
   0 -13  12   21.55    2.17
   0  13 -13  322.91    9.01
   0 -13 -13  332.09   11.08
   0 -13  13  338.91    8.96
   0 -13 -14    2.39    1.87
   0 -13  14    3.40    1.33
   0 -13 -15    8.68    2.25
   0 -13 -16   26.83    3.47
   0 -13 -16   23.63    3.18
   0 -13 -17   44.10    4.20
   0 -13 -17   45.74    4.19
   0 -13 -18   -1.25    1.85
   0 -13  18    1.67    1.98
   0 -13 -18    0.81    1.75
   0 -13 -19   30.60    3.79
   0 -13 -19   30.18    3.54
   0 -13  19   32.24    3.80
   0 -13 -20    7.99    2.73
   0 -14   0  651.21   14.97
   0 -14  -1   96.64    4.86
   0 -14   1   96.39    4.71
   0 -14  -2   43.90    3.40
   0 -14   2   46.23    3.28
   0 -14   3    8.32    1.74
   0 -14  -3    8.10    1.87
   0 -14  -4   13.30    2.28
   0 -14  -5   21.30    2.58
   0  14  -5   19.63    2.15
   0 -14  -6  231.75    8.24
   0  14  -6  245.02    7.62
   0 -14   7   76.42    4.02
   0 -14  -7   78.54    4.60
   0  14  -7   76.22    4.07
   0 -14   8    2.03    1.18
   0 -14  -8    3.99    1.70
   0  14  -8    1.97    1.17
   0 -14   9   27.66    2.43
   0  14  -9   25.80    2.40
   0 -14  -9   28.23    3.07
   0 -14  10    2.94    1.30
   0  14 -10    1.70    1.03
   0 -14 -10    0.23    1.56
   0 -14  11   19.71    2.13
   0  14 -11   15.26    1.92
   0 -14 -11   18.54    2.92
   0 -14 -12  190.04    8.24
   0 -14  12  190.18    6.45
   0 -14 -13   23.47    3.16
   0 -14  13   25.27    2.30
   0 -14 -14    2.33    1.73
   0 -14 -15   24.69    3.44
   0 -14 -16    0.11    1.76
   0 -14 -17   59.35    4.81
   0 -14 -17   59.45    4.82
   0 -14 -18   65.85    5.26
   0 -14  18   62.68    5.05
   0 -14 -19    2.38    2.00
   0 -14  19    2.62    2.18
   0 -15   0   -1.13    1.40
   0 -15  -1   38.05    3.20
   0 -15   1   35.35    3.07
   0 -15  -2    3.95    1.72
   0 -15   2    5.01    1.79
   0 -15   3   48.11    3.49
   0 -15  -3   37.90    3.30
   0 -15  -4    3.44    1.85
   0 -15  -5   91.50    5.14
   0 -15  -6   13.41    2.39
   0 -15   7   96.77    4.73
   0 -15  -7   95.55    5.35
   0 -15   8   30.27    2.67
   0 -15  -8   26.73    2.97
   0 -15   9    6.61    1.56
   0 -15  -9    4.90    1.87
   0 -15  10    2.43    1.24
   0 -15 -10    5.39    2.10
   0 -15  11   21.07    2.31
   0 -15 -11   17.18    2.75
   0 -15 -12   -0.95    1.80
   0 -15  12   -0.16    1.09
   0 -15 -13   30.29    3.63
   0 -15  13   30.48    2.71
   0 -15 -14   26.96    3.58
   0 -15 -15   92.83    6.37
   0 -15 -16   21.20    3.21
   0 -15 -17    6.74    2.35
   0 -15  18    5.27    2.11
   0 -15 -18    2.88    1.92
   0 -15 -19   14.40    3.21
   0 -16   0   55.45    3.94
   0 -16   1    5.97    1.75
   0 -16  -1    3.82    1.70
   0 -16   2  131.11    5.95
   0 -16  -2  134.56    6.27
   0 -16  -3    2.73    1.64
   0 -16   3    2.05    1.48
   0 -16  -4    4.79    1.73
   0 -16  -5    8.84    2.07
   0 -16  -6  382.80   11.83
   0 -16   7    3.24    1.40
   0 -16  -7    6.23    1.99
   0 -16   8  312.67    9.40
   0 -16  -8  319.50   10.84
   0 -16   9   11.48    1.78
   0 -16  -9   10.35    2.30
   0 -16  10   13.10    1.94
   0 -16 -10    6.00    1.95
   0 -16  11    2.30    1.32
   0 -16 -11    3.28    1.86
   0 -16 -12   37.81    3.88
   0 -16  12   35.05    2.97
   0 -16 -13    7.07    2.21
   0 -16 -14   64.66    5.15
   0 -16 -15    3.24    2.22
   0 -16 -17    9.37    2.41
   0 -16 -18    0.13    1.93
   0 -17   0   -0.54    1.54
   0 -17  -1    3.40    1.75
   0 -17   1    0.78    1.70
   0 -17  -2    4.41    1.66
   0 -17   2    8.11    1.94
   0 -17  -3   33.56    3.41
   0 -17   3   37.07    3.29
   0 -17  -4   14.92    2.52
   0 -17  -5  220.02    8.69
   0 -17  -6   -0.90    1.90
   0 -17   7  473.64   12.82
   0 -17  -7  507.78   14.47
   0 -17   8   34.39    3.05
   0 -17  -8   27.12    3.25
   0 -17   9   60.25    3.96
   0 -17  -9   62.46    4.77
   0 -17  10    5.27    1.66
   0 -17 -10    1.58    1.87
   0 -17 -11   62.50    4.99
   0 -17  11   68.62    4.22
   0 -17 -12    2.61    1.65
   0 -17 -13    2.48    2.05
   0 -17 -17   19.24    3.38
   0 -18   0   64.09    4.54
   0 -18  -1   -1.73    1.91
   0 -18   1    1.02    1.56
   0 -18   2   -0.62    1.58
   0 -18  -2    3.18    1.74
   0 -18  -3    1.10    1.75
   0 -18  -4    0.34    1.61
   0 -18  -5   60.81    4.69
   0 -18   6  303.98   10.00
   0 -18  -6  310.42   10.93
   0 -18   7    6.60    2.00
   0 -18  -7    1.92    1.69
   0 -18   8  151.38    6.63
   0 -18  -8  155.84    7.79
   0 -18   9   -1.68    1.38
   0 -18  -9    5.60    2.29
   0 -18  10   19.82    2.46
   0 -18 -10   23.39    3.45
   0 -18 -11   10.13    2.62
   0 -18 -12   35.93    4.12
   0 -19   0   -0.18    1.63
   0 -19  -1   18.71    2.78
   0 -19   1   15.41    2.80
   0 -19   2    6.65    1.81
   0 -19  -2    2.62    1.88
   0 -19  -3   -0.80    1.91
   0 -19  -4   17.19    2.89
   0 -19  -5   54.93    4.64
   0 -19   6    9.88    2.23
   0 -19  -6    7.10    2.30
   0 -19   7   86.12    5.13
   0 -19  -7   89.86    5.95
   0 -19   8   -0.58    1.42
   0 -19  -8   -2.32    1.94
   0 -19   9    0.41    1.48
   0 -19  -9    3.62    2.38
   0 -19  10    5.09    1.78
   0 -19 -10    8.55    2.26
   0 -20   0  231.69    9.39
   0 -20   1   30.02    3.39
   0 -20  -1   30.63    3.54
   0 -20   2    4.67    1.76
   0 -20  -2    8.04    2.38
   0 -20  -3    7.79    2.59
   0 -20  -4    1.69    1.72
   0 -20  -5   17.17    3.02
   0 -20   6   22.80    2.94
   0 -20  -6   26.71    3.62
   0 -20   7    0.48    1.80
   0 -20  -7    4.26    2.20
   0 -20   8    4.03    1.74
   0 -20  -8    9.33    2.82
   0 -20   9    0.03    1.52
   0 -21   0   -1.31    1.95
   0 -21   1  166.40    8.01
   0 -21  -1  170.74    8.17
   0 -21  -2   19.05    3.00
   0 -21  -3   12.57    2.44
   0 -21  -4    2.80    2.19
   0 -21   5    5.11    2.05
   0 -21  -5    3.58    2.07
   0 -21   6    2.48    1.78
   0 -21   7   11.55    2.36
   0 -21   8   -0.90    1.67
   0 -22   0  204.67    9.26
   0 -22   1   16.19    3.26
   0 -22  -1    9.51    2.19
   0 -22  -2   41.92    4.39
   0 -22   5   -0.88    1.71
   0 -22   6   20.47    3.13
   0 -22   7    5.79    2.23
   0 -23   4    5.00    2.06
   0 -23   5   -1.10    1.77
  -1   0  23    3.25    2.09
  -1   0  22  115.56    6.93
   1   0 -21    0.44    1.86
  -1   0  21    1.34    1.74
   1   0 -20  222.46    9.27
  -1   0  20  227.64    9.33
   1   0 -19    3.22    1.79
  -1   0  19    1.65    1.67
   1   0 -18   14.61    2.53
  -1   0  18   12.35    2.42
   1   0 -18   11.78    1.53
   1   0 -17   -0.16    1.43
  -1   0  17    1.18    1.47
   1   0 -17    1.89    1.03
   1   0 -16    9.71    1.85
  -1   0  16   11.93    2.16
   1   0 -16   10.73    1.37
   1   0 -15    5.50    1.71
  -1   0  15    5.26    1.74
   1   0 -15    4.74    1.05
   1   0 -14 1497.13   28.47
  -1   0  14 1484.49   28.37
   1   0 -14 1510.67   25.64
   1   0 -13   -0.25    1.39
  -1   0  13   -0.63    1.44
   1   0 -13    0.64    0.77
  -1   0  12 1236.93   23.56
   1   0 -12 1238.08   23.63
   1   0 -12 1248.37   21.19
   1   0 -11    1.20    1.16
   1   0 -11    0.90    1.06
  -1   0  11    0.64    1.13
   1   0 -11    0.82    0.62
  -1   0  10   87.54    3.86
   1   0 -10   84.33    2.74
   1   0 -10   88.50    3.82
   1   0 -10   93.32    4.01
   1   0  -9    4.74    1.25
   1   0  -9    6.44    1.28
  -1   0   9    3.62    1.20
  -1   0   9    4.01    1.31
   1   0  -8  272.31    6.75
   1   0  -8  266.83    6.81
  -1   0   8  270.20    6.83
  -1   0   8  267.22    6.73
   1   0  -7    1.50    0.79
  -1   0   7    1.41    0.93
   1   0  -7    3.58    1.17
  -1   0   7    1.60    1.05
   1   0  -6  632.53   12.05
  -1   0   6  649.33   12.06
  -1   0   6  637.39   11.94
   1   0  -6  646.48   11.97
   1   0  -5   29.21    1.64
  -1   0   5   30.03    1.67
   1   0  -5   27.07    1.61
  -1   0   5   27.04    1.63
  -1   0   4 5458.73   83.75
   1   0  -4 5517.13   83.77
  -1   0   4 5469.31   83.63
   1   0  -4 5485.33   83.66
   1   0  -3    1.40    0.59
   1   0  -3    1.61    0.55
  -1   0   3    1.37    0.64
   1   0  -2   34.65    1.13
  -1   0   2   46.58    1.28
   1   0   2  319.96    5.64
   1   0   2  324.34    5.75
  -1   0  -2  322.48    5.76
   1   0   3    1.28    0.59
  -1   0  -3    1.05    0.61
   1   0   3    1.43    0.73
   1   0   3    2.51    0.84
  -1   0  -3    1.75    0.54
   1   0   4 1693.14   26.88
   1   0   4 1680.34   27.04
  -1   0  -4 1699.76   26.86
  -1   0  -4 1663.43   26.60
  -1   0  -5    1.80    0.81
   1   0   5   -0.32    0.96
   1   0   5    0.98    0.81
  -1   0  -5    1.27    0.76
   1   0   6  986.52   17.49
   1   0   6 1000.01   17.36
  -1   0  -6  988.55   17.27
  -1   0  -6  988.25   16.70
   1   0   7    1.93    1.14
  -1   0  -7    4.14    1.11
   1   0   7    3.47    1.04
  -1   0  -7    3.29    0.79
   1   0   8  701.94   13.80
  -1   0  -8  672.19   13.41
   1   0   8  700.41   13.54
  -1   0  -8  694.01   12.70
   1   0   9   -0.25    1.03
   1   0   9    0.72    0.86
  -1   0  -9    1.61    1.01
  -1   0  -9    0.02    0.76
   1   0  10  173.83    5.69
  -1   0 -10  170.61    5.57
   1   0  10  182.83    5.89
  -1   0 -10  177.01    4.95
  -1   0 -11   10.88    1.76
   1   0  11   12.49    1.75
   1   0  11   13.15    1.87
  -1   0 -11   10.33    1.30
   1   0  12   84.81    4.11
  -1   0 -12   73.42    3.82
   1   0  12   77.84    4.10
  -1   0 -12   78.78    3.33
  -1   0 -13    0.51    1.26
   1   0  13    1.22    1.07
   1   0  13    0.60    1.36
  -1   0 -13    0.45    0.84
  -1   0 -14  530.65   12.99
   1   0  14  506.05   12.99
  -1   0 -14  520.73   11.49
  -1   0 -15    2.67    1.54
   1   0  15    1.72    1.40
  -1   0 -15    2.34    1.18
  -1   0 -16  366.53   10.94
   1   0  16  383.25   11.37
  -1   0 -16  375.05    9.56
   1   0  17    2.72    1.64
  -1   0 -17    5.77    1.32
   1   0  18  934.08   21.41
  -1   0 -18  896.15   18.67
   1   0  19    3.89    1.88
   1   0  20  199.19    8.84
   1   0  21    2.75    1.97
   1   0  22   36.10    4.11
  -1  -1  23    4.27    2.46
   1  -1 -22   28.79    3.79
  -1  -1  22   29.97    3.69
   1  -1 -21  347.36   12.20
  -1  -1  21  338.59   12.08
   1  -1 -20   16.50    2.83
  -1   1  20   12.75    2.63
  -1  -1  20   13.28    2.75
   1  -1 -19   43.12    3.97
  -1   1  19   42.73    3.97
  -1  -1  19   44.54    4.10
   1   1 -18   17.70    2.76
   1  -1 -18    7.77    1.91
  -1  -1  18   14.34    2.61
  -1   1  18   16.63    2.68
   1  -1 -18   13.76    1.60
   1   1 -18   11.27    1.52
   1   1 -17  120.25    6.04
   1  -1 -17  116.24    5.89
  -1   1  17  113.05    5.93
  -1  -1  17  120.54    5.98
   1  -1 -17  122.18    4.56
   1   1 -17  112.24    4.19
   1   1 -16   10.82    2.11
   1  -1 -16   12.40    2.12
  -1  -1  16    8.06    1.89
  -1   1  16   13.30    2.31
   1   1 -16   12.07    1.38
   1  -1 -16    9.40    1.37
  -1  -1  15   33.94    3.01
  -1   1  15   32.35    3.01
   1   1 -15   35.39    3.21
   1  -1 -15   34.30    2.97
   1  -1 -15   32.23    2.13
   1   1 -15   33.03    2.03
   1  -1 -14   10.93    1.80
   1   1 -14   12.39    1.96
  -1  -1  14   13.36    2.00
  -1   1  14    9.37    1.79
   1  -1 -14   10.89    1.23
   1   1 -14   12.47    1.27
  -1  -1  13 1450.32   27.55
  -1   1  13 1479.08   27.74
  -1  -1  13 1541.85   28.04
   1   1 -13 1487.42   27.75
   1  -1 -13 1477.44   27.74
   1  -1 -13 1535.65   27.85
   1  -1 -13 1464.53   25.20
   1   1 -13 1451.09   24.75
   1  -1 -12    6.97    1.42
  -1  -1  12    5.24    1.47
   1  -1 -12    5.87    1.42
   1   1 -12    5.15    1.47
  -1   1  12    5.40    1.51
  -1  -1  12    3.01    1.26
   1   1 -12    6.16    0.96
  -1  -1  11  686.32   14.42
   1   1 -11  655.41   14.12
   1  -1 -11  663.43   14.17
   1  -1 -11  644.65   14.05
  -1   1  11  656.66   14.11
  -1  -1  11  651.67   14.05
   1   1 -11  648.10   11.85
  -1  -1  10   11.30    1.56
   1  -1 -10   13.91    1.71
   1   1 -10   10.95    1.54
   1  -1 -10   14.27    1.76
  -1   1  10   11.03    1.71
  -1  -1  10   10.01    1.60
   1   1 -10   11.45    0.99
   1  -1  -9  184.98    5.66
   1   1  -9  186.96    5.72
  -1  -1   9  191.67    5.94
   1  -1  -9  192.37    5.73
  -1   1   9  192.07    5.78
  -1  -1   9  183.42    5.61
   1   1  -9  195.73    4.28
  -1  -1   8   14.09    1.66
  -1   1   8   17.82    1.87
   1   1  -8   17.46    1.03
   1   1  -8   15.71    1.61
  -1  -1   8   17.01    1.72
   1  -1  -8   15.58    1.66
   1  -1  -8   17.44    1.74
  -1   1   7 1271.06   21.99
   1  -1  -7 1306.04   22.03
  -1  -1   7 1263.62   21.86
   1   1  -7 1263.09   20.07
   1  -1  -7 1274.15   21.97
   1   1  -7 1276.08   22.00
  -1  -1   7 1239.54   21.94
  -1  -1   6  126.02    3.80
   1  -1  -6  125.62    3.77
  -1   1   6  121.86    3.81
   1   1  -6  125.68    2.61
  -1  -1   6  123.13    3.78
   1  -1  -6  124.37    3.87
   1   1  -6  121.28    3.81
   1  -1  -5  779.00   13.75
  -1   1   5  789.83   13.76
  -1  -1   5  770.68   13.60
   1   1  -5  786.95   13.80
   1  -1  -5  773.88   13.88
  -1  -1   5  770.58   13.79
  -1  -1   4  720.52   12.30
  -1   1   4  727.91   12.45
   1  -1  -4  705.12   12.44
  -1  -1   4  704.90   12.46
   1   1  -4  730.80   12.48
  -1  -1   3 1863.29   28.92
   1  -1  -3 1851.42   29.14
   1   1  -3 1871.66   29.11
  -1  -1   3 1832.55   29.12
  -1  -1   2   39.42    1.19
   1   1  -2   41.53    1.28
  -1  -1   2   39.38    1.29
   1  -1  -2   40.02    1.24
   1  -1   1 4923.47   74.47
  -1  -1  -2   35.17    1.14
   1   1   2   36.45    1.16
   1   1   2   34.83    1.29
  -1  -1  -2   35.01    1.27
  -1   1  -2   36.07    1.25
   1  -1   2   40.48    1.41
  -1  -1  -3  241.78    4.71
   1   1   3  247.80    4.75
  -1  -1  -3  234.18    4.87
   1   1   3  232.70    4.89
  -1   1  -3  228.44    4.76
   1  -1   3  248.21    4.72
   1  -1   4   45.87    1.89
  -1  -1  -4   44.20    1.77
   1   1   4   45.00    1.80
  -1  -1  -4   45.80    1.90
   1   1   4   47.14    1.95
  -1   1  -4   43.80    1.69
   1  -1   4   46.13    1.66
   1   1   5  110.67    3.47
   1   1   5  115.27    3.37
  -1  -1  -5  117.35    3.35
  -1  -1  -5  113.82    3.42
   1  -1   5  118.63    3.49
   1  -1   5  123.43    3.08
  -1   1  -5  113.91    3.09
   1   1   6   70.61    2.89
   1   1   6   75.58    2.81
   1  -1   6   69.72    2.90
  -1  -1  -6   73.43    2.82
   1  -1   6   72.97    2.82
  -1  -1  -6   71.19    2.71
   1  -1   6   73.41    2.36
  -1   1  -6   71.00    2.44
  -1  -1  -7    4.43    0.97
  -1   1  -7    2.51    1.01
   1   1   7    3.03    0.97
  -1  -1  -7    3.93    1.07
   1  -1   7    3.95    1.22
   1  -1   7    4.84    1.07
   1   1   7    3.75    1.26
  -1   1  -7    3.85    0.86
   1   1   8    2.14    1.06
  -1  -1  -8    3.53    0.93
   1  -1   8    3.54    1.04
   1   1   8    2.77    0.89
   1  -1   8    2.61    1.23
  -1   1  -8    1.41    1.05
  -1  -1  -8    2.18    0.88
  -1  -1  -8    2.32    0.80
  -1   1  -8    2.61    0.81
   1   1   9  807.43   15.74
   1  -1   9  785.86   15.76
  -1   1  -9  782.11   15.53
   1   1   9  819.80   15.62
   1  -1   9  817.43   15.74
  -1  -1  -9  776.44   15.35
  -1  -1  -9  778.82   14.56
  -1   1  -9  800.11   14.47
   1   1  10   15.05    1.71
   1  -1  10   13.25    1.75
   1  -1  10   15.22    1.74
  -1   1 -10   12.43    1.67
  -1  -1 -10   13.38    1.61
   1   1  10   12.95    1.73
  -1   1 -10   13.62    1.36
  -1  -1 -10   15.78    1.56
   1  -1  11  720.69   15.09
   1   1  11  705.17   14.99
  -1  -1 -11  687.47   14.61
   1  -1  11  713.19   14.95
  -1   1 -11  700.67   14.83
  -1  -1 -11  683.43   13.59
  -1   1 -11  695.04   13.53
  -1   1 -12    3.84    1.34
  -1  -1 -12    4.96    1.48
   1  -1  12    5.72    1.45
   1  -1  12    4.25    1.58
   1   1  12    6.62    1.68
  -1  -1 -12    5.44    1.19
  -1   1 -12    7.52    1.21
   1  -1  13  289.68    8.82
   1   1  13  296.03    8.86
   1  -1  13  299.46    8.86
  -1  -1 -13  278.22    8.39
  -1  -1 -13  286.83    7.55
  -1   1 -13  293.36    7.51
  -1  -1 -14   37.99    2.95
   1  -1  14   33.74    2.98
   1   1  14   36.09    3.06
  -1  -1 -14   37.45    2.52
  -1   1 -14   35.15    2.37
  -1  -1 -15  195.43    7.20
   1  -1  15  201.31    7.58
   1   1  15  190.66    7.29
  -1  -1 -15  194.24    6.20
  -1   1 -15  186.16    6.02
  -1  -1 -16   26.57    2.80
   1  -1  16   29.41    3.17
   1   1  16   28.12    3.03
  -1  -1 -16   30.07    2.39
  -1   1 -16   30.03    2.47
  -1  -1 -17  304.02   10.02
   1  -1  17  312.47   10.45
   1   1  17  317.17   10.56
  -1   1 -17  299.99    8.61
  -1  -1 -17  316.90    8.85
  -1  -1 -18    3.93    1.67
   1  -1  18    6.55    2.16
   1   1  18    4.36    1.82
  -1   1 -18    4.17    1.54
  -1  -1 -18    4.89    1.44
  -1  -1 -19  181.72    7.90
   1   1  19  183.21    8.19
   1  -1  19  168.04    7.96
  -1  -1 -19  177.83    6.61
   1   1  20   11.65    2.71
   1  -1  20   11.45    2.54
   1   1  21   23.54    3.36
   1  -1  21   22.16    3.32
   1   1  22   -1.23    1.98
   1  -1  22   -0.43    2.02
   1  -2 -23    4.54    2.14
  -1  -2  23    5.25    2.27
   1  -2 -22   59.24    5.00
  -1  -2  22   69.60    5.45
   1  -2 -21  102.97    6.31
  -1  -2  21  100.15    6.30
   1  -2 -20   -0.87    1.65
  -1  -2  20    0.92    1.71
   1  -2 -19    8.17    1.99
  -1  -2  19    8.57    2.17
   1  -2 -19    9.34    1.63
   1  -2 -18   14.04    2.47
  -1  -2  18   14.71    2.51
   1   2 -18   12.91    1.42
   1  -2 -18   12.03    1.72
   1  -2 -17   18.63    2.53
  -1   2  17   20.36    2.58
  -1  -2  17   18.62    2.66
   1  -2 -17   20.55    1.99
   1   2 -17   19.56    1.57
  -1   2  16   38.82    3.38
  -1  -2  16   45.71    3.61
   1  -2 -16   41.98    3.47
   1  -2 -16   42.98    2.68
   1   2 -16   41.47    2.26
  -1   2  15  230.02    8.13
  -1  -2  15  248.64    8.35
   1  -2 -15  249.21    8.36
   1   2 -15  248.67    8.43
   1  -2 -15  240.24    6.62
   1   2 -15  228.77    5.88
   1   2 -14  556.64   13.63
   1  -2 -14  565.14   13.58
  -1  -2  14  575.49   13.63
  -1   2  14  552.72   13.50
   1   2 -14  524.84   10.71
  -1  -2  13  342.10    9.55
   1  -2 -13  335.96    9.41
   1   2 -13  325.76    9.27
   1  -2 -13  331.14    9.27
  -1   2  13  328.71    9.27
  -1  -2  13  325.88    9.21
   1   2 -13  283.68    6.82
   1  -2 -12  938.62   18.60
   1   2 -12  918.63   18.51
  -1  -2  12  948.16   18.69
   1  -2 -12  946.39   18.51
  -1  -2  12  912.68   18.32
  -1   2  12  910.88   18.36
   1   2 -12  816.61   15.53
   1  -2 -11   60.93    3.39
  -1  -2  11   62.73    3.35
   1   2 -11   61.72    3.44
  -1  -2  11   61.66    3.36
  -1   2  11   57.94    3.26
   1  -2 -11   66.02    3.52
   1   2 -11   52.73    2.16
  -1  -2  10   88.05    3.86
   1   2 -10   87.71    3.91
   1  -2 -10   87.83    3.85
   1  -2 -10   89.50    3.95
  -1  -2  10   85.98    3.78
  -1   2  10   89.41    3.91
   1   2 -10   77.72    2.51
  -1  -2   9   17.13    1.71
   1  -2  -9   16.53    1.78
   1  -2  -9   18.07    1.73
   1   2  -9   17.33    1.77
  -1  -2   9   19.46    1.79
  -1   2   9   16.37    1.77
   1   2  -9   18.15    1.15
  -1  -2   8  404.45    9.12
   1  -2  -8  412.94    9.21
   1   2  -8  410.82    9.12
  -1  -2   8  403.55    8.95
   1  -2  -8  405.75    9.12
  -1   2   8  398.75    9.02
   1   2  -8  386.86    7.09
  -1  -2   7   44.75    2.38
   1  -2  -7   46.14    2.42
  -1  -2   7   48.80    2.52
   1   2  -7   50.42    2.55
   1  -2  -7   47.35    2.49
   1   2  -7   51.64    1.46
  -1  -2   6  107.51    3.55
  -1  -2   6  110.30    3.47
   1   2  -6  104.24    3.51
   1  -2  -6  106.17    3.58
   1   2  -6  111.69    2.22
   1  -2  -5   61.60    2.53
  -1  -2   5   63.79    2.44
   1   2  -5   68.35    2.61
  -1  -2   5   68.76    2.58
   1   2  -4  576.81   10.43
  -1  -2   4  572.17   10.40
  -1  -2   3  250.55    5.10
   1  -2  -2  467.77    8.22
  -1   2   1  149.36    3.23
   1  -2  -1  154.34    3.27
   1  -2   0  504.68    8.47
  -1   2   0  488.00    8.43
  -1   2  -1   36.43    1.30
   1  -2   1   40.10    1.36
  -1   2  -2 1044.87   16.80
  -1  -2  -2 1034.67   16.81
   1  -2   2 1071.98   16.87
  -1  -2  -3   95.37    2.57
   1   2   3   92.62    2.62
  -1   2  -3   90.65    2.41
   1  -2   3   91.90    2.47
  -1  -2  -4  135.73    3.52
   1   2   4  139.03    3.76
  -1  -2  -4  147.67    3.72
   1  -2   4  134.22    3.43
  -1   2  -4  142.30    3.34
   1  -2   5   96.46    3.19
  -1  -2  -5   95.21    2.95
   1   2   5   94.94    3.17
  -1  -2  -5   93.63    3.08
   1  -2   5   89.27    2.68
  -1   2  -5   92.82    2.68
  -1  -2  -6  391.61    8.07
   1  -2   6  415.51    8.52
  -1  -2  -6  396.93    8.35
   1   2   6  406.64    8.43
   1  -2   6  389.99    7.60
  -1   2  -6  371.35    7.60
  -1  -2  -7  149.89    4.52
   1   2   7  144.32    4.51
  -1  -2  -7  147.70    4.34
   1  -2   7  151.58    4.61
   1  -2   7  149.37    3.78
  -1   2  -7  128.91    3.76
   1   2   8  601.95   12.21
   1  -2   8  602.47   12.28
  -1  -2  -8  603.02   12.20
  -1  -2  -8  610.37   11.99
   1  -2   8  623.11   12.36
   1  -2   8  596.29   10.90
  -1   2  -8  546.64   11.13
   1  -2   9  271.48    7.44
  -1  -2  -9  273.08    7.31
   1  -2   9  286.85    7.55
  -1  -2  -9  286.12    7.21
   1   2   9  273.60    7.34
  -1   2  -9  257.51    6.38
  -1  -2 -10  101.86    4.13
  -1  -2 -10  101.67    4.25
   1  -2  10   94.55    4.24
   1  -2  10  104.91    4.35
   1   2  10  101.13    4.26
  -1   2 -10   96.19    3.53
   1   2  11  247.76    7.33
   1  -2  11  233.61    7.25
   1  -2  11  251.93    7.36
  -1  -2 -11  244.93    7.25
  -1  -2 -11  230.31    6.98
  -1  -2 -11  235.39    6.34
  -1   2 -11  219.17    6.10
   1   2  12  253.62    7.87
   1  -2  12  262.86    7.93
  -1  -2 -12  253.55    7.56
  -1  -2 -12  261.02    7.90
   1  -2  12  270.92    8.06
  -1  -2 -12  247.01    6.78
  -1   2 -12  239.15    6.59
   1  -2  13   12.99    1.89
  -1  -2 -13    9.99    1.68
   1  -2  13   12.80    1.93
   1   2  13   14.94    2.07
  -1   2 -13   12.10    1.56
  -1  -2 -13   11.89    1.48
   1  -2  14  137.96    5.98
   1   2  14  143.45    6.06
  -1  -2 -14  137.07    5.68
  -1  -2 -14  141.20    5.06
  -1   2 -14  125.82    4.64
   1  -2  15   75.91    4.54
   1   2  15   79.72    4.66
  -1  -2 -15   74.49    4.34
  -1  -2 -15   76.41    3.73
  -1   2 -15   72.27    3.45
   1   2  16   57.45    4.13
   1  -2  16   56.13    4.12
  -1  -2 -16   53.72    3.79
  -1  -2 -16   56.86    3.32
  -1   2 -16   50.04    2.96
  -1  -2 -17   97.16    5.36
   1  -2  17   95.48    5.55
   1   2  17  102.79    5.69
  -1   2 -17   87.78    4.09
  -1  -2 -17   98.12    4.56
  -1  -2 -18  690.62   17.05
   1  -2  18  692.63   17.58
   1   2  18  702.99   17.63
  -1   2 -18  635.71   14.30
  -1  -2 -18  689.64   15.37
  -1  -2 -19   58.07    4.44
   1  -2  19   58.26    4.66
   1   2  19   59.41    4.64
  -1  -2 -19   59.00    3.83
  -1  -2 -20    7.26    2.30
   1  -2  20    2.28    1.79
   1   2  20    2.84    1.94
  -1  -2 -21    5.45    2.00
   1  -2  21    4.54    2.06
   1   2  21    9.63    2.59
   1  -2  22   53.27    4.79
   1  -3 -23    3.99    2.21
  -1  -3  23   12.14    2.78
   1  -3 -22   18.83    3.31
  -1  -3  22   21.62    3.34
   1  -3 -21   17.31    2.79
  -1  -3  21   23.15    3.33
   1  -3 -20   36.22    3.81
  -1  -3  20   41.54    3.95
   1  -3 -19   13.23    2.40
  -1  -3  19   15.57    2.68
   1  -3 -19   15.10    1.90
   1  -3 -18   18.67    2.61
   1   3 -18   20.20    1.46
  -1  -3  18   23.66    3.03
   1  -3 -18   17.59    1.98
  -1  -3  17   44.09    3.75
   1  -3 -17   38.75    3.53
   1  -3 -17   41.94    2.79
   1   3 -17   45.38    2.11
   1  -3 -16   14.44    2.21
   1   3 -16   16.17    1.33
  -1  -3  16   12.96    2.23
   1  -3 -15  142.41    6.22
  -1  -3  15  150.60    6.40
   1   3 -15  161.17    4.13
   1  -3 -14   -1.56    1.51
  -1  -3  14    0.59    1.24
   1   3 -14    0.77    0.60
   1  -3 -13   17.17    2.13
   1  -3 -13   15.04    2.01
  -1  -3  13   16.90    2.16
  -1  -3  13   18.05    2.15
   1   3 -13   16.10    1.12
   1  -3 -12   72.72    3.90
  -1  -3  12   75.46    3.99
  -1  -3  12   68.66    3.78
   1  -3 -12   76.14    3.98
   1   3 -12   72.57    2.31
  -1  -3  11  333.53    8.94
   1  -3 -11  317.19    8.63
  -1  -3  11  317.47    8.57
   1  -3 -11  332.72    8.90
   1   3 -11  320.24    6.26
   1  -3 -10    1.19    1.16
  -1  -3  10    0.91    1.06
  -1  -3  10    1.83    0.94
   1   3 -10    0.92    0.48
   1  -3 -10    2.44    1.22
  -1  -3   9    3.70    1.14
  -1  -3   9    4.67    1.30
   1  -3  -9    4.19    1.23
   1   3  -9    3.19    0.55
   1  -3  -9    4.18    1.24
  -1  -3   8    2.81    1.17
  -1  -3   8    1.47    0.90
   1   3  -8    2.37    0.47
   1  -3  -8    0.60    0.87
  -1  -3   7    2.02    1.01
  -1  -3   7    2.27    0.93
   1   3  -7    2.91    0.45
   1  -3  -7    1.89    0.90
  -1  -3   7    1.81    0.43
  -1  -3   6  493.74    9.76
   1  -3  -6  488.85    9.82
  -1  -3   6  462.66    7.85
  -1  -3   5  911.67   15.58
  -1  -3   5  865.83   13.81
  -1  -3   4   22.82    0.93
  -1  -3   4   26.49    1.57
   1   3  -3 1205.44   19.00
   1  -3  -3 1235.68   19.95
   1  -3  -2    1.40    0.91
   1   3  -2    1.32    0.48
  -1  -3   2    3.09    0.68
   1  -3  -1    7.68    0.95
  -1  -3   1    8.77    0.83
  -1   3   1    5.01    0.74
   1  -3   0  162.07    3.68
  -1   3   0  161.65    3.66
  -1   3  -1   42.96    1.64
   1  -3   2  115.79    2.91
   1  -3   3 1187.30   18.80
  -1   3  -3 1139.13   18.71
  -1  -3  -3 1145.12   19.00
  -1  -3  -4   37.97    1.83
  -1   3  -4   35.09    1.53
   1  -3   4   38.76    1.69
  -1  -3  -5  220.73    5.37
  -1   3  -5  224.52    4.79
   1  -3   5  215.00    4.99
   1  -3   6    2.43    1.05
  -1  -3  -6    1.60    0.83
   1   3   6    0.41    1.00
  -1   3  -6    1.31    0.69
  -1  -3  -6    1.06    0.87
   1  -3   6    2.23    0.88
   1  -3   7  434.91    9.43
  -1  -3  -7  425.61    8.96
   1   3   7  421.06    9.22
  -1  -3  -7  428.41    9.23
  -1   3  -7  423.98    8.19
   1  -3   7  393.72    8.15
  -1  -3  -8   15.09    1.57
   1  -3   8   18.37    1.76
  -1  -3  -8   15.11    1.58
   1   3   8   14.19    1.63
   1  -3   8   16.39    1.26
  -1   3  -8   16.19    1.28
  -1  -3  -9   28.80    2.14
   1   3   9   25.79    2.17
  -1  -3  -9   25.61    1.99
   1  -3   9   27.59    2.11
   1  -3   9   26.93    1.63
  -1   3  -9   28.09    1.69
   1   3  10    7.10    1.59
   1  -3  10    6.34    1.53
  -1  -3 -10    6.68    1.32
   1  -3  10   11.20    1.65
  -1  -3 -10    8.33    1.42
   1  -3  10    7.74    1.04
  -1   3 -10    6.18    1.04
  -1  -3 -11  230.83    6.93
   1  -3  11  244.78    7.36
   1  -3  11  235.87    7.28
  -1  -3 -11  239.45    7.25
   1   3  11  222.29    7.08
  -1   3 -11  224.04    5.85
  -1  -3 -12    0.62    1.04
   1  -3  12   -0.46    1.36
   1  -3  12   -0.60    0.97
  -1  -3 -12    2.56    1.23
   1   3  12    0.42    1.23
  -1   3 -12    0.88    0.82
  -1  -3 -13  467.31   11.79
   1  -3  13  503.77   12.45
  -1  -3 -13  492.34   12.23
   1   3  13  480.16   12.23
   1  -3  13  469.14   12.20
  -1   3 -13  478.48   10.29
   1   3  14   27.02    2.85
  -1  -3 -14   32.66    2.82
   1  -3  14   28.53    2.83
  -1  -3 -14   25.17    2.14
  -1   3 -14   27.18    1.96
   1   3  15   35.23    3.28
  -1  -3 -15   38.34    3.11
   1  -3  15   35.45    3.23
  -1  -3 -15   36.50    2.66
  -1   3 -15   37.58    2.36
   1   3  16   48.18    3.88
   1  -3  16   44.90    3.79
  -1  -3 -16   47.59    3.64
  -1  -3 -16   49.31    3.17
  -1   3 -16   47.55    2.75
   1  -3  17  126.46    6.37
   1   3  17  117.54    6.08
  -1  -3 -17  126.47    6.05
  -1  -3 -17  120.96    5.20
  -1   3 -17  125.34    4.63
  -1  -3 -18   16.58    2.41
   1   3  18   13.34    2.46
   1  -3  18   19.40    2.83
  -1  -3 -18   16.90    2.13
  -1   3 -18   16.26    1.76
   1  -3  19   94.96    5.91
  -1  -3 -19   92.65    5.50
   1  -3  20   30.12    3.62
  -1  -3 -20   28.84    3.44
   1  -3  21    2.56    1.94
  -1  -3 -21    2.33    2.05
   1  -3  22   23.05    3.44
  -1  -3 -22   22.08    3.29
  -1  -4  23    8.42    2.59
   1  -4 -23    7.34    2.30
  -1  -4  22   51.31    4.70
   1  -4 -22   53.37    4.81
  -1  -4  21  124.69    7.07
   1  -4 -21  117.27    6.85
  -1  -4  20  126.72    6.92
   1  -4 -20  117.74    6.54
  -1  -4  19  108.57    6.19
   1  -4 -19  115.50    6.23
  -1  -4  18  104.23    5.84
   1  -4 -18   95.71    4.55
   1  -4 -18  101.00    5.76
   1   4 -17    0.13    0.54
  -1  -4  17    0.40    1.66
   1  -4 -17    1.62    1.50
  -1  -4  16    4.04    1.70
   1   4 -16    4.39    0.73
   1  -4 -16    0.14    1.38
  -1  -4  15   95.08    5.08
   1   4 -15   99.98    2.82
   1  -4 -15   93.62    4.99
   1   4 -14    3.40    0.65
   1  -4 -14    4.51    1.54
  -1  -4  14    4.14    1.58
   1   4 -13   23.02    1.21
   1  -4 -13   22.34    2.38
  -1  -4  13   21.46    2.33
   1   4 -12    0.83    0.49
   1  -4 -12    1.56    1.22
   1  -4 -12    2.91    1.43
  -1  -4  12    1.02    1.21
  -1  -4  12    2.14    1.13
   1  -4 -11    7.62    1.51
   1   4 -11    4.46    0.62
  -1  -4  11    7.63    1.58
  -1  -4  11    6.28    1.41
   1  -4 -11    4.86    1.46
   1   4 -10   67.90    1.94
   1  -4 -10   78.78    3.79
   1  -4 -10   68.82    3.49
  -1  -4  10   75.07    3.69
  -1  -4  10   70.02    3.44
   1  -4  -9   98.34    4.06
  -1  -4   9   91.84    3.84
  -1  -4   9  100.34    4.10
  -1  -4   9   89.32    2.31
  -1  -4   8  141.33    4.82
   1  -4  -8  148.40    4.91
  -1  -4   8  144.06    3.13
  -1  -4   7  540.70   10.84
   1  -4  -7  545.97   10.89
  -1  -4   7  472.55    8.60
  -1  -4   6 1218.10   21.43
  -1  -4   6 1231.59   19.43
  -1  -4   5  159.14    3.32
   1   4  -4  631.39   10.66
   1   4  -3  812.04   13.66
   1  -4  -3  871.70   14.71
  -1  -4   3  835.48   13.69
   1  -4  -2  509.46    9.55
  -1  -4   2  509.09    8.92
   1   4  -2  515.95    9.02
   1  -4  -1    1.23    0.99
  -1  -4   1    1.42    0.72
  -1   4   1    2.85    0.84
   1  -4   0   33.96    1.77
  -1   4   0   36.96    1.69
  -1   4  -1    0.77    0.73
   1  -4   1    2.19    0.99
  -1   4  -2 2677.51   41.91
   1  -4   3  116.95    3.17
  -1  -4  -4  579.99   10.79
   1  -4   4  574.46   10.41
  -1   4  -5   74.55    2.43
  -1  -4  -5   76.80    2.91
   1  -4   5   76.11    2.60
  -1  -4  -6 1181.46   20.35
  -1   4  -6 1149.99   19.17
   1  -4   6 1142.53   19.53
   1  -4   7   66.70    3.13
  -1  -4  -7   62.75    2.90
  -1   4  -7   66.93    2.35
   1  -4   7   61.28    2.50
  -1  -4  -8  124.71    4.27
   1  -4   8  129.47    4.67
  -1  -4  -8  132.06    4.56
  -1   4  -8  123.92    3.50
   1  -4   8  112.00    3.58
   1  -4   9  288.14    7.70
  -1  -4  -9  271.15    7.17
  -1  -4  -9  285.57    7.59
  -1   4  -9  268.02    6.15
   1  -4   9  270.55    6.24
  -1  -4 -10   49.10    2.99
   1  -4  10   47.57    3.05
  -1  -4 -10   46.48    2.76
   1  -4  10   43.47    2.08
  -1   4 -10   43.81    2.11
  -1  -4 -11    5.18    1.20
   1  -4  11    8.58    1.46
   1  -4  11    6.06    1.51
  -1  -4 -11    6.86    1.50
  -1   4 -11    5.84    0.97
   1  -4  11    6.93    1.03
  -1  -4 -12  864.80   17.90
   1  -4  12  863.35   18.48
   1  -4  12  903.99   18.80
  -1  -4 -12  886.79   18.43
  -1   4 -12  890.98   16.17
  -1  -4 -13    0.29    1.10
   1  -4  13    0.53    1.33
  -1   4 -13    0.22    0.73
  -1  -4 -14   23.55    2.40
   1  -4  14   23.73    2.66
  -1   4 -14   24.19    1.81
   1  -4  15    1.65    1.73
  -1  -4 -15    0.39    1.40
  -1   4 -15   -0.07    0.79
   1  -4  16  227.07    8.57
  -1  -4 -16  226.85    8.17
  -1  -4 -16  222.26    7.33
  -1   4 -16  236.62    6.39
   1  -4  17   58.82    4.37
  -1  -4 -17   52.01    3.92
  -1  -4 -17   52.60    3.48
  -1   4 -17   56.19    2.84
  -1  -4 -18   -0.55    1.73
   1  -4  18   -0.47    1.86
  -1  -4 -19    8.11    2.03
   1  -4  19   13.42    2.63
  -1  -4 -20   22.72    3.15
   1  -4  20   27.81    3.56
  -1  -4 -21    4.32    1.95
   1  -4  21    3.46    1.92
  -1  -4 -22    8.74    2.23
   1  -4  22   10.58    2.73
  -1  -4 -23   25.22    3.50
   1  -5 -23  108.54    6.96
  -1  -5  23  120.50    7.35
   1  -5 -22    9.70    2.55
  -1  -5  22   10.66    2.28
   1  -5 -21   40.51    4.11
  -1  -5  21   50.15    4.56
   1  -5 -20   28.48    3.46
  -1  -5  20   28.85    3.46
   1  -5 -19  455.59   13.78
  -1  -5  19  459.36   13.83
   1  -5 -18    7.83    2.08
  -1  -5  18    8.90    2.21
   1  -5 -17   40.71    3.70
  -1  -5  17   46.34    3.87
   1  -5 -16    4.16    1.49
  -1  -5  16    3.85    1.62
   1  -5 -15  455.85   12.39
  -1  -5  15  451.87   12.35
  -1  -5  14    4.01    1.58
   1  -5 -14    3.79    1.40
   1  -5 -13  172.54    6.42
  -1  -5  13  163.68    6.25
  -1  -5  12    6.88    1.62
   1  -5 -12    7.49    1.65
  -1  -5  12    8.40    1.66
   1  -5 -12    8.35    1.56
  -1  -5  11   16.96    2.05
  -1  -5  11   17.40    2.07
   1  -5 -11   14.25    1.81
   1  -5 -11   17.80    2.11
  -1  -5  10    4.46    1.22
   1  -5 -10    5.24    1.39
  -1  -5  10    4.95    0.62
  -1  -5   9    3.68    1.20
   1  -5  -9    3.94    1.20
  -1  -5   9    4.13    0.68
  -1  -5   8   53.33    2.89
   1  -5  -8   55.22    2.95
  -1  -5   8   51.93    1.84
  -1  -5   7 2771.52   45.12
   1  -5  -7 2755.65   45.11
  -1  -5   7 2751.85   42.68
  -1  -5   6   81.69    2.28
   1   5  -6   76.19    2.42
   1   5  -5  612.73   10.74
   1  -5  -4    9.34    1.38
   1   5  -4   11.67    0.98
   1  -5  -3  234.26    5.72
   1   5  -3  197.91    4.51
  -1  -5   3  208.14    4.59
  -1  -5   2  328.61    6.42
   1  -5  -2  318.47    6.91
   1   5  -2  319.22    6.43
  -1  -5   1   27.55    1.53
  -1   5   1   32.96    1.87
   1  -5  -1   28.02    1.80
   1  -5   0   19.33    1.57
  -1  -5   0   21.01    1.43
  -1   5   0   21.31    1.47
  -1   5  -1  358.72    7.33
   1  -5   1  361.44    7.42
  -1   5  -2   80.90    2.77
   1  -5   3  721.72   12.94
  -1   5  -3  739.35   13.09
   1  -5   4   89.53    2.91
  -1  -5  -5    5.42    1.06
   1  -5   5    4.81    0.95
  -1  -5  -6   18.24    1.60
   1  -5   6   17.49    1.43
  -1  -5  -7 1826.26   30.15
  -1   5  -7 1737.41   28.57
   1  -5   7 1755.93   29.03
   1  -5   8    2.63    1.27
  -1   5  -8    2.34    0.69
  -1  -5  -8    5.80    1.23
   1  -5   8    2.75    0.91
  -1  -5  -9  554.47   11.73
   1  -5   9  575.94   12.50
  -1  -5  -9  570.19   12.21
  -1   5  -9  540.53   10.33
   1  -5   9  495.66   10.55
  -1  -5 -10   19.88    1.90
   1  -5  10   21.39    2.20
  -1  -5 -10   20.39    2.01
  -1   5 -10   22.97    1.53
   1  -5  10   21.04    1.58
  -1   5 -11  479.59    9.75
  -1  -5 -11  502.65   11.97
   1  -5  11  491.80    9.95
   1  -5  11  502.77   12.19
  -1  -5 -11  477.96   11.36
  -1   5 -12   85.94    3.15
  -1  -5 -12   88.17    4.38
   1  -5  12   85.14    3.16
   1  -5  12   94.85    4.67
  -1  -5 -12   90.83    4.29
  -1   5 -13  435.65    9.16
  -1  -5 -13  426.22   11.06
   1  -5  13  430.71   11.59
  -1   5 -14   12.92    1.37
   1  -5  14   12.27    2.11
  -1  -5 -14   10.86    1.95
  -1   5 -15  126.22    4.13
  -1  -5 -15  120.72    5.58
   1  -5  15  117.42    5.86
  -1   5 -16    9.69    1.35
  -1  -5 -16   10.74    2.09
   1  -5  16   10.90    2.14
  -1   5 -17    5.29    1.07
   1  -5  17    3.54    1.56
  -1  -5 -17    7.08    1.90
  -1  -5 -18   33.41    3.36
   1  -5  18   35.47    3.74
  -1  -5 -19    4.66    1.83
   1  -5  19    4.81    2.09
   1  -5  20    3.75    2.11
  -1  -5 -20    4.03    1.94
   1  -5  21    2.05    1.82
  -1  -5 -21    2.01    1.79
   1  -5  22    0.93    1.88
  -1  -5 -22    0.00    1.78
  -1  -5 -23   48.68    4.69
  -1  -6  22    5.73    3.96
   1  -6 -22    7.91    2.69
  -1  -6  21    5.11    2.20
   1  -6 -21    7.30    2.25
  -1  -6  20  369.67   12.54
   1  -6 -20  372.71   12.52
  -1  -6  19   -0.07    1.64
   1  -6 -19    0.34    1.69
  -1  -6  18  331.09   11.12
   1  -6 -18  332.51   11.14
  -1  -6  17    1.08    1.69
   1  -6 -17    0.92    1.73
  -1  -6  16   38.67    3.40
   1  -6 -16   38.78    3.39
   1  -6 -15    1.53    1.35
  -1  -6  15    0.23    1.40
   1  -6 -14   26.98    2.78
  -1  -6  14   25.02    2.71
   1  -6 -13  119.08    5.43
  -1  -6  13  113.99    5.20
   1  -6 -12   10.56    1.85
  -1  -6  12   11.75    1.81
  -1  -6  12    8.45    1.70
   1  -6 -12   11.43    1.82
  -1  -6  12    9.82    0.84
  -1  -6  11    7.65    1.53
   1  -6 -11    7.63    1.56
  -1  -6  11    7.72    0.78
  -1  -6  10   34.10    2.61
   1  -6 -10   34.97    2.68
  -1  -6  10   32.67    1.52
  -1  -6   9   23.12    2.07
   1  -6  -9   23.75    2.13
  -1  -6   9   21.47    1.31
  -1  -6   8  269.89    7.43
   1  -6  -8  266.73    7.36
  -1  -6   8  263.04    5.55
  -1  -6   7   10.98    1.00
   1   6  -7    8.87    1.03
  -1  -6   6 6523.91   98.61
   1   6  -6 6417.34   98.89
   1  -6  -5    6.37    1.17
   1   6  -5    5.67    0.83
   1  -6  -4  644.74   12.40
   1   6  -4  610.38   11.16
   1  -6  -3   81.56    3.22
   1   6  -3   79.24    2.61
  -1  -6   3   80.33    2.70
  -1  -6   2  331.74    6.96
   1  -6  -2  336.92    7.63
   1   6  -2  348.15    7.02
  -1  -6   1   15.97    1.39
   1  -6  -1   12.03    1.50
  -1   6   1   14.20    1.37
  -1   6   0  379.33    8.07
  -1  -6   0  406.29    8.16
   1  -6   0  389.22    8.25
  -1  -6  -1   46.44    2.27
   1  -6   1   48.73    2.33
  -1   6  -1   48.10    2.30
   1  -6   2  517.95   10.05
  -1   6  -2  502.14    9.93
  -1   6  -3  105.80    3.39
   1  -6   4  215.50    5.31
  -1   6  -4  222.36    5.44
   1  -6   5    3.32    0.93
  -1   6  -5    2.66    0.89
  -1  -6  -6  756.24   14.68
   1  -6   6  762.20   13.85
  -1  -6  -7    4.92    1.14
   1  -6   7    4.79    0.90
  -1  -6  -8  813.70   15.99
   1  -6   8  793.84   14.81
   1  -6   9   23.15    2.17
  -1  -6  -9   23.12    2.08
   1  -6   9   22.63    1.72
   1  -6  10  726.39   15.30
  -1  -6 -10  673.25   14.18
  -1  -6 -10  702.47   14.83
   1  -6  10  627.18   12.82
  -1  -6 -11  161.52    5.74
   1  -6  11  164.53    6.19
  -1  -6 -11  164.78    6.02
  -1   6 -11  150.49    4.36
   1  -6  11  148.04    4.56
  -1  -6 -12 1547.75   28.32
  -1  -6 -12 1587.58   29.03
  -1   6 -12 1495.53   25.81
   1  -6  12 1556.70   26.16
  -1  -6 -13   11.64    1.81
  -1   6 -13    8.84    1.15
   1  -6  13   13.56    1.37
  -1   6 -14   10.74    1.21
   1  -6  14    8.87    1.92
  -1  -6 -14   12.52    1.99
  -1   6 -15   11.60    1.32
  -1  -6 -15    9.79    1.83
   1  -6  15   12.33    2.34
  -1   6 -16  203.74    5.61
   1  -6  16  212.39    8.34
  -1  -6 -16  210.94    7.89
  -1   6 -17   -0.27    0.75
   1  -6  17    2.87    1.84
  -1  -6 -17    0.47    1.33
  -1  -6 -18    2.32    1.72
   1  -6  18    0.03    1.62
  -1  -6 -19    0.05    1.68
   1  -6  19    2.78    2.04
  -1  -6 -20   -0.38    1.80
   1  -6  20    1.41    1.76
   1  -6  21   -0.21    1.80
  -1  -6 -21    5.27    2.09
   1  -6  22   34.20    4.25
  -1  -6 -22   29.48    3.61
  -1  -6 -23   56.63    5.03
  -1  -7  22   42.27    4.45
   1  -7 -22   42.18    4.46
  -1  -7  21   49.27    4.77
   1  -7 -21   51.28    4.69
  -1  -7  20    5.69    2.06
   1  -7 -20    4.85    1.98
  -1  -7  19  325.47   11.43
   1  -7 -19  324.73   11.31
  -1  -7  18   21.50    2.89
   1  -7 -18   21.14    2.88
  -1  -7  17   81.47    5.07
   1  -7 -17   70.22    4.71
   1  -7 -16    8.50    1.98
  -1  -7  16   11.50    2.24
  -1  -7  15  137.50    6.25
   1  -7 -15  140.38    6.29
   1  -7 -14   39.55    3.36
  -1  -7  14   42.67    3.38
   1  -7 -13    3.13    1.45
  -1  -7  13    3.75    1.55
  -1  -7  13    3.60    0.71
  -1  -7  12    9.65    0.89
  -1  -7  11   55.07    3.50
   1  -7 -11   54.31    3.43
  -1  -7  11   51.00    2.05
   1  -7 -10    0.96    1.03
  -1  -7  10    1.72    1.18
   1   7 -10    0.20    0.67
  -1  -7  10    1.12    0.68
   1  -7  -9  280.93    7.94
  -1  -7   9  275.15    7.89
   1   7  -9  258.02    6.11
  -1  -7   9  262.55    5.86
  -1  -7   8   32.41    2.47
   1   7  -8   30.20    1.71
  -1  -7   8   32.06    1.65
  -1  -7   7  579.28   10.47
   1   7  -7  548.26   10.64
   1  -7  -6  481.81   10.57
   1   7  -6  461.16    9.12
   1   7  -5 4021.61   63.44
   1  -7  -5 4192.46   65.11
   1   7  -4  229.16    5.37
   1  -7  -4  254.36    6.63
  -1  -7   4  245.70    5.66
  -1  -7   3   43.78    2.11
   1   7  -3   47.06    2.19
   1  -7  -3   43.93    2.52
   1  -7  -2    1.42    1.14
  -1  -7   2    3.84    1.05
   1   7  -2    1.68    0.80
  -1   7   1   95.92    3.51
   1  -7  -1   92.16    3.52
  -1  -7   1   91.92    3.23
   1  -7   0    1.37    1.14
  -1  -7   0    2.97    1.06
  -1   7   0    1.68    0.88
  -1  -7  -1    2.33    1.11
   1  -7   1    2.54    1.07
  -1   7  -1    3.08    0.92
   1  -7   2   -0.04    0.99
  -1   7  -2   -2.04    0.92
  -1   7  -3  420.14    8.89
   1  -7   4   20.18    1.63
  -1   7  -4   18.64    1.55
   1  -7   5   69.86    2.84
  -1   7  -5   71.66    2.93
   1  -7   6   48.18    2.34
  -1   7  -6   50.10    2.47
  -1  -7  -7  430.44    9.97
   1  -7   7  429.90    9.12
  -1  -7  -8   21.48    1.97
   1  -7   8   19.24    1.60
  -1  -7  -9   18.21    1.98
   1  -7   9   17.72    1.59
   1  -7  10   10.56    1.65
  -1  -7 -10    8.57    1.54
   1  -7  10    6.66    1.08
  -1  -7 -11  270.69    7.88
  -1  -7 -11  284.06    8.43
   1  -7  11  252.31    6.65
  -1  -7 -12   10.75    1.83
   1  -7  12   10.08    1.36
   1  -7  13  134.53    4.38
  -1  -7 -13  133.09    5.64
   1  -7  14   34.52    2.07
  -1  -7 -14   33.09    2.90
  -1  -7 -15   85.05    4.73
   1  -7  15   74.78    4.76
  -1  -7 -16   -0.91    1.58
   1  -7  16    1.10    1.64
   1  -7  17   44.51    3.98
  -1  -7 -17   40.26    3.51
   1  -7  18   39.85    3.98
  -1  -7 -18   41.59    3.68
  -1  -7 -19    8.16    2.16
   1  -7  19    7.75    2.30
  -1  -7 -20    7.17    2.13
   1  -7  20   11.88    2.70
  -1  -7 -21   28.96    3.64
   1  -7  21   33.68    4.01
  -1  -7 -22    1.32    1.75
  -1  -8  22    1.06    1.94
   1  -8 -22    3.81    2.41
  -1  -8  21   72.61    5.50
   1  -8 -21   61.63    5.05
  -1  -8  20   40.25    4.08
   1  -8 -20   45.99    4.28
  -1  -8  19  161.17    7.80
   1  -8 -19  151.18    7.46
  -1  -8  18  163.02    7.59
   1  -8 -18  169.36    7.75
  -1  -8  17    7.23    2.19
   1  -8 -17    1.20    1.58
  -1  -8  16   23.81    2.78
   1  -8 -16   24.56    2.83
   1  -8 -15   15.09    2.26
  -1  -8  15   11.88    2.23
   1  -8 -14   18.41    2.31
  -1  -8  14   21.05    2.60
  -1  -8  14   18.60    1.18
  -1  -8  13  133.80    3.61
   1   8 -12    7.24    1.15
  -1  -8  12    9.50    0.97
   1   8 -11    1.95    0.86
  -1  -8  11    2.07    0.73
   1  -8 -10   12.81    1.84
  -1  -8  10   17.80    2.10
   1   8 -10   12.51    1.27
  -1  -8  10   12.97    1.17
  -1  -8   9    4.01    0.86
   1  -8  -9    5.44    1.41
   1   8  -9    5.12    1.01
  -1  -8   9    4.42    1.23
  -1  -8   8   73.66    2.68
   1   8  -8   73.15    2.85
  -1  -8   7   38.25    1.93
   1  -8  -7   36.00    2.59
   1   8  -7   34.28    1.89
   1  -8  -6  567.62   12.47
   1   8  -6  568.21   11.02
   1  -8  -5 1125.43   20.43
   1   8  -5 1020.93   18.32
   1   8  -4    2.34    0.83
   1  -8  -4    2.54    1.27
  -1  -8   4    2.15    0.99
   1  -8  -3    5.38    1.30
   1   8  -3    5.05    1.01
  -1  -8   3    4.95    1.09
   1  -8  -2   34.67    2.43
  -1  -8   2   36.76    2.15
   1  -8  -1   36.11    2.38
  -1  -8   1   34.11    2.09
  -1   8   1   34.98    2.22
  -1  -8   0  599.95   12.06
   1  -8   0  625.13   12.47
  -1   8   0  637.93   12.68
  -1   8  -1   39.28    2.28
  -1  -8  -1   40.73    2.38
   1  -8   1   39.73    2.38
  -1  -8  -2    0.90    1.15
   1  -8   2    1.73    1.16
  -1   8  -2    0.94    0.87
  -1   8  -3   66.06    2.89
  -1   8  -4  267.74    6.71
   1  -8   5   26.82    1.99
  -1   8  -5   27.92    1.94
   1  -8   6  658.22   12.82
  -1   8  -6  653.11   12.97
   1  -8   7    3.41    0.94
  -1  -8  -7    5.43    1.24
  -1   8  -7    4.44    1.03
   1  -8   8   14.65    1.46
  -1  -8  -8   18.11    1.92
  -1   8  -8   15.50    1.63
  -1  -8  -9   30.10    2.50
   1  -8   9   26.52    1.94
  -1  -8 -10    1.35    1.09
   1  -8  10    0.78    0.90
  -1  -8 -11  204.64    7.04
   1  -8  11  184.98    5.72
  -1  -8 -12  395.28   10.43
   1  -8  12  380.35    8.99
  -1  -8 -13   21.88    2.41
   1  -8  13   21.98    1.84
   1  -8  14   47.80    2.53
  -1  -8 -14   49.70    3.60
   1  -8  15   43.01    2.39
  -1  -8 -15   41.43    3.36
   1  -8  15   39.38    3.60
  -1  -8 -16   36.27    3.32
   1  -8  16   34.38    3.54
   1  -8  17    5.66    1.96
  -1  -8 -17   10.26    2.31
   1  -8  18   74.24    5.28
  -1  -8 -18   76.50    5.06
   1  -8  19   60.61    4.94
  -1  -8 -19   51.36    4.35
  -1  -8 -20   10.71    2.42
   1  -8  20   10.21    2.50
   1  -8  21    5.75    2.38
  -1  -8 -21    2.78    1.80
  -1  -8 -22   12.09    2.78
  -1  -9  22   17.33    3.23
   1  -9 -22   14.44    2.78
  -1  -9  21   98.25    6.45
   1  -9 -21  107.59    6.71
  -1  -9  20   15.83    2.91
   1  -9 -20   18.46    3.14
   1  -9 -19   35.47    3.96
  -1  -9  19   31.68    3.65
   1  -9 -18    2.91    1.99
  -1  -9  18    3.35    1.97
   1  -9 -17   16.23    2.71
  -1  -9  17   14.53    2.54
  -1  -9  16    3.29    1.66
   1  -9 -16    1.92    1.58
   1   9 -16    0.55    0.96
  -1  -9  15    4.64    1.92
   1  -9 -15    3.38    1.46
   1   9 -15    4.04    1.16
  -1  -9  14   39.70    1.85
   1   9 -14   35.26    2.24
   1   9 -13  512.17   11.09
  -1  -9  13  536.12   10.24
   1   9 -12    1.74    0.90
  -1  -9  12    3.66    0.94
   1   9 -11  163.52    4.93
  -1  -9  11  164.26    4.67
   1  -9 -10   28.39    2.62
  -1  -9  10   29.33    2.60
   1   9 -10   23.98    1.76
  -1  -9  10   27.59    1.77
  -1  -9   9    4.63    0.97
   1   9  -9    2.74    0.87
   1  -9  -9    6.54    1.65
  -1  -9   8    4.90    0.94
   1  -9  -8    5.37    1.54
   1   9  -8    5.74    1.06
  -1  -9   7   12.87    1.35
   1   9  -7    9.47    1.21
   1  -9  -7   11.45    1.80
   1   9  -6   39.23    2.15
   1  -9  -6   41.32    2.99
   1  -9  -5    3.85    1.43
   1   9  -5    3.97    0.96
  -1  -9   4    2.39    1.20
   1  -9  -4    0.59    1.10
   1   9  -4    2.38    0.92
   1  -9  -3   98.91    4.16
  -1  -9   3  100.00    3.67
   1   9  -3  100.39    3.64
   1  -9  -2    3.05    1.25
  -1  -9   2    4.90    1.18
   1  -9  -1  297.62    7.70
  -1  -9   1  291.88    7.26
  -1   9   0   79.12    3.47
  -1  -9   0   74.86    3.33
   1  -9   0   75.63    3.45
   1  -9   1  554.56   11.78
  -1  -9  -1  548.35   11.64
  -1   9  -1  560.24   11.76
  -1  -9  -2   20.19    1.99
   1  -9   2   16.27    1.71
  -1   9  -2   15.95    1.53
  -1  -9  -3   30.97    2.37
  -1   9  -3   29.59    2.08
  -1   9  -4   85.65    3.52
   1  -9   5  197.45    5.63
  -1   9  -5  185.16    5.60
   1  -9   6   18.72    1.74
  -1   9  -6   19.58    1.80
   1  -9   7   29.14    2.03
  -1   9  -7   29.00    2.10
  -1  -9  -8   51.55    3.14
  -1   9  -8   46.82    2.68
   1  -9   8   45.86    2.55
  -1  -9  -9   75.56    3.95
  -1   9  -9   73.25    3.42
   1  -9   9   79.24    3.38
  -1  -9 -10   34.33    2.81
  -1   9 -10   29.60    2.24
   1  -9  10   36.53    2.36
  -1   9 -11    5.10    1.10
   1  -9  11    4.11    1.18
   1  -9  12    0.45    0.94
  -1  -9 -13  144.78    6.04
   1  -9  13  140.30    4.84
  -1  -9 -14    1.34    1.36
   1  -9  14    0.58    0.92
  -1  -9 -15    5.37    1.91
   1  -9  15    4.01    1.01
   1  -9  16   10.56    1.31
  -1  -9 -16    8.35    1.94
   1  -9  16   12.01    2.49
  -1  -9 -17   37.89    3.62
   1  -9  17   39.53    4.03
   1  -9  18   74.98    5.33
  -1  -9 -18   74.44    4.96
   1  -9  19  201.25    9.00
  -1  -9 -19  181.30    8.24
  -1  -9 -20   -0.53    1.76
   1  -9  20   -2.62    2.08
   1  -9  21   13.50    2.94
  -1  -9 -21   13.13    2.90
  -1  -9 -22    2.39    1.89
   1 -10 -22   47.51    4.65
  -1 -10  21    4.89    1.96
   1 -10 -21    5.89    2.44
   1 -10 -20   45.32    4.51
  -1 -10  20   41.99    4.30
  -1 -10  19   10.39    2.46
   1 -10 -19    9.17    2.55
  -1 -10  18   17.92    2.83
   1 -10 -18   17.33    2.76
   1 -10 -17    2.51    1.50
  -1 -10  17    0.27    1.62
  -1 -10  16    3.32    1.66
   1 -10 -16    2.05    1.70
   1 -10 -15   35.16    3.38
  -1 -10  15   39.62    3.48
  -1 -10  15   38.42    1.82
   1  10 -15   36.98    2.47
   1  10 -14  118.17    4.39
  -1 -10  14  123.31    3.75
   1  10 -13  105.22    4.05
  -1 -10  13  102.74    3.60
   1  10 -12  468.01   10.45
   1 -10 -12  489.14   12.70
  -1 -10  12  493.20   10.28
   1  10 -11   20.99    1.78
   1 -10 -11   26.07    2.63
  -1 -10  11   27.72    1.86
   1  10 -10   38.14    2.31
   1 -10 -10   38.85    3.07
  -1 -10  10   41.33    2.25
  -1 -10   9    6.57    1.18
   1  10  -9    5.67    1.14
   1 -10  -9    3.91    1.67
  -1 -10   8  213.06    5.69
   1 -10  -8  206.79    7.10
   1  10  -8  209.79    5.83
  -1 -10   7    3.65    0.97
   1 -10  -7    1.75    1.39
   1  10  -7    4.20    1.02
   1  10  -6  120.02    4.08
   1 -10  -6  117.09    4.96
   1  10  -5   61.21    2.95
   1 -10  -5   54.05    3.33
   1  10  -4  788.92   15.09
  -1 -10   4  769.23   15.06
   1 -10  -4  780.07   16.12
   1 -10  -3  121.09    4.79
  -1 -10   3  117.58    4.22
   1 -10  -2   64.19    3.42
  -1 -10   2   63.13    3.07
   1 -10  -1   19.73    2.01
  -1 -10   1   20.37    1.87
   1 -10   0 1128.67   21.14
  -1  10   0 1142.61   21.16
  -1 -10   0 1130.33   20.92
  -1  10  -1  137.03    4.87
   1 -10   1  132.25    4.82
  -1 -10  -1  116.61    4.49
  -1 -10  -2   64.29    3.36
   1 -10   2   65.05    3.29
  -1  10  -2   64.98    3.20
  -1 -10  -3  125.18    4.89
  -1  10  -3  117.75    4.38
  -1 -10  -4  531.71   12.16
  -1  10  -4  533.00   11.61
   1 -10   5    4.72    1.13
  -1  10  -5    5.61    1.18
  -1 -10  -5    5.45    1.46
   1 -10   6  262.42    7.00
  -1  10  -6  257.26    7.09
   1 -10   7   11.20    1.47
  -1  10  -7   12.69    1.52
   1 -10   8  421.14    9.71
  -1 -10  -8  438.30   10.82
  -1  10  -8  407.23    9.85
  -1 -10  -9    1.37    1.10
   1 -10   9    2.70    1.03
  -1  10  -9    1.63    0.94
  -1  10 -10  427.09   10.32
   1 -10  10  452.43   10.28
  -1  10 -11   79.14    3.78
   1 -10  11   84.32    3.75
  -1  10 -12    4.23    1.24
   1 -10  12    6.56    1.44
  -1  10 -13   11.84    1.77
   1 -10  13   11.79    1.61
  -1 -10 -14   30.41    3.00
  -1  10 -14   23.72    2.25
   1 -10  14   26.60    2.19
  -1 -10 -15   11.03    2.03
  -1  10 -15   10.80    1.71
   1 -10  15   12.38    1.53
  -1 -10 -16   17.08    2.57
   1 -10  16   15.70    1.62
  -1 -10 -17    2.36    1.81
   1 -10  17    3.21    1.98
  -1 -10 -18  300.53   10.63
   1 -10  18  306.23   11.30
  -1 -10 -19   74.00    5.32
   1 -10  19   82.95    5.91
   1 -10  20    1.38    4.63
  -1 -10 -20    1.00    1.77
  -1 -10 -21    9.61    2.63
  -1 -10 -22   27.32    3.70
  -1 -11  21  151.34    8.22
   1 -11 -21  148.56    7.97
   1 -11 -21  132.54    7.31
  -1 -11  20    8.47    2.46
   1 -11 -20    7.72    2.37
   1 -11 -20   10.66    2.57
   1 -11 -19    7.63    2.38
  -1 -11  19    4.10    1.82
   1 -11 -19    8.03    2.44
  -1 -11  18    3.22    2.02
   1 -11 -18    0.82    1.73
   1 -11 -18    0.18    1.72
  -1 -11  17   16.29    2.67
   1 -11 -17   13.22    2.59
   1 -11 -17   11.21    2.35
   1 -11 -16    1.31    1.54
  -1 -11  16    0.61    1.54
   1 -11 -16    0.74    1.61
   1 -11 -15   80.83    5.05
   1  11 -14   21.07    1.93
   1 -11 -14   20.13    2.73
  -1 -11  14   19.63    1.54
   1  11 -13  908.98   17.68
   1 -11 -13  949.32   20.69
  -1 -11  13  919.75   17.40
   1  11 -12    3.00    1.06
   1 -11 -12    1.72    1.61
  -1 -11  12    3.07    0.96
   1  11 -11  417.59    9.81
   1 -11 -11  429.06   11.97
  -1 -11  11  451.41    9.76
   1 -11 -10   28.34    2.89
   1  11 -10   27.21    2.07
  -1 -11  10   34.38    2.21
  -1 -11   9   66.46    3.04
   1  11  -9   61.36    3.04
   1 -11  -9   64.01    4.05
  -1 -11   8   84.16    3.46
   1  11  -8   84.28    3.51
   1 -11  -8   88.07    4.72
   1 -11  -7   49.06    3.35
   1  11  -7   51.35    2.74
   1 -11  -6   10.32    1.85
   1  11  -6   10.29    1.44
   1 -11  -5  121.42    5.15
   1  11  -5  131.39    4.58
   1 -11  -4   28.99    2.58
   1  11  -4   30.48    2.20
  -1 -11   4   31.70    2.29
  -1 -11   3  166.29    5.40
   1 -11  -3  165.06    5.98
   1 -11  -2    9.08    1.61
  -1 -11   2    9.74    1.58
  -1 -11   1  511.00   11.47
   1 -11  -1  513.19   11.93
   1 -11   0   23.56    2.16
  -1 -11   0   23.54    2.18
   1 -11   1 1500.60   27.31
  -1  11  -1 1555.56   27.41
  -1 -11  -1 1498.72   27.23
  -1  11  -2   13.91    1.78
   1 -11   2   13.70    1.76
  -1 -11  -2   13.31    1.79
  -1 -11  -3  436.20   10.70
  -1  11  -3  435.23   10.28
   1 -11   3  428.33   10.37
  -1 -11  -4   35.19    2.82
  -1  11  -4   32.25    2.35
   1 -11   5  467.21   10.80
  -1 -11  -5  466.05   11.56
  -1  11  -5  473.23   10.91
   1 -11   6    2.52    1.11
  -1  11  -6   -0.76    1.00
  -1 -11  -6    1.11    1.27
   1 -11   7    0.26    0.94
  -1  11  -7    0.62    0.94
   1 -11   8    3.30    1.08
  -1  11  -8    3.05    1.14
  -1  11  -9  202.39    6.47
   1 -11   9  231.19    6.71
   1 -11  10   11.34    1.66
  -1  11 -10    8.84    1.47
  -1  11 -11   57.44    3.31
   1 -11  11   68.11    3.49
  -1  11 -12    5.35    1.24
   1 -11  12    5.37    1.34
  -1  11 -13   86.53    4.19
   1 -11  13   82.35    4.12
  -1 -11 -14   39.01    3.38
  -1  11 -14   38.53    2.80
   1 -11  14   35.32    2.59
  -1 -11 -15   43.92    3.63
   1 -11  15   42.50    2.66
  -1 -11 -16    2.93    1.73
  -1 -11 -17  248.31    9.39
   1 -11  17  253.78    9.99
  -1 -11 -18   -1.73    1.87
   1 -11  18   -0.67    1.83
   1 -11  19  392.47   13.34
  -1 -11 -19  370.55   12.53
   1 -11  20    6.88    2.57
  -1 -11 -20    3.11    2.00
  -1 -11 -21    0.11    1.77
  -1 -12  20   63.38    5.22
   1 -12 -20   61.43    5.09
   1 -12 -20   55.63    4.79
   1 -12 -19   21.47    3.08
  -1 -12  19   21.75    3.20
   1 -12 -19   22.91    3.20
   1 -12 -18    7.46    2.18
  -1 -12  18    8.02    2.55
   1 -12 -18   10.72    2.61
   1 -12 -17   -1.24    1.76
   1 -12 -17   -0.19    1.97
  -1 -12  16    4.71    1.93
   1 -12 -16   -1.15    1.93
   1 -12 -16    2.99    1.93
   1 -12 -15    5.99    2.16
   1 -12 -14  541.20   14.45
  -1 -12  14  480.61   10.68
   1  12 -13    3.22    1.17
   1 -12 -13    3.30    1.60
  -1 -12  13    4.59    1.13
   1  12 -12  411.01   10.05
   1 -12 -12  425.96   12.45
  -1 -12  12  459.00   10.10
   1 -12 -11  132.17    6.27
   1  12 -11  124.01    4.67
  -1 -12  11  136.13    4.70
  -1 -12  10   52.98    2.84
   1 -12 -10   55.77    4.13
   1  12 -10   49.48    2.84
  -1 -12   9    3.37    1.13
   1  12  -9    4.09    1.07
   1 -12  -9    5.29    1.78
  -1 -12   8    3.43    1.00
   1  12  -8    2.89    1.07
   1 -12  -8    2.39    1.41
   1 -12  -7  104.90    5.11
   1  12  -7  115.98    4.60
   1 -12  -6   35.65    3.01
   1  12  -6   36.58    2.47
   1 -12  -5    2.84    1.27
   1  12  -5    4.51    1.22
   1 -12  -4  308.10    9.03
  -1 -12   4  305.19    8.17
  -1 -12   3   22.05    2.07
   1 -12  -3   25.88    2.52
   1 -12  -2   36.27    2.85
  -1 -12   2   35.65    2.61
  -1 -12   1   40.76    2.81
   1 -12  -1   41.38    2.95
   1 -12   0 1319.38   24.87
  -1 -12   0 1322.44   24.55
  -1  12  -1   12.50    1.69
   1 -12   1   11.95    1.67
  -1 -12  -1    9.46    1.60
  -1  12  -2  837.82   16.97
  -1 -12  -2  799.31   16.96
   1 -12   2  813.87   16.90
  -1  12  -3    7.05    1.34
  -1 -12  -3    4.02    1.35
   1 -12   3    4.49    1.34
  -1  12  -4  230.56    6.99
  -1 -12  -4  230.85    7.47
  -1  12  -5   10.62    1.54
  -1 -12  -5   14.20    2.20
   1 -12   6  167.70    5.78
  -1  12  -6  173.05    5.91
  -1 -12  -6  170.65    6.53
   1 -12   7    0.74    1.02
  -1  12  -7    1.90    1.05
  -1 -12  -7    2.59    1.44
   1 -12   8  160.79    5.55
  -1  12  -8  155.10    5.61
  -1 -12  -8  152.84    6.35
   1 -12   9   14.05    1.81
  -1  12  -9   15.58    1.93
  -1 -12  -9   12.54    2.06
  -1  12 -10  404.72   10.43
   1 -12  10  433.38   10.44
  -1  12 -11   16.60    1.98
   1 -12  11   17.99    2.00
  -1  12 -12   16.13    2.05
   1 -12  12   18.82    1.98
  -1  12 -13    2.74    1.18
   1 -12  13    7.78    1.59
   1 -12  14   52.90    3.26
  -1 -12 -15   26.13    3.04
   1 -12  15   23.51    2.14
  -1 -12 -16   63.12    4.50
  -1 -12 -17   48.53    4.16
   1 -12  18  325.83   11.99
  -1 -12 -18  319.67   11.25
  -1 -12 -19   -1.11    2.06
   1 -12  19    0.68    1.84
  -1 -12 -20    5.97    2.02
  -1 -12 -21    6.99    2.54
  -1 -13  20   41.75    4.40
   1 -13 -20   52.38    4.84
   1 -13 -19    2.85    2.28
  -1 -13  19    2.86    1.86
   1 -13 -19    3.26    1.95
   1 -13 -18    8.44    2.24
  -1 -13  18    4.69    2.11
   1 -13 -18    7.68    2.53
   1 -13 -17    7.78    2.27
  -1 -13  17   11.13    2.59
   1 -13 -17   10.93    2.55
   1 -13 -16   15.92    2.78
   1 -13 -15    4.77    1.94
   1 -13 -14    5.77    1.88
   1 -13 -13  491.41   14.05
   1  13 -13  413.13   10.43
  -1 -13  13  461.56   10.47
   1 -13 -12   99.86    5.78
   1  13 -12   98.95    4.24
  -1 -13  12  100.80    4.16
   1 -13 -11   48.69    3.96
   1  13 -11   42.74    2.69
  -1 -13  11   57.54    3.12
  -1 -13  10   17.55    1.93
   1 -13 -10   16.27    2.39
   1  13 -10   16.22    1.84
  -1 -13   9  142.40    5.09
   1  13  -9  137.45    5.08
   1 -13  -9  144.07    6.43
  -1 -13   8   22.12    2.08
   1  13  -8   19.84    2.00
   1 -13  -8   20.70    2.54
   1 -13  -7  120.26    5.67
   1  13  -7  124.17    4.84
   1 -13  -6   40.15    3.30
   1  13  -6   41.24    2.76
   1 -13  -5   19.12    2.47
  -1 -13   4   15.54    1.92
   1 -13  -4   17.08    2.25
   1 -13  -3  360.40   10.14
  -1 -13   3  365.30    9.51
   1 -13  -2    3.15    1.47
  -1 -13   2    2.01    1.19
  -1 -13   1  278.55    8.11
   1 -13  -1  272.12    8.35
  -1 -13   0   10.92    1.81
   1 -13   0   10.39    1.87
   1 -13   1  641.95   14.54
  -1 -13  -1  642.20   14.52
   1 -13   2   96.91    4.60
  -1 -13  -2   95.90    4.65
  -1  13  -2  106.15    4.67
  -1  13  -3    0.83    1.06
   1 -13   3    1.59    1.80
  -1 -13  -3   -2.19    1.61
  -1 -13  -4    1.32    1.28
  -1  13  -4    4.45    1.29
  -1  13  -5  104.94    4.62
  -1 -13  -5  110.78    5.20
   1 -13   6    4.75    1.41
  -1 -13  -6    4.71    1.83
  -1  13  -6    5.33    1.30
   1 -13   7    0.95    1.14
  -1  13  -7    2.16    1.12
  -1 -13  -7   -0.78    1.54
   1 -13   8    4.75    1.42
  -1  13  -8    2.78    1.41
  -1 -13  -8    3.03    1.74
   1 -13   9  160.06    5.83
  -1  13  -9  153.16    5.81
  -1 -13  -9  157.97    6.77
   1 -13  10   -0.16    1.18
  -1  13 -10    0.83    0.97
  -1 -13 -10    0.43    1.63
  -1  13 -11    8.64    1.62
  -1 -13 -11    3.97    1.59
   1 -13  11    7.00    1.47
  -1 -13 -12   -1.23    1.89
   1 -13  12    0.83    1.08
   1 -13  13   54.16    3.47
   1 -13  14    0.18    1.08
  -1 -13 -15    7.98    2.13
  -1 -13 -16    0.99    1.75
  -1 -13 -17   45.08    4.12
  -1 -13 -18   11.02    2.50
   1 -13  18   11.16    2.94
  -1 -13 -19   73.63    5.50
   1 -13  19   71.41    5.63
  -1 -13 -20    0.58    1.91
   1 -14 -19   19.15    3.22
  -1 -14  19   18.66    3.06
   1 -14 -18   39.94    4.03
  -1 -14  18   42.79    4.23
   1 -14 -18   43.87    4.36
  -1 -14  17   11.38    2.35
   1 -14 -17    8.48    2.12
   1 -14 -17   12.59    2.82
   1 -14 -16    3.51    1.88
   1 -14 -15   20.18    3.25
   1 -14 -14    5.25    2.21
   1 -14 -13   60.46    4.58
  -1 -14  13   59.18    3.30
   1 -14 -12  175.55    7.76
   1  14 -12  171.45    6.00
  -1 -14  12  183.23    6.05
   1 -14 -11  131.50    6.60
   1  14 -11  137.52    5.29
  -1 -14  11  147.74    5.37
  -1 -14  10    4.36    1.18
   1  14 -10    3.37    1.20
   1 -14 -10    5.71    1.95
  -1 -14   9   -0.48    1.12
   1 -14  -9   -0.81    1.43
   1  14  -9    1.43    1.10
  -1 -14   8   12.52    1.75
   1 -14  -8   13.55    2.45
   1  14  -8   12.34    1.71
   1  14  -7   38.14    2.71
   1 -14  -7   37.40    3.34
   1 -14  -6  114.60    5.66
   1 -14  -5   30.56    3.02
   1 -14  -4    2.54    1.52
  -1 -14   4    1.46    1.31
   1 -14  -3    2.79    1.61
  -1 -14   3    1.89    1.34
  -1 -14   2   15.14    2.12
   1 -14  -2   11.51    2.05
   1 -14  -1    4.49    1.61
  -1 -14   1    5.48    1.64
  -1 -14   0  217.89    7.37
   1 -14   0  221.28    7.56
  -1 -14  -1  132.17    5.63
   1 -14   1  139.10    5.77
   1 -14   2    0.77    1.33
  -1 -14  -2   -0.98    1.50
  -1 -14  -3    1.60    1.48
  -1 -14  -4    2.58    1.54
  -1 -14  -5   44.96    3.48
   1 -14   6   83.86    4.30
  -1 -14  -6   82.25    4.72
   1 -14   7   25.07    2.45
  -1 -14  -7   25.72    2.93
   1 -14   8    3.17    1.31
  -1 -14  -8    6.12    2.10
   1 -14   9    4.12    1.28
  -1 -14  -9    6.16    2.05
   1 -14  10    1.73    1.26
  -1 -14 -10    2.74    1.75
   1 -14  11    6.54    1.64
  -1 -14 -11    3.48    1.84
  -1 -14 -12   79.50    5.26
   1 -14  12   79.71    4.26
  -1 -14 -13    4.71    2.11
   1 -14  13   -1.34    1.47
  -1 -14 -14   30.51    3.40
   1 -14  14   26.17    2.58
  -1 -14 -15   -0.31    1.66
  -1 -14 -16   -1.15    1.81
  -1 -14 -16    1.42    1.55
  -1 -14 -17   79.98    5.77
  -1 -14 -17   80.52    5.40
  -1 -14 -18   51.49    4.51
  -1 -14 -19    7.55    2.39
  -1 -14 -20    0.44    1.96
  -1 -15  18    4.09    2.18
   1 -15 -18    0.06    1.99
   1 -15 -16    6.28    2.43
   1 -15 -15   63.63    5.11
   1 -15 -14   -0.20    1.77
   1 -15 -13   10.95    2.45
  -1 -15  12    2.18    0.98
   1 -15 -12    2.86    1.89
  -1 -15  11    2.65    1.23
   1 -15 -11   -0.66    1.70
  -1 -15  10    9.32    1.62
   1 -15 -10   10.04    2.35
   1  15 -10    7.63    1.61
  -1 -15   9   35.11    2.78
   1  15  -9   34.96    2.77
   1 -15  -9   36.87    3.52
  -1 -15   8    3.92    1.36
   1 -15  -8    3.74    1.55
   1 -15  -7   59.97    4.30
   1 -15  -6   43.18    3.62
   1 -15  -5   67.90    4.45
   1 -15  -4    2.05    1.68
  -1 -15   4    2.96    1.44
   1 -15  -3    1.89    1.52
  -1 -15   3    2.91    1.46
   1 -15  -2   26.45    2.86
  -1 -15   2   25.68    2.57
  -1 -15   1   17.13    2.23
   1 -15  -1   16.09    2.26
   1 -15   0   21.78    2.59
  -1 -15   0   20.52    2.45
  -1 -15  -1   -1.09    1.32
   1 -15   1   -1.27    1.41
  -1 -15  -2   -1.26    1.53
   1 -15   2    1.22    1.36
  -1 -15  -3  203.48    7.60
  -1 -15  -4   23.60    2.65
  -1 -15  -5    6.72    2.02
   1 -15   6   10.91    2.00
  -1 -15  -6    6.24    1.85
   1 -15   7   99.05    4.87
  -1 -15  -7   96.07    5.38
   1 -15   8   14.41    2.10
  -1 -15  -8   14.46    2.50
   1 -15   9   40.02    3.09
  -1 -15  -9   40.03    3.82
   1 -15  10    3.22    1.47
  -1 -15 -10   -0.13    1.73
  -1 -15 -11  131.24    6.94
   1 -15  11  131.75    5.66
  -1 -15 -12    0.18    1.76
   1 -15  12    7.67    1.69
  -1 -15 -13  153.83    7.62
   1 -15  13  155.90    6.22
  -1 -15 -14    3.00    1.82
  -1 -15 -15   23.71    3.30
  -1 -15 -16   11.06    2.60
  -1 -15 -16   11.78    2.46
  -1 -15 -17   20.58    3.00
  -1 -15 -18   10.98    2.35
  -1 -15 -19    2.14    1.89
  -1 -16  18  103.43    6.55
   1 -16 -15    2.22    1.86
   1 -16 -14   50.02    4.40
   1 -16 -13    5.86    2.44
  -1 -16  12   28.78    2.62
   1 -16 -12   26.76    3.44
  -1 -16  11    8.16    1.68
   1 -16 -11    7.09    2.18
  -1 -16  10   39.46    2.98
   1 -16 -10   38.53    3.88
  -1 -16   9    0.09    1.12
   1 -16  -9    0.32    1.69
  -1 -16   8   22.37    2.45
   1 -16  -8   17.77    2.82
   1 -16  -7   11.09    2.41
   1 -16  -6  352.07   11.25
   1 -16  -5   17.72    2.49
  -1 -16   4   42.65    3.29
   1 -16  -4   39.60    3.57
   1 -16  -3   -3.97    2.02
  -1 -16   3    0.33    1.43
  -1 -16   2    0.40    1.31
   1 -16  -2    0.09    1.62
   1 -16  -1    4.04    1.57
  -1 -16   1   -0.35    1.36
   1 -16   0   -0.44    1.70
  -1 -16   0    2.39    1.64
   1 -16   1   25.98    2.87
  -1 -16  -1   25.52    2.81
  -1 -16  -2  200.78    7.68
   1 -16   2  198.24    7.53
  -1 -16  -3    4.05    1.53
  -1 -16  -4  109.23    5.71
  -1 -16  -5   12.64    2.32
   1 -16   6   99.37    5.14
  -1 -16  -6  106.24    5.81
   1 -16   7    9.67    1.84
  -1 -16  -7   10.06    2.42
   1 -16   8  150.55    6.25
  -1 -16  -8  139.93    6.82
   1 -16   9   34.19    3.01
  -1 -16  -9   31.80    3.49
  -1 -16 -10   56.78    4.60
   1 -16  10   61.50    3.95
   1 -16  11    5.62    1.62
  -1 -16 -11    5.06    2.10
  -1 -16 -12  316.29   11.68
   1 -16  12  338.34    9.97
  -1 -16 -13    7.51    2.25
  -1 -16 -14    4.14    2.38
  -1 -16 -15    1.74    1.93
  -1 -16 -16   46.45    4.28
  -1 -16 -17   17.16    2.96
  -1 -16 -18   15.59    3.08
   1 -17 -14    2.11    2.04
   1 -17 -13   10.24    2.73
   1 -17 -12    7.69    2.41
  -1 -17  11    2.50    1.29
   1 -17 -11    2.77    1.78
  -1 -17  10    3.49    1.33
   1 -17 -10    5.63    2.11
  -1 -17   9    6.19    1.57
   1 -17  -9    4.51    2.24
  -1 -17   8    5.36    1.60
   1 -17  -8    5.55    2.09
   1 -17  -7  460.63   13.74
   1 -17  -6    7.23    1.97
   1 -17  -5  298.74   10.53
   1 -17  -4   37.24    3.59
  -1 -17   4   37.93    3.28
   1 -17  -3    7.98    2.00
  -1 -17   3    8.96    1.96
   1 -17  -2    5.46    1.84
  -1 -17   2    3.57    1.43
  -1 -17   1   42.00    3.50
   1 -17  -1   44.17    3.76
   1 -17   0    2.64    1.54
  -1 -17   0    4.99    1.94
  -1 -17  -1   46.22    3.78
   1 -17   1   41.80    3.65
  -1 -17  -2   -0.85    1.60
   1 -17   2    0.73    1.59
  -1 -17  -3  215.51    8.35
  -1 -17  -4    7.50    2.08
   1 -17   5   11.06    2.15
  -1 -17  -5    9.82    2.28
   1 -17   6    2.11    1.35
  -1 -17  -6    3.32    1.67
   1 -17   7  270.43    9.13
  -1 -17  -7  272.24   10.05
   1 -17   8   14.22    2.20
  -1 -17  -8   11.04    2.39
   1 -17   9   94.06    5.02
  -1 -17  -9   83.54    5.53
   1 -17  10    9.89    1.79
  -1 -17 -10    6.26    2.12
  -1 -17 -11  283.80   10.92
   1 -17  11  311.43    9.82
  -1 -17 -12   13.90    2.89
  -1 -17 -13  123.49    7.16
  -1 -17 -17   19.17    3.15
   1 -18 -12    3.75    2.08
   1 -18 -11    9.34    2.57
  -1 -18  10   11.10    1.97
   1 -18 -10    3.90    2.09
  -1 -18   9    4.00    1.50
   1 -18  -9    1.05    1.91
  -1 -18   8    6.30    1.65
   1 -18  -8    7.27    2.36
  -1 -18   7    2.29    1.54
   1 -18  -7    0.34    1.71
   1 -18  -6  314.92   11.17
   1 -18  -5   73.41    5.10
   1 -18  -4   48.38    4.13
  -1 -18   3    8.89    2.24
   1 -18  -3   10.04    2.17
   1 -18  -2    9.72    2.31
  -1 -18   2    6.85    1.96
  -1 -18   1   -0.34    1.58
   1 -18  -1    1.64    1.88
  -1 -18   0   10.80    2.31
   1 -18   0   10.52    2.34
   1 -18   1    0.32    1.56
  -1 -18  -1    0.25    1.60
  -1 -18  -2   19.85    2.87
   1 -18   2   21.99    2.98
  -1 -18  -3    5.87    2.10
  -1 -18  -4   27.10    3.10
   1 -18   5    7.69    2.00
  -1 -18  -5    5.97    2.12
   1 -18   6   45.26    3.87
  -1 -18  -6   40.66    4.07
   1 -18   7   15.25    2.37
  -1 -18  -7   13.00    2.45
   1 -18   8  126.49    6.12
  -1 -18  -8  122.71    6.80
   1 -18   9   -1.97    1.44
  -1 -18  -9    1.19    1.93
   1 -18  10   58.43    4.12
  -1 -18 -10   53.95    4.79
   1 -18  11   26.56    2.94
  -1 -18 -11   17.69    3.04
   1 -19 -10    1.42    2.17
  -1 -19   9    4.13    1.75
   1 -19  -9    4.15    1.92
  -1 -19   8    4.90    1.86
   1 -19  -8    2.85    2.16
  -1 -19   7   67.46    4.55
   1 -19  -7   73.00    5.45
   1 -19  -6   10.52    2.74
   1 -19  -5   49.13    4.32
   1 -19  -4   66.58    4.96
   1 -19  -3    3.20    1.78
  -1 -19   3    4.23    1.91
   1 -19  -2    3.32    2.08
  -1 -19   2    0.63    1.65
  -1 -19   1   15.22    2.59
   1 -19  -1   12.95    2.51
  -1 -19   0   14.51    2.48
   1 -19   0   12.53    2.56
   1 -19   1    0.28    1.68
  -1 -19  -1   -0.22    1.63
  -1 -19  -2    5.48    2.06
  -1 -19  -3   27.22    3.30
  -1 -19  -4    5.12    2.11
   1 -19   5    2.41    1.61
  -1 -19  -5    3.96    2.10
   1 -19   6    5.03    1.85
  -1 -19  -6    0.84    1.89
   1 -19   7   72.20    4.80
  -1 -19  -7   69.09    5.26
   1 -19   8    4.70    1.99
  -1 -19  -8    5.64    2.23
   1 -19   9   -1.53    1.66
  -1 -19  -9    3.36    2.26
   1 -19  10    2.77    1.56
  -1 -19 -10    2.84    2.12
  -1 -20   8    0.10    1.45
   1 -20  -8   -0.13    2.02
  -1 -20   7   -0.09    1.42
   1 -20  -7   -1.34    1.90
   1 -20  -6   39.64    4.22
   1 -20  -5   15.80    2.82
   1 -20  -4    9.49    2.65
   1 -20  -3    1.69    1.78
  -1 -20   2    0.12    1.64
   1 -20  -2   -3.60    2.12
   1 -20  -1   23.34    3.09
  -1 -20   1   16.28    2.58
   1 -20   0  129.45    6.97
  -1 -20   0  131.08    6.78
   1 -20   1   34.52    3.71
  -1 -20  -1   37.83    3.74
  -1 -20  -2   13.16    2.72
  -1 -20  -3    0.39    1.78
  -1 -20  -4    8.32    2.42
   1 -20   5    6.72    2.13
  -1 -20  -5    9.12    2.45
   1 -20   6   45.24    4.08
  -1 -20  -6   45.36    4.36
   1 -20   7   -1.58    1.71
  -1 -20  -7   -1.83    1.75
   1 -20   8    6.39    2.25
  -1 -20  -8   -0.23    1.86
   1 -20   9   -1.12    1.64
  -1 -21   8    8.95    2.20
  -1 -21   7    3.33    1.81
  -1 -21   6   -0.19    1.76
   1 -21  -5   16.88    3.20
   1 -21  -4   -2.00    2.19
   1 -21  -3   93.66    6.25
  -1 -21   2    7.81    2.35
   1 -21  -2    8.08    2.34
  -1 -21   1   55.83    4.67
   1 -21  -1   51.68    4.76
  -1 -21   0    8.58    2.54
   1 -21   0   12.54    2.59
  -1 -21  -1  124.66    6.94
  -1 -21  -2   20.24    3.12
  -1 -21  -3    3.00    2.12
   1 -21   4   -3.92    1.99
  -1 -21  -4    0.41    1.75
   1 -21   5   48.94    4.41
  -1 -21  -5   52.02    4.84
   1 -21   6   -0.35    1.60
   1 -21   7   -0.89    1.76
   1 -21   8    0.94    1.87
  -1 -22   7    1.82    1.70
  -1 -22   6   32.81    3.66
  -1 -22   2   13.93    2.67
   1 -22  -1    9.99    2.68
  -1 -22   1   10.45    2.52
  -1 -22   0  117.92    6.95
   1 -22   0  105.08    6.61
  -1 -22  -1   12.81    2.69
  -1 -22  -2  113.98    6.94
   1 -22   4   56.96    4.76
   1 -22   5   -3.16    1.93
   1 -22   6   21.60    3.35
   1 -22   7    2.03    1.92
   2   0 -22    3.02    1.92
   2   0 -21   -0.89    1.64
  -2   0  21   -2.04    1.91
   2   0 -20  139.10    7.20
  -2   0  20  131.51    6.96
   2   0 -19    3.33    2.04
  -2   0  19   -1.82    1.78
   2   0 -18    0.84    1.57
  -2   0  18    1.21    1.54
   2   0 -18    0.87    0.87
   2   0 -17    1.57    1.51
  -2   0  17   -0.97    1.40
   2   0 -17    0.69    0.91
   2   0 -16  216.32    8.03
  -2   0  16  200.41    7.72
   2   0 -16  221.01    5.80
   2   0 -15   -0.40    1.26
  -2   0  15   -2.57    1.67
   2   0 -15    0.85    0.73
  -2   0  14  149.91    6.06
   2   0 -14  152.64    6.22
   2   0 -14  151.64    4.30
   2   0 -13   -1.26    1.05
   2   0 -13   -1.22    1.40
  -2   0  13   -1.27    1.36
   2   0 -13   -0.01    0.62
  -2   0  12 1443.74   26.54
   2   0 -12 1410.76   23.66
   2   0 -12 1466.09   26.87
   2   0 -12 1482.43   26.67
  -2   0  11    0.88    1.18
   2   0 -11    3.08    1.34
   2   0 -11   -0.43    0.90
  -2   0  10  984.29   18.87
   2   0 -10 1019.05   19.01
   2   0 -10  984.10   19.08
  -2   0   9   25.16    2.18
   2   0  -9   24.96    2.04
   2   0  -9   21.81    2.06
  -2   0   8  308.70    7.37
   2   0  -8  307.48    7.34
   2   0  -8  305.22    7.53
  -2   0   7    0.90    0.98
   2   0  -7    0.86    0.95
   2   0  -7    0.20    0.86
   2   0  -6  247.00    5.74
  -2   0   6  238.92    5.70
   2   0  -6  237.04    5.85
   2   0  -5    0.68    0.72
  -2   0   5    0.22    0.82
   2   0  -5   -0.35    0.83
   2   0  -4 1115.72   18.39
  -2   0   4 1113.22   18.34
   2   0  -4 1135.87   18.71
   2   0  -3    8.24    0.74
   2   0  -3    8.71    0.55
   2   0  -3    8.05    0.57
  -2   0   2 1153.22   18.09
  -2   0   2 1151.11   17.91
   2   0  -2 1175.52   18.12
   2   0  -1    1.81    0.57
  -2   0   1    1.73    0.48
  -2   0   0  116.75    2.79
   2   0   0  109.92    2.74
   2   0   1    3.67    0.79
  -2   0  -1    3.32    0.67
  -2   0  -2  173.70    3.97
   2   0   2  178.01    3.97
   2   0   3    2.85    0.68
  -2   0  -3    1.96    0.83
   2   0   3    1.94    0.89
   2   0   4  225.49    4.92
   2   0   4  230.09    5.07
  -2   0  -4  225.23    5.10
   2   0   5    0.64    0.98
   2   0   5    0.69    0.79
   2   0   5    2.08    0.95
  -2   0  -5    1.07    0.82
   2   0   6 2076.56   33.81
   2   0   6 2055.29   33.54
  -2   0  -6 2043.57   33.47
  -2   0  -6 2090.83   33.44
  -2   0  -7    2.36    0.97
   2   0   7   -0.63    1.11
   2   0   7   -0.25    0.85
  -2   0  -7    1.60    0.89
   2   0   8    6.19    1.28
   2   0   8    6.57    1.16
  -2   0  -8    8.17    1.27
  -2   0  -8    6.54    1.14
   2   0   9    2.20    1.01
  -2   0  -9    1.47    0.98
   2   0   9   -0.20    1.09
  -2   0  -9    3.28    0.98
   2   0  10  610.21   12.81
  -2   0 -10  575.74   12.60
   2   0  10  591.69   13.00
  -2   0 -10  588.03   12.06
   2   0  11    9.47    1.53
   2   0  11   10.49    1.77
  -2   0 -11    7.36    1.53
  -2   0 -11    9.97    1.46
   2   0  12   18.23    2.02
  -2   0 -12   16.67    1.90
   2   0  12   18.91    2.23
  -2   0 -12   16.34    1.75
  -2   0 -13    6.57    1.51
   2   0  13    7.20    1.55
   2   0  13    8.30    1.89
  -2   0 -13    7.66    1.31
   2   0  14   29.46    2.81
  -2   0 -14   27.28    2.28
   2   0  15   -0.18    1.42
  -2   0 -15    0.37    0.98
   2   0  16    7.45    1.92
  -2   0 -16    7.60    1.51
   2   0  17   -1.31    1.68
  -2   0 -17   -0.44    1.27
   2   0  18  596.39   15.90
  -2   0 -18  547.29   13.60
   2   0  19    2.55    2.10
   2   0  20  302.81   11.29
   2   0  21   17.19    3.34
   2   0  22   14.99    2.96
   2  -1 -23   53.97    5.07
  -2  -1  23   62.46    5.30
   2  -1 -22   -0.80    1.78
  -2  -1  22    0.79    1.88
   2  -1 -21   69.53    5.33
  -2  -1  21   67.06    5.16
   2  -1 -20   14.08    2.83
   2   1 -20   16.44    2.91
  -2  -1  20   10.93    2.44
   2  -1 -19   40.83    3.78
   2   1 -19   43.96    3.94
  -2  -1  19   41.40    3.76
   2   1 -18   25.10    3.24
   2  -1 -18   18.28    2.71
  -2   1  18   27.18    3.24
  -2  -1  18   22.48    2.95
   2  -1 -18   17.60    1.74
   2   1 -18   20.92    1.73
   2  -1 -17    1.11    1.48
   2   1 -17    2.13    1.60
  -2   1  17    1.42    1.40
  -2  -1  17    1.51    1.49
   2  -1 -17    2.41    0.98
   2   1 -17    2.00    0.90
   2   1 -16    7.93    1.88
   2  -1 -16    9.10    1.99
  -2  -1  16   10.23    2.23
  -2   1  16    6.60    1.86
   2   1 -16    7.36    1.07
   2  -1 -16    8.39    1.23
  -2   1  15  104.11    5.19
  -2  -1  15  105.56    5.18
   2   1 -15  103.31    5.21
   2  -1 -15  106.67    5.26
   2  -1 -15  104.62    3.73
   2   1 -15  105.58    3.40
   2  -1 -14    6.16    1.63
   2   1 -14    4.79    1.38
  -2   1  14    1.88    1.33
  -2  -1  14    3.67    1.52
   2   1 -14    5.85    0.90
   2  -1 -13  825.87   17.24
   2  -1 -13  808.97   17.22
   2   1 -13  789.01   17.12
  -2  -1  13  784.38   16.81
  -2   1  13  768.70   16.80
   2   1 -13  785.91   13.92
   2  -1 -12  122.40    5.00
   2   1 -12  117.78    5.05
   2  -1 -12  122.72    5.08
  -2   1  12  116.99    4.90
  -2  -1  12  116.01    4.85
   2   1 -12  121.68    3.30
  -2   1  11 1401.70   25.75
   2  -1 -11 1438.13   26.03
  -2  -1  11 1403.40   25.66
   2   1 -11 1416.73   22.86
  -2  -1  11 1427.29   25.99
   2   1 -11 1412.58   25.98
   2  -1 -11 1431.67   26.05
  -2  -1  10  147.69    5.10
  -2   1  10  153.68    5.24
   2  -1 -10  157.90    5.32
   2   1 -10  151.83    3.48
  -2  -1  10  160.08    5.38
   2   1 -10  153.59    5.32
   2  -1 -10  157.50    5.37
  -2  -1   9  415.84    9.47
   2  -1  -9  438.38    9.78
  -2   1   9  426.43    9.62
   2   1  -9  417.36    7.41
  -2  -1   9  425.47    9.76
   2   1  -9  429.23    9.78
   2  -1  -9  413.30    9.70
   2   1  -9  422.90    9.51
  -2  -1   8   76.98    3.18
  -2   1   8   79.43    3.26
   2  -1  -8   80.20    3.30
   2   1  -8   78.19    3.33
   2   1  -8   80.99    3.17
  -2  -1   8   78.61    3.29
   2  -1  -8   76.09    3.35
   2  -1  -7  166.70    4.77
  -2   1   7  160.78    4.73
  -2  -1   7  166.00    4.66
  -2  -1   7  169.10    4.85
   2  -1  -7  171.50    4.96
   2   1  -7  165.76    4.87
   2   1  -7  164.22    4.60
  -2  -1   6  130.04    3.77
   2  -1  -6  130.81    3.85
   2   1  -6  127.96    3.90
  -2  -1   6  127.48    3.92
   2   1  -6  126.30    3.70
   2  -1  -6  134.33    4.02
  -2  -1   5 1173.77   19.51
   2  -1  -5 1193.86   19.84
   2   1  -5 1175.94   19.86
   2   1  -5 1163.49   19.52
  -2  -1   5 1177.21   19.86
  -2  -1   4   77.91    2.33
   2  -1  -4   82.47    2.54
   2   1  -4   76.29    2.31
   2  -1  -4   80.41    2.19
   2   1  -4   81.14    2.54
  -2  -1   4   78.19    2.53
  -2  -1   3  958.05   15.83
   2   1  -3  985.66   15.86
  -2  -1   3  980.56   16.15
   2   1  -3 1010.28   16.22
  -2   1   3  980.34   15.78
   2  -1  -3 1006.75   15.81
  -2  -1   2   66.29    1.57
   2   1  -2   60.92    1.56
   2  -1  -2   69.94    1.85
  -2  -1   2   60.11    1.76
   2   1  -2   65.72    1.79
  -2   1   2   65.05    1.76
   2  -1  -2   66.43    1.79
  -2  -1   2   64.47    1.61
   2   1  -2   71.72    1.61
  -2   1   1  813.90   13.37
   2  -1  -1  840.09   13.37
  -2   1   1  816.23   13.28
   2   1  -1  814.81   13.20
  -2  -1   1  826.73   13.20
   2  -1   0    1.99    0.64
  -2   1   0    2.48    0.58
  -2  -1   0    1.77    0.50
   2   1   0    2.04    0.60
   2   1   1 1917.80   29.83
  -2  -1  -1 1925.38   29.87
   2  -1   1 1916.94   29.98
  -2   1  -1 1861.46   29.91
  -2  -1  -2  119.21    2.42
   2   1   2  114.62    2.41
   2   1   2  111.53    2.68
  -2  -1  -2  115.77    2.99
  -2   1  -2  107.77    2.98
   2  -1   2  107.44    3.10
   2   1   3   11.71    0.87
  -2  -1  -3   10.95    0.84
   2   1   3   11.90    1.05
   2  -1   3   16.08    1.28
  -2   1  -3   13.06    1.21
  -2  -1  -3   10.40    1.03
   2   1   4   36.84    1.81
  -2  -1  -4   34.11    1.52
   2   1   4   34.57    1.58
  -2  -1  -4   36.23    1.75
  -2   1  -4   35.39    1.82
   2  -1   4   38.54    1.83
   2   1   5  927.73   16.11
   2  -1   5  947.49   16.08
  -2  -1  -5  914.46   15.67
   2   1   5  908.71   15.71
  -2  -1  -5  905.03   15.92
   2  -1   5  945.08   15.87
  -2   1  -5  878.12   15.91
   2   1   6   16.53    1.55
   2  -1   6   15.34    1.44
   2   1   6   17.16    1.43
  -2  -1  -6   15.53    1.41
  -2  -1  -6   16.83    1.39
   2  -1   6   15.12    1.37
  -2   1  -6   16.29    1.41
   2   1   7  341.50    7.82
   2  -1   7  331.39    7.78
   2   1   7  334.18    7.48
  -2  -1  -7  327.01    7.37
   2  -1   7  333.91    7.68
   2  -1   7  327.57    7.12
  -2  -1  -7  322.61    7.31
  -2   1  -7  321.40    7.30
   2   1   8    1.78    0.77
   2   1   8    0.52    1.07
   2  -1   8    1.86    0.91
  -2  -1  -8    3.37    1.11
   2  -1   8    1.59    1.06
  -2   1  -8    1.92    0.88
  -2  -1  -8    0.74    0.76
   2   1   9   27.39    2.20
  -2  -1  -9   25.95    1.98
   2  -1   9   26.06    2.10
   2  -1   9   25.79    2.18
   2   1   9   27.56    2.04
  -2  -1  -9   26.54    1.89
  -2   1  -9   25.82    1.84
   2   1  10    7.32    1.36
   2  -1  10    8.64    1.46
  -2  -1 -10    5.79    1.29
   2  -1  10    8.09    1.49
   2   1  10    7.13    1.56
  -2  -1 -10    7.12    1.16
  -2   1 -10    8.29    1.23
   2  -1  11  148.19    5.65
   2   1  11  148.82    5.63
   2  -1  11  158.46    5.60
   2   1  11  160.38    5.54
  -2  -1 -11  148.66    5.33
  -2  -1 -11  160.71    5.11
  -2   1 -11  150.03    4.96
   2  -1  12   23.27    2.25
   2  -1  12   24.30    2.49
  -2  -1 -12   21.92    2.13
   2   1  12   23.33    2.26
   2   1  12   23.61    2.35
  -2  -1 -12   22.10    1.96
  -2   1 -12   21.79    1.90
   2  -1  13    7.79    1.68
   2  -1  13    8.15    1.58
  -2  -1 -13    7.21    1.52
   2   1  13    8.10    1.78
  -2  -1 -13    7.05    1.31
  -2   1 -13    7.80    1.41
   2  -1  14    9.60    2.06
  -2  -1 -14    9.78    1.87
   2   1  14   10.25    1.98
  -2  -1 -14    8.95    1.54
  -2   1 -14    7.76    1.47
  -2  -1 -15   36.04    3.04
   2  -1  15   37.43    3.34
   2   1  15   35.11    3.30
  -2  -1 -15   38.69    2.81
  -2   1 -15   39.24    2.81
  -2  -1 -16  161.31    6.69
   2  -1  16  160.82    7.10
   2   1  16  158.18    6.93
  -2  -1 -16  163.82    6.02
  -2   1 -16  154.61    5.91
   2   1  17   49.95    4.04
   2  -1  17   43.54    3.91
  -2   1 -17   45.02    3.25
  -2  -1 -17   43.51    3.18
   2  -1  18   69.40    4.94
   2   1  18   63.95    4.68
  -2  -1 -18   69.78    4.05
  -2   1 -18   63.92    3.91
   2  -1  19  232.50    9.46
   2   1  19  225.90    9.36
   2   1  20   15.35    2.92
   2  -1  20   11.38    2.48
   2  -1  21   35.72    4.09
   2   1  21   31.40    3.90
   2  -1  22    9.15    2.86
   2   1  22   17.03    3.35
   2  -2 -23   22.88    3.48
  -2  -2  23   21.38    3.28
   2  -2 -22    2.21    1.78
  -2  -2  22    3.56    2.22
   2  -2 -21    5.91    2.09
  -2  -2  21   10.88    2.59
   2  -2 -20    0.28    1.61
  -2  -2  20    2.14    1.70
   2  -2 -19    4.46    1.96
  -2  -2  19    9.24    2.33
   2   2 -18    6.81    1.91
   2  -2 -18    7.02    1.93
  -2  -2  18    3.42    1.78
   2  -2 -18    7.42    1.36
   2   2 -18    9.14    1.04
  -2  -2  17   19.45    2.58
   2  -2 -17   24.94    3.05
   2   2 -17   23.87    2.87
   2  -2 -17   23.94    2.01
   2   2 -17   23.89    1.49
   2   2 -16   92.54    5.10
   2  -2 -16   94.19    5.20
  -2  -2  16   89.03    4.95
   2   2 -16   93.77    2.98
   2   2 -15   14.53    2.19
   2  -2 -15   19.05    2.39
  -2  -2  15   17.61    2.35
   2   2 -15   15.84    1.23
   2  -2 -14  232.05    7.84
   2   2 -14  234.90    7.92
  -2  -2  14  225.57    7.57
   2   2 -14  226.91    5.12
   2   2 -13  151.77    6.06
  -2  -2  13  158.12    6.11
   2  -2 -13  165.15    6.18
   2  -2 -13  159.43    6.08
  -2  -2  13  150.79    5.85
   2   2 -13  153.21    3.85
  -2  -2  12 1072.41   20.59
   2  -2 -12 1032.76   20.38
   2   2 -12 1007.54   20.27
  -2  -2  12 1023.45   20.03
   2  -2 -12 1064.50   20.42
   2   2 -12  980.88   16.75
   2  -2 -11  298.57    8.31
   2   2 -11  297.41    8.27
  -2  -2  11  315.06    8.51
  -2  -2  11  294.71    8.08
   2  -2 -11  308.61    8.40
   2   2 -11  292.06    5.73
  -2  -2  10   11.26    1.48
   2  -2 -10   11.61    1.65
   2  -2 -10   12.08    1.75
   2   2 -10   13.18    1.75
  -2  -2  10   11.43    1.62
   2   2 -10   13.44    0.85
   2   2  -9  236.76    6.61
   2  -2  -9  239.65    6.75
  -2  -2   9  231.63    6.53
  -2  -2   9  238.24    6.40
   2  -2  -9  238.99    6.65
   2   2  -9  228.84    4.22
   2  -2  -8  497.04   10.45
  -2  -2   8  484.72   10.15
   2  -2  -8  482.72   10.52
   2   2  -8  479.32   10.39
  -2  -2   8  471.61   10.32
   2  -2  -7   16.26    1.54
   2   2  -7   16.89    1.60
  -2  -2   7   15.04    1.46
  -2  -2   7   16.93    1.57
   2  -2  -6   63.80    2.69
  -2  -2   6   62.21    2.50
  -2  -2   6   66.81    2.70
   2   2  -6   70.54    2.76
  -2  -2   5  361.28    7.23
  -2  -2   5  366.83    7.57
   2   2  -5  372.57    7.59
  -2  -2   4   60.58    2.04
   2  -2  -4   65.02    2.26
   2   2  -4   57.11    2.12
  -2  -2   4   63.11    2.27
   2  -2  -3   13.44    1.27
  -2   2   3   12.54    1.06
  -2  -2   3    8.67    0.79
   2   2  -3    9.56    0.89
  -2  -2   3    8.53    0.88
  -2   2   2  724.71   12.26
   2  -2  -2  745.36   12.27
  -2  -2   2  719.58   11.94
   2   2  -2  732.97   11.97
   2  -2  -1  353.71    6.58
  -2   2   1  358.17    6.57
   2  -2  -1  363.82    6.58
  -2  -2   1  346.85    5.90
  -2   2   0  566.49    9.97
   2  -2   0  586.26    9.99
   2   2   1  280.24    4.84
  -2   2  -1  280.46    5.54
  -2  -2  -1  266.12    4.82
   2  -2   1  291.33    5.60
  -2  -2  -2   61.80    1.67
  -2  -2  -2   69.46    1.94
   2   2   2   67.07    1.97
  -2   2  -2   73.09    2.30
   2  -2   2   78.78    2.39
  -2  -2  -3   11.05    0.82
  -2  -2  -3    8.17    0.87
   2   2   3    9.56    1.01
  -2   2  -3   10.69    1.08
   2  -2   3   10.37    1.17
  -2  -2  -4  440.01    8.11
  -2  -2  -4  447.55    8.51
   2   2   4  464.15    8.59
  -2   2  -4  442.46    8.53
   2  -2   4  423.11    8.62
  -2  -2  -5   28.48    1.57
  -2  -2  -5   29.57    1.72
   2   2   5   33.59    1.93
   2  -2   5   29.01    1.76
  -2   2  -5   29.68    1.69
  -2  -2  -6 1372.83   22.69
   2  -2   6 1399.14   23.43
  -2  -2  -6 1379.04   23.14
   2   2   6 1415.27   23.25
   2  -2   6 1346.28   22.68
  -2   2  -6 1249.41   22.69
   2  -2   7    8.50    1.26
  -2  -2  -7    8.31    1.19
  -2  -2  -7    7.81    1.23
   2   2   7    6.91    1.31
  -2   2  -7    7.02    1.08
   2  -2   7    6.66    1.08
   2   2   8    2.70    1.14
  -2  -2  -8    2.76    0.88
   2  -2   8    3.20    1.03
  -2  -2  -8    2.60    0.96
  -2  -2  -8    3.93    0.96
   2  -2   8    3.91    1.01
  -2   2  -8    3.62    1.01
   2   2   9   43.74    2.68
  -2  -2  -9   41.96    2.46
   2  -2   9   44.21    2.64
   2  -2   9   39.65    2.70
  -2  -2  -9   42.52    2.61
  -2  -2  -9   44.18    2.43
   2  -2   9   38.86    2.12
  -2   2  -9   39.21    2.32
   2   2  10  238.22    7.00
   2  -2  10  224.61    6.99
   2  -2  10  227.93    6.93
  -2  -2 -10  220.68    6.44
  -2  -2 -10  231.06    6.31
  -2   2 -10  229.50    6.32
  -2  -2 -11   12.90    1.70
   2  -2  11   15.07    2.07
   2  -2  11   13.41    1.67
   2   2  11   12.36    1.83
  -2  -2 -11   13.23    1.51
  -2   2 -11   10.70    1.47
   2  -2  12  118.74    5.26
   2   2  12  124.39    5.20
  -2  -2 -12  120.98    4.90
   2  -2  12  128.74    5.28
  -2  -2 -12  124.46    4.66
  -2   2 -12  116.25    4.52
   2   2  13  332.41    9.66
   2  -2  13  340.08    9.79
  -2  -2 -13  334.11    9.26
   2  -2  13  359.78    9.89
  -2  -2 -13  340.52    8.79
  -2   2 -13  317.09    8.53
   2  -2  14   13.49    2.10
  -2  -2 -14   10.69    1.79
   2   2  14    9.92    1.92
  -2  -2 -14   13.77    1.76
  -2   2 -14   10.13    1.51
  -2  -2 -15    5.69    1.52
   2  -2  15    4.41    1.82
   2   2  15    5.27    1.83
  -2  -2 -15    4.44    1.30
  -2   2 -15    5.28    1.31
  -2  -2 -16   92.54    4.99
   2   2  16   95.08    5.37
   2  -2  16   94.10    5.41
  -2   2 -16   91.95    4.31
  -2  -2 -16  103.68    4.70
  -2  -2 -17    0.95    1.40
   2   2  17    2.79    2.02
   2  -2  17    2.75    1.69
  -2   2 -17    1.46    1.26
  -2  -2 -17    1.98    1.34
  -2  -2 -18  623.76   15.87
   2  -2  18  632.33   16.67
   2   2  18  625.55   16.58
  -2  -2 -18  610.12   14.58
  -2   2 -18  559.98   13.66
   2  -2  19    1.71    1.93
   2   2  19    0.86    1.80
  -2  -2 -19    0.58    1.67
   2  -2  20   50.73    4.67
   2   2  20   49.65    4.52
   2   2  21   13.18    2.89
   2  -2  21   12.44    2.77
   2  -2  22    7.17    2.50
   2   2  22    8.65    2.67
  -2  -3  23    5.52    2.41
   2  -3 -23    8.74    2.63
  -2  -3  22   -0.14    1.94
   2  -3 -22   -0.97    2.03
  -2  -3  21   19.00    3.03
   2  -3 -21   10.80    2.48
  -2  -3  20   68.65    5.05
   2  -3 -20   73.01    5.20
  -2  -3  19   47.03    4.04
   2  -3 -19   51.40    3.11
   2  -3 -19   50.90    4.26
   2   3 -18    4.25    0.59
  -2  -3  18    4.13    1.79
   2  -3 -18    5.42    1.35
   2  -3 -18    4.85    1.87
   2  -3 -17   29.21    3.12
  -2  -3  17   23.53    2.80
   2   3 -17   24.58    1.17
   2  -3 -16   25.90    2.92
  -2  -3  16   24.11    2.71
   2   3 -16   24.31    1.15
   2  -3 -15    7.09    1.73
   2   3 -15    7.00    0.67
  -2  -3  15    6.17    1.78
   2   3 -14    6.84    1.77
   2  -3 -14    6.52    1.66
   2   3 -14    7.84    0.66
  -2  -3  14    6.02    1.61
   2  -3 -13   85.09    4.42
   2   3 -13   75.40    4.24
  -2  -3  13   87.26    4.47
   2  -3 -13   86.09    4.42
  -2  -3  13   78.39    4.12
   2   3 -13   81.35    2.02
  -2  -3  12   34.38    2.64
   2   3 -12   36.72    1.14
   2  -3 -12   35.78    2.78
   2   3 -12   36.25    2.90
   2  -3 -12   37.87    2.89
  -2  -3  12   32.86    2.70
   2  -3 -11  491.17   11.37
   2   3 -11  441.41    7.40
  -2  -3  11  468.13   10.83
  -2  -3  11  476.59   11.15
   2   3 -11  467.57   11.17
   2  -3 -11  480.50   11.28
   2  -3 -10   14.59    1.75
  -2  -3  10   13.70    1.71
   2   3 -10   17.18    1.90
  -2  -3  10   12.69    1.68
   2  -3 -10   14.16    1.79
  -2  -3   9  405.36    9.30
   2  -3  -9  418.53    9.80
   2   3  -9  410.02    9.69
  -2  -3   9  417.76    9.72
   2  -3  -8    1.89    1.01
  -2  -3   8    2.24    1.02
  -2  -3   8    0.99    0.95
   2   3  -8    1.44    1.05
   2  -3  -7  712.70   13.76
   2   3  -7  709.07   13.64
  -2  -3   7  695.64   13.58
  -2  -3   7  700.74   13.18
  -2  -3   6   59.38    2.59
  -2  -3   6   57.99    2.43
   2   3  -6   61.99    2.73
   2   3  -5  601.23    9.74
   2  -3  -5  644.33   11.34
  -2  -3   5  619.55   11.46
   2  -3  -4  890.06   15.31
  -2  -3   4  887.83   15.26
  -2   3   3 9919.12  149.39
   2  -3  -3 9930.94  149.47
  -2  -3   3 9775.93  148.07
  -2  -3   3 9999.00  149.16
   2  -3  -2   47.61    1.97
  -2   3   2   47.04    1.87
   2  -3  -1 1844.39   29.40
  -2   3   1 1855.84   29.44
   2  -3   0   64.14    2.24
  -2   3   0   62.05    2.20
  -2   3  -1   41.17    1.75
   2  -3   1   40.77    1.82
  -2  -3  -2   47.97    1.65
  -2   3  -2   44.54    1.86
   2  -3   2   46.56    1.93
   2  -3   3    3.42    0.99
  -2   3  -3    2.55    0.77
  -2  -3  -3    2.89    0.78
  -2  -3  -4  126.43    3.23
  -2  -3  -4  129.22    3.52
  -2   3  -4  129.12    3.53
   2   3   4  129.02    3.61
   2  -3   4  131.13    3.70
  -2  -3  -5  268.64    5.80
  -2  -3  -5  269.29    6.13
   2   3   5  268.56    6.21
  -2   3  -5  270.32    6.01
   2  -3   5  259.46    6.23
  -2  -3  -6   19.59    1.58
  -2  -3  -6   19.47    1.46
  -2   3  -6   16.15    1.37
   2   3   6   16.67    1.61
   2  -3   6   17.84    1.54
   2  -3   7  287.96    7.26
  -2  -3  -7  289.95    6.65
   2   3   7  290.88    7.07
  -2  -3  -7  284.87    6.97
   2  -3   7  256.27    6.38
  -2   3  -7  279.98    6.45
   2  -3   8  143.84    4.88
  -2  -3  -8  140.03    4.40
  -2  -3  -8  138.83    4.66
   2   3   8  146.89    4.85
  -2   3  -8  130.83    4.09
   2  -3   8  137.87    4.17
   2   3   9  129.25    4.79
   2  -3   9  138.89    4.94
  -2  -3  -9  130.61    4.45
  -2  -3  -9  130.19    4.72
   2  -3   9  132.23    4.11
  -2   3  -9  123.81    4.10
  -2  -3 -10    9.92    1.47
   2  -3  10    8.56    1.41
  -2  -3 -10   10.58    1.56
   2   3  10   12.69    1.81
   2  -3  10    9.67    1.29
  -2   3 -10   10.70    1.35
   2   3  11  196.74    6.58
  -2  -3 -11  204.21    6.56
  -2  -3 -11  196.00    6.20
   2  -3  11  206.14    6.76
   2  -3  11  189.66    6.63
   2  -3  11  194.24    5.42
  -2   3 -11  187.57    5.59
   2   3  12   62.25    3.70
  -2  -3 -12   62.66    3.44
   2  -3  12   64.19    3.69
  -2  -3 -12   60.67    3.58
   2  -3  12   58.10    3.69
  -2  -3 -12   63.47    3.32
  -2   3 -12   57.09    2.92
   2   3  13  604.90   14.37
  -2  -3 -13  607.43   13.77
   2  -3  13  611.29   14.49
  -2  -3 -13  611.47   13.32
  -2   3 -13  579.00   12.59
   2  -3  14    1.06    1.35
  -2  -3 -14    0.20    1.18
   2   3  14   -1.54    1.52
  -2  -3 -14   -1.10    1.16
  -2   3 -14    0.28    0.98
   2   3  15   29.98    3.09
   2  -3  15   31.08    3.21
  -2  -3 -15   32.75    2.87
  -2  -3 -15   29.56    2.55
  -2   3 -15   34.94    2.54
   2  -3  16   11.92    2.30
  -2  -3 -16   10.84    1.97
   2   3  16    9.67    2.03
  -2  -3 -16   10.19    1.72
  -2   3 -16   10.80    1.64
  -2  -3 -17  176.04    7.25
   2   3  17  177.44    7.70
   2  -3  17  178.38    7.77
  -2   3 -17  166.63    5.94
  -2  -3 -17  184.89    6.82
  -2  -3 -18   60.77    4.38
   2  -3  18   58.55    4.44
   2   3  18   63.36    4.76
  -2   3 -18   58.78    3.38
   2  -3  19   68.36    5.12
   2   3  19   63.16    4.88
  -2  -3 -19   73.50    4.97
   2  -3  20   32.83    3.76
   2   3  20   43.17    4.25
  -2  -3 -20   35.64    3.80
   2  -3  21    5.94    2.48
   2  -3  22   -0.64    2.08
  -2  -4  23   10.04    2.51
   2  -4 -23   13.78    2.94
  -2  -4  22   -0.62    1.81
   2  -4 -22   -0.99    1.85
  -2  -4  21   16.86    2.89
   2  -4 -21   11.98    2.52
  -2  -4  20   40.31    4.03
   2  -4 -20   49.53    4.39
  -2  -4  19   54.82    4.30
   2  -4 -19   62.53    4.69
  -2  -4  18  201.42    8.24
   2  -4 -18  211.51    8.55
  -2  -4  17   80.65    4.93
   2  -4 -17   79.42    4.99
  -2  -4  16   78.99    4.70
   2  -4 -16   76.37    4.76
  -2  -4  15    8.34    1.99
   2  -4 -15    6.99    1.86
  -2  -4  14   13.13    2.04
   2  -4 -14   14.12    2.12
   2  -4 -13    5.31    1.62
  -2  -4  13    4.36    1.46
  -2  -4  13    4.46    1.29
  -2  -4  12   41.25    2.96
   2  -4 -12   41.91    3.05
  -2  -4  12   38.18    2.85
   2  -4 -12   37.26    2.90
   2  -4 -11    4.39    1.35
  -2  -4  11    2.99    1.17
   2  -4 -11    3.19    1.20
  -2  -4  11    3.04    1.29
   2  -4 -10   91.81    4.14
  -2  -4  10   90.08    3.85
  -2  -4  10   93.32    4.12
   2  -4  -9   10.08    1.54
  -2  -4   9   10.03    1.46
  -2  -4   9   10.33    1.51
   2  -4  -8    2.94    1.03
  -2  -4   8    2.10    0.97
  -2  -4   8    2.76    1.04
  -2  -4   7    8.61    1.21
  -2  -4   6 1319.80   20.43
   2  -4  -6 1362.57   22.59
   2   4  -6 1297.57   20.75
  -2  -4   6 1364.99   22.86
   2   4  -5   57.66    1.61
   2  -4  -5   62.17    2.67
  -2  -4   5   64.59    2.58
   2  -4  -4   47.70    2.42
   2   4  -4   56.98    1.65
  -2  -4   4   52.63    2.22
  -2  -4   3 3812.98   58.02
  -2   4   3 3785.32   59.32
   2  -4  -3 3834.31   59.40
  -2   4   2 6144.37   98.69
  -2  -4   2 6610.21   97.87
   2  -4  -2 6549.82   98.93
  -2   4   1    6.98    0.99
   2  -4  -1    9.34    1.29
   2  -4   0 1157.94   19.42
  -2   4   0 1152.90   19.32
   2  -4   1    1.72    0.91
  -2   4  -1    4.24    0.98
   2  -4   2  248.56    5.59
  -2   4  -3  105.32    3.20
   2  -4   3  116.50    3.35
  -2  -4  -3  105.98    3.03
  -2  -4  -4  152.85    4.08
  -2   4  -4  154.29    4.08
   2  -4   4  161.59    4.24
  -2  -4  -5   89.59    3.11
  -2   4  -5   89.85    2.96
   2  -4   5   79.90    3.09
  -2  -4  -6  254.26    5.92
  -2   4  -6  252.21    5.85
  -2  -4  -6  258.86    6.29
   2  -4   6  239.12    6.11
  -2  -4  -7   21.90    1.62
  -2  -4  -7   20.11    1.72
  -2   4  -7   19.41    1.50
   2  -4   7   20.62    1.69
   2  -4   8  122.21    4.67
  -2  -4  -8  124.32    4.12
  -2  -4  -8  125.90    4.44
   2   4   8  127.35    4.51
  -2   4  -8  125.98    3.92
   2  -4   8  115.26    3.91
  -2  -4  -9    1.15    0.91
  -2  -4  -9    1.33    1.02
   2  -4   9    1.21    0.98
   2   4   9    1.35    1.16
  -2   4  -9    1.55    0.79
   2  -4   9    2.29    0.95
   2  -4  10   89.46    4.16
  -2  -4 -10   89.34    3.83
   2   4  10   88.97    4.13
  -2  -4 -10   86.52    3.99
   2  -4  10   88.49    3.42
  -2   4 -10   90.88    3.44
  -2  -4 -11   16.19    1.92
   2  -4  11   17.23    1.98
  -2  -4 -11   20.56    2.02
  -2   4 -11   18.39    1.60
   2   4  11   20.10    2.23
   2  -4  11   19.12    1.65
   2   4  12 1342.88   25.70
   2  -4  12 1358.80   25.94
   2  -4  12 1414.63   26.20
  -2  -4 -12 1314.17   24.95
  -2  -4 -12 1372.91   25.76
   2  -4  12 1318.29   23.53
  -2   4 -12 1344.58   23.80
   2  -4  13   19.71    2.42
  -2  -4 -13   16.86    1.98
  -2   4 -13   21.00    1.81
   2   4  13   15.03    2.22
   2   4  14   58.58    3.95
  -2  -4 -14   56.10    3.58
   2  -4  14   54.33    3.94
  -2  -4 -14   57.22    3.39
  -2   4 -14   56.78    2.96
   2  -4  15   16.40    2.45
  -2  -4 -15   17.28    2.24
  -2   4 -15   17.91    1.80
   2   4  15   19.52    2.65
  -2  -4 -15   17.67    2.10
   2  -4  16   28.10    3.20
  -2  -4 -16   21.97    2.56
   2   4  16   23.20    2.91
  -2   4 -16   22.08    2.08
  -2  -4 -17   25.96    2.92
   2  -4  17   24.30    2.98
  -2   4 -17   31.88    2.43
  -2  -4 -18   71.44    4.74
   2  -4  18   75.84    5.23
  -2  -4 -19   54.49    4.27
   2  -4  19   56.72    4.72
  -2  -4 -20   46.46    4.17
   2  -4  20   49.96    4.61
  -2  -4 -21   59.97    4.84
   2  -4  21   71.02    5.54
  -2  -4 -22   35.99    3.97
   2  -4  22   37.02    4.37
   2  -5 -23    5.80    2.14
  -2  -5  23    1.67    2.17
   2  -5 -22    0.03    1.80
  -2  -5  22   -1.79    2.02
   2  -5 -21    6.82    2.62
  -2  -5  21    4.38    2.30
   2  -5 -20    7.38    2.43
  -2  -5  20   10.72    2.65
   2  -5 -19  527.92   15.09
  -2  -5  19  520.75   14.81
   2  -5 -18   66.48    4.78
  -2  -5  18   65.62    4.62
   2  -5 -17  139.97    6.61
  -2  -5  17  131.04    6.36
   2  -5 -16    9.68    2.22
  -2  -5  16    8.43    1.90
   2  -5 -15   12.33    2.03
  -2  -5  15   17.53    2.44
   2  -5 -14   19.23    2.42
  -2  -5  14   17.92    2.23
   2  -5 -13    7.97    1.66
  -2  -5  13    6.03    1.52
  -2  -5  12   17.03    2.09
  -2  -5  12   15.47    2.04
   2  -5 -12   17.60    2.14
   2  -5 -12   14.38    1.96
  -2  -5  11   12.68    1.71
  -2  -5  11   14.01    1.79
   2  -5 -11   13.74    1.91
  -2  -5  10  229.53    6.74
  -2  -5  10  246.09    7.28
   2  -5 -10  242.28    7.32
  -2  -5   9  410.38    9.49
  -2  -5   9  428.48   10.09
   2  -5  -9  414.95   10.14
  -2  -5   8   24.66    2.00
   2  -5  -8   28.74    2.21
  -2  -5   8   23.00    0.94
  -2  -5   7  124.72    4.31
   2  -5  -7  124.64    4.22
   2   5  -7  115.22    2.92
  -2  -5   7  123.92    2.67
   2   5  -6   27.04    1.24
   2  -5  -6   26.78    1.98
  -2  -5   6   28.65    1.97
   2   5  -5  398.12    7.27
   2  -5  -5  414.26    8.92
  -2  -5   5  411.83    8.63
   2  -5  -4   51.19    2.49
   2   5  -4   51.03    1.75
  -2  -5   4   53.68    1.77
  -2   5   3    7.78    1.20
   2  -5  -3   10.59    1.52
  -2  -5   3   11.59    1.04
  -2   5   2 1136.77   19.56
   2  -5  -2 1166.71   19.72
  -2  -5   2 1127.81   18.59
  -2   5   1  882.48   15.74
   2  -5  -1  901.32   15.84
  -2   5   0    5.05    1.01
   2  -5   0    4.99    1.21
  -2   5  -1  199.67    5.01
   2  -5   2    7.39    1.20
  -2   5  -2    9.52    1.28
   2  -5   3  193.22    4.91
   2  -5   4   -0.03    0.90
  -2  -5  -4    1.79    0.77
  -2   5  -5  415.46    8.56
  -2  -5  -5  418.23    8.86
   2  -5   5  432.50    8.79
  -2  -5  -6   38.96    2.20
  -2   5  -6   37.60    1.99
   2  -5   6   36.94    2.18
  -2   5  -7   40.57    2.10
  -2  -5  -7   39.99    2.39
   2  -5   7   40.10    2.34
  -2  -5  -8   46.37    2.47
  -2   5  -8   45.22    2.24
  -2  -5  -8   51.93    2.83
   2  -5   8   42.02    2.37
   2  -5   9   80.09    3.92
  -2  -5  -9   71.39    3.26
  -2  -5  -9   74.12    3.56
  -2   5  -9   73.71    2.96
   2  -5   9   72.82    3.20
   2  -5  10   42.31    2.99
  -2  -5 -10   38.74    2.49
  -2  -5 -10   41.52    2.80
  -2   5 -10   37.74    2.16
   2  -5  10   40.17    2.34
  -2  -5 -11  199.20    6.31
   2  -5  11  207.42    7.08
  -2  -5 -11  209.05    6.80
  -2   5 -11  192.90    5.49
   2  -5  11  194.72    5.63
  -2  -5 -12    2.52    1.12
  -2  -5 -12    2.91    1.14
  -2   5 -12    0.87    0.78
   2  -5  12    3.38    0.97
  -2   5 -13 1042.78   19.06
   2  -5  13 1025.45   19.00
  -2  -5 -13 1024.34   20.62
   2  -5  13 1022.13   21.57
   2  -5  14   31.64    3.22
  -2  -5 -14   29.76    2.71
  -2   5 -14   33.73    2.25
   2  -5  15    8.92    2.08
  -2  -5 -15    7.46    1.73
  -2   5 -15    9.85    1.43
  -2  -5 -16   -0.10    1.25
   2  -5  16   -3.18    1.96
  -2   5 -16    0.14    0.90
   2  -5  17   19.39    2.75
  -2  -5 -17   15.22    2.30
  -2   5 -17   18.12    1.80
  -2  -5 -18    6.06    1.89
   2  -5  18    8.90    2.24
  -2  -5 -19    4.43    1.58
   2  -5  19   12.66    2.56
  -2  -5 -20    2.38    1.74
   2  -5  20    3.56    2.18
  -2  -5 -21   99.92    6.16
   2  -5  21  108.33    6.84
  -2  -5 -22    4.71    2.14
   2  -5  22    1.10    2.22
  -2  -5 -23   13.41    3.04
  -2  -6  23   19.35    3.16
   2  -6 -22   15.40    3.13
  -2  -6  22   16.68    3.02
   2  -6 -21    4.10    2.23
  -2  -6  21    5.09    2.27
   2  -6 -20  126.26    6.94
  -2  -6  20  113.76    6.51
   2  -6 -19   10.41    2.35
  -2  -6  19   12.17    2.43
   2  -6 -18  408.22   12.65
  -2  -6  18  407.36   12.45
   2  -6 -17    1.98    1.46
  -2  -6  17    2.89    1.62
   2  -6 -16   44.76    3.71
  -2  -6  16   45.70    3.68
   2  -6 -15    3.12    1.43
  -2  -6  15    3.53    1.62
   2  -6 -14    5.34    1.70
  -2  -6  14    3.96    1.51
   2  -6 -13   60.24    3.82
  -2  -6  13   54.58    3.52
  -2  -6  12    3.58    1.26
  -2  -6  12    2.48    1.39
  -2  -6  11   57.41    3.32
  -2  -6  11   61.02    3.62
   2  -6 -11   59.04    3.56
  -2  -6  10  632.76   13.83
   2  -6 -10  639.66   14.06
  -2  -6  10  611.62   10.21
   2  -6  -9    2.09    1.02
  -2  -6   9    3.28    1.10
   2   6  -9    1.07    0.62
  -2  -6   9    1.79    0.53
  -2  -6   8  179.49    5.70
   2   6  -8  164.40    4.04
   2  -6  -8  182.30    5.59
  -2  -6   8  186.58    3.87
  -2  -6   7    1.57    0.51
   2  -6  -7    1.48    1.16
   2   6  -7    1.49    0.59
  -2  -6   7    2.47    1.00
   2   6  -6 1439.87   23.70
   2  -6  -6 1541.89   25.94
  -2  -6   6 1498.98   25.59
   2  -6  -5   56.11    2.87
   2   6  -5   52.76    1.91
  -2  -6   4 1376.78   22.42
   2   6  -4 1383.92   22.40
   2  -6  -4 1379.69   23.84
  -2  -6   3   31.80    1.63
  -2   6   3   31.70    2.01
   2  -6  -3   34.26    2.24
  -2  -6   2  945.67   16.42
   2  -6  -2  976.22   17.57
  -2   6   2 1019.59   17.76
  -2  -6   1   16.85    1.39
  -2   6   1   16.42    1.44
   2  -6  -1   17.10    1.73
  -2   6   0  391.49    8.35
   2  -6   0  387.43    8.47
  -2   6  -1    7.03    1.18
   2  -6   1    8.15    1.36
   2  -6   2   29.81    1.97
  -2   6  -2   31.14    1.92
   2  -6   3   22.06    1.70
  -2   6  -3   20.76    1.63
   2  -6   4  922.69   16.30
  -2   6  -4  891.07   16.42
   2  -6   5    2.71    1.05
  -2  -6  -5    0.52    0.81
  -2  -6  -6  254.14    6.59
   2  -6   6  255.22    6.33
  -2  -6  -7    1.55    0.94
   2  -6   7    1.44    1.02
  -2  -6  -8   17.54    1.79
  -2   6  -8   14.15    1.39
   2  -6   8   17.16    1.82
  -2  -6  -9    1.80    0.86
  -2  -6  -9    3.51    1.18
  -2   6  -9    2.33    0.79
   2  -6   9    1.08    1.00
   2  -6  10   30.75    2.57
  -2  -6 -10   30.02    2.30
  -2   6 -10   31.86    2.00
  -2  -6 -10   34.05    2.54
   2  -6  10   29.18    2.14
   2  -6  11   30.81    2.74
  -2  -6 -11   25.94    2.21
  -2   6 -11   26.56    1.90
  -2  -6 -11   31.53    2.64
   2  -6  11   25.96    2.00
  -2  -6 -12 1721.85   30.66
  -2   6 -12 1690.41   28.96
  -2  -6 -12 1738.23   31.42
   2  -6  12 1673.68   29.19
  -2  -6 -13    6.83    1.43
  -2   6 -13    6.37    1.11
   2  -6  13   10.41    1.40
  -2   6 -14  224.52    6.25
   2  -6  14  223.39    6.34
  -2  -6 -14  222.84    7.61
   2  -6  14  223.88    8.18
  -2   6 -15    3.47    1.11
  -2  -6 -15    2.29    1.39
   2  -6  15    4.17    1.73
  -2   6 -16    0.93    0.85
   2  -6  16    1.82    1.78
  -2  -6 -16    0.85    1.53
  -2   6 -17    4.65    1.11
  -2  -6 -17    4.92    1.85
   2  -6  17    4.85    2.21
   2  -6  18   36.00    3.84
  -2  -6 -18   30.54    3.16
   2  -6  19    0.38    1.87
  -2  -6 -19    1.31    1.57
   2  -6  20   34.57    4.05
  -2  -6 -20   29.18    3.27
   2  -6  21    5.48    2.22
  -2  -6 -21    2.51    1.70
  -2  -6 -22   45.05    4.46
  -2  -6 -23   56.05    5.04
   2  -7 -24    6.36    2.01
  -2  -7  22    5.77    2.27
   2  -7 -22    6.32    2.53
  -2  -7  21    6.03    2.42
   2  -7 -21    2.80    1.78
  -2  -7  20   -0.87    1.98
   2  -7 -20    1.65    1.81
  -2  -7  19  307.74   10.91
   2  -7 -19  307.86   11.06
  -2  -7  18   53.27    4.26
   2  -7 -18   51.93    4.25
  -2  -7  17  245.98    9.00
   2  -7 -17  240.67    9.12
   2  -7 -16    0.05    1.62
  -2  -7  16    1.06    1.47
   2  -7 -15   34.00    3.30
  -2  -7  15   31.97    3.05
  -2  -7  14    9.79    1.82
   2  -7 -14   10.79    2.07
  -2  -7  13   14.92    2.12
  -2  -7  12    5.46    1.50
   2   7 -12    4.82    0.90
   2  -7 -11   62.75    3.80
  -2  -7  11   66.30    3.79
   2   7 -11   62.03    2.41
  -2  -7  11   62.02    1.86
   2  -7 -10   35.95    2.78
  -2  -7  10   34.67    2.62
   2   7 -10   33.91    1.73
  -2  -7  10   30.59    1.43
  -2  -7   9  553.49   12.33
   2  -7  -9  539.85   12.04
   2   7  -9  503.00    9.81
  -2  -7   9  538.41    9.51
  -2  -7   8  114.81    3.02
   2   7  -8  107.08    3.16
   2  -7  -8  112.81    4.49
  -2  -7   8  118.78    4.63
   2   7  -7  339.59    6.99
   2  -7  -7  353.08    8.82
  -2  -7   7  356.78    8.71
   2   7  -6  274.30    5.83
   2  -7  -6  299.01    7.63
   2  -7  -5 1564.27   27.95
   2   7  -5 1659.38   26.49
   2  -7  -4   39.34    2.51
  -2  -7   4   37.21    1.82
  -2  -7   3    4.63    0.92
   2  -7  -3    3.36    1.35
   2  -7  -2    1.71    1.23
  -2  -7   2    1.05    0.83
  -2   7   2    0.74    0.87
  -2  -7   1  821.52   14.82
  -2   7   1  818.70   15.39
   2  -7  -1  833.97   15.56
  -2  -7   0   48.32    2.33
   2  -7   0   43.75    2.53
  -2   7   0   48.52    2.46
   2  -7   1  489.18   10.17
  -2   7  -1  469.69   10.00
  -2   7  -2   20.00    1.67
   2  -7   3  128.66    4.14
  -2   7  -3  122.67    4.16
   2  -7   4    5.84    1.23
  -2   7  -4    8.71    1.35
   2  -7   5  425.63    9.28
  -2   7  -5  434.09    9.51
  -2  -7  -6   73.29    3.30
   2  -7   6   77.42    3.29
  -2  -7  -7   36.63    2.42
   2  -7   7   36.44    2.22
  -2  -7  -8    3.86    1.01
   2  -7   8    4.24    1.12
  -2  -7  -9   84.95    3.97
   2  -7   9   80.74    3.59
  -2  -7 -10   15.54    1.70
  -2  -7 -10   10.43    1.62
   2  -7  10   11.11    1.42
  -2  -7 -11  334.77    8.87
  -2  -7 -11  341.60    9.44
   2  -7  11  301.78    8.05
  -2  -7 -12   36.32    2.74
   2  -7  12   30.24    2.18
  -2  -7 -13  417.47   10.86
  -2   7 -13  407.56    9.33
   2  -7  13  413.23    9.64
  -2  -7 -14    2.72    1.24
  -2   7 -14    5.11    1.19
   2  -7  14    1.91    0.95
  -2   7 -15   21.44    1.84
   2  -7  15   22.51    1.88
   2  -7  15   21.70    2.88
  -2  -7 -15   21.05    2.51
  -2   7 -16    8.82    1.36
   2  -7  16    7.25    1.89
  -2  -7 -16   13.52    2.29
   2  -7  17    1.31    2.00
  -2  -7 -17    1.11    1.44
   2  -7  18   21.21    3.17
  -2  -7 -18   18.23    2.64
   2  -7  19   24.35    3.49
  -2  -7 -19   20.59    2.82
  -2  -7 -20   26.11    4.07
   2  -7  20   27.28    3.86
  -2  -7 -21   40.97    4.10
   2  -7  21   44.75    4.66
  -2  -7 -22   11.05    2.56
  -2  -7 -23   20.31    3.22
   2  -8 -24   48.78    4.47
   2  -8 -23   -0.97    1.68
  -2  -8  22    2.42    1.95
   2  -8 -22    7.20    2.25
   2  -8 -22    4.07    2.27
  -2  -8  21    7.83    2.29
   2  -8 -21   14.36    3.07
  -2  -8  20    7.58    2.26
   2  -8 -20    6.13    2.03
  -2  -8  19  100.39    6.09
   2  -8 -19  100.87    6.21
  -2  -8  18  100.51    5.89
   2  -8 -18   95.92    5.85
  -2  -8  17  103.40    5.78
   2  -8 -17  105.48    5.91
   2  -8 -16   10.04    2.17
  -2  -8  16    8.41    2.12
   2   8 -16    7.06    1.16
  -2  -8  15   22.22    2.68
   2  -8 -15   23.44    2.91
   2   8 -15   20.17    1.63
  -2  -8  14   24.13    2.70
   2   8 -14   21.04    1.61
  -2  -8  13   13.49    2.13
   2   8 -13    9.74    1.13
   2   8 -12   96.36    3.30
  -2  -8  12  104.02    2.71
  -2  -8  11   -1.11    1.24
   2  -8 -11   -0.69    1.31
   2   8 -11    0.24    0.64
  -2  -8  11    0.81    0.54
   2  -8 -10    6.11    1.43
  -2  -8  10    8.09    1.44
   2  -8 -10    4.41    1.41
   2   8 -10    6.63    0.95
  -2  -8  10    7.38    0.90
  -2  -8   9   60.57    2.22
   2  -8  -9   59.57    3.47
   2   8  -9   55.11    2.27
  -2  -8   9   64.67    3.51
  -2  -8   8   44.96    1.91
   2   8  -8   42.62    2.00
   2  -8  -8   46.07    3.01
  -2  -8   8   44.85    2.87
   2  -8  -7   12.50    1.82
   2   8  -7   12.49    1.14
   2  -8  -6  228.98    6.73
   2   8  -6  211.04    5.19
   2   8  -5 1391.23   23.23
   2  -8  -5 1385.01   24.84
  -2  -8   5 1383.27   23.26
   2  -8  -4    1.22    1.29
  -2  -8   4   -0.14    0.80
   2  -8  -3    0.67    1.16
  -2  -8   3   -0.05    0.85
  -2  -8   2   12.87    1.43
  -2   8   2   13.95    1.57
   2  -8  -2   17.08    1.92
  -2  -8   1    8.77    1.19
  -2   8   1   12.49    1.51
   2  -8  -1   11.11    1.65
  -2   8   0  616.96   12.67
   2  -8   0  649.97   13.04
  -2  -8   0  654.63   12.61
  -2   8  -1   21.63    1.83
   2  -8   1   23.47    2.05
  -2  -8  -1   17.76    1.61
  -2   8  -2  136.88    4.54
   2  -8   3    4.43    1.21
  -2   8  -3    4.27    1.09
   2  -8   4  252.30    6.57
  -2   8  -4  249.24    6.64
   2  -8   5   77.82    3.33
  -2   8  -5   81.20    3.42
   2  -8   6  154.23    4.89
  -2  -8  -6  156.03    5.10
  -2   8  -6  150.33    4.97
  -2  -8  -7  179.79    5.75
  -2   8  -7  171.88    5.48
   2  -8   7  179.43    5.44
  -2  -8  -8    1.87    1.13
   2  -8   8    2.30    1.03
  -2  -8  -9    5.20    1.24
   2  -8   9    5.90    1.20
  -2  -8 -10   56.80    3.52
   2  -8  10   53.18    3.00
  -2  -8 -11   59.13    3.37
  -2  -8 -11   64.29    3.82
   2  -8  11   56.59    3.16
  -2  -8 -12  283.20    8.33
   2  -8  12  266.26    7.53
  -2  -8 -13    6.94    1.64
   2  -8  13    7.41    1.38
  -2  -8 -14   67.94    4.07
   2  -8  14   63.66    3.25
  -2  -8 -15    1.83    1.23
   2  -8  15    2.24    0.96
   2  -8  16    0.43    0.92
   2  -8  16    3.60    1.96
  -2  -8 -16    0.37    1.40
  -2  -8 -17   -1.16    1.56
   2  -8  17    1.81    1.64
  -2  -8 -18   72.29    4.82
   2  -8  18   73.36    5.35
   2  -8  19  222.93    9.62
  -2  -8 -19  194.93    8.37
  -2  -8 -20   -2.88    2.06
   2  -8  20    0.82    1.89
  -2  -8 -21   22.64    3.30
   2  -8  21   21.11    3.31
  -2  -8 -22   28.15    3.47
   2  -9 -23   20.33    3.21
  -2  -9  22    1.21    2.09
   2  -9 -22    0.26    1.84
  -2  -9  21   63.57    5.19
   2  -9 -21   62.01    4.82
   2  -9 -21   66.36    5.33
  -2  -9  20    0.05    1.91
   2  -9 -20    3.16    2.10
   2  -9 -20    0.68    1.64
   2  -9 -19   18.50    3.03
  -2  -9  19   15.87    2.66
   2  -9 -19   13.33    2.44
   2  -9 -18   14.19    2.54
  -2  -9  18   15.04    2.66
   2  -9 -18    9.24    2.16
  -2  -9  17    1.25    1.66
   2  -9 -17    0.94    1.55
   2  -9 -17   -3.37    1.86
   2  -9 -16   25.84    3.07
  -2  -9  16   26.49    2.98
   2  -9 -16   24.16    2.73
  -2  -9  15   18.96    2.60
   2  -9 -15   12.97    2.13
   2   9 -15   18.72    1.60
  -2  -9  14   66.94    4.18
   2   9 -14   66.43    2.87
   2  -9 -14   61.47    4.07
   2   9 -13  209.61    5.59
   2  -9 -13  213.29    7.65
  -2  -9  13  219.30    4.66
   2   9 -12   52.35    2.44
   2  -9 -12   58.37    3.81
  -2  -9  12   53.09    2.15
   2   9 -11  243.57    6.10
   2  -9 -11  255.58    8.19
  -2  -9  11  263.02    5.82
  -2  -9  10   59.89    3.65
   2   9 -10   55.56    2.41
   2  -9 -10   54.43    3.56
  -2  -9  10   56.39    2.32
  -2  -9   9    7.55    0.97
   2   9  -9    7.52    1.03
   2  -9  -9    6.88    1.75
  -2  -9   9    8.46    1.49
  -2  -9   8   40.14    2.01
   2   9  -8   36.71    1.91
   2  -9  -8   38.03    2.88
   2  -9  -7   49.08    3.17
   2   9  -7   47.76    2.26
   2  -9  -6   91.26    4.07
   2   9  -6   96.13    3.33
   2   9  -5  185.82    4.99
  -2  -9   5  183.11    5.06
   2  -9  -5  186.34    6.18
  -2  -9   4   56.58    2.63
   2  -9  -4   57.86    3.23
  -2  -9   3  154.12    4.64
   2  -9  -3  151.89    5.32
   2  -9  -2   22.18    2.14
  -2   9   2   20.72    1.94
  -2  -9   2   19.41    1.75
   2  -9  -1  305.63    7.97
  -2  -9   1  299.66    7.37
  -2   9   1  320.29    8.11
  -2   9   0   17.82    1.71
   2  -9   0   16.28    1.83
  -2  -9   0   14.62    1.62
  -2  -9  -1  395.39    9.23
  -2   9  -1  404.52    9.44
   2  -9   1  403.84    9.47
  -2   9  -2    8.03    1.36
  -2  -9  -2    9.15    1.52
  -2   9  -3   15.13    1.69
   2  -9   4    6.17    1.29
  -2   9  -4    6.43    1.28
   2  -9   5  644.06   13.24
  -2   9  -5  652.18   13.43
   2  -9   6    4.85    1.21
  -2   9  -6    5.40    1.23
  -2  -9  -7  447.42   10.46
  -2   9  -7  427.77   10.11
   2  -9   7  422.69    9.87
  -2  -9  -8    3.95    1.16
   2  -9   8    4.51    1.27
  -2   9  -8    2.65    1.16
  -2  -9  -9   47.41    3.03
  -2   9  -9   42.01    2.72
   2  -9   9   49.07    2.82
  -2  -9 -10   37.58    2.92
   2  -9  10   35.00    2.47
   2  -9  11   42.73    2.89
  -2  -9 -12  147.23    5.76
   2  -9  12  133.76    5.20
  -2  -9 -13  135.90    5.70
   2  -9  13  124.47    4.85
  -2  -9 -14   24.86    2.52
   2  -9  14   29.01    2.34
  -2  -9 -15    3.23    1.48
   2  -9  15    4.13    1.26
  -2  -9 -16    7.64    1.93
   2  -9  16    6.78    1.32
   2  -9  17   60.58    4.78
  -2  -9 -17   55.91    4.21
  -2  -9 -18   14.56    2.52
   2  -9  18   10.60    2.58
   2  -9  19  202.74    9.29
  -2  -9 -19  201.55    8.58
   2  -9  20    4.58    1.98
  -2  -9 -20    8.28    2.35
  -2  -9 -21    6.46    2.27
  -2  -9 -22   13.65    2.61
  -2 -10  22    5.01    2.43
   2 -10 -22    2.09    2.27
  -2 -10  21    0.86    2.07
   2 -10 -21    0.75    1.89
   2 -10 -21    1.41    1.89
  -2 -10  20   16.87    2.94
   2 -10 -20   17.80    3.17
   2 -10 -20   13.23    2.66
   2 -10 -19   22.99    3.41
  -2 -10  19   21.54    3.07
   2 -10 -19   20.64    2.96
  -2 -10  18    2.13    2.04
   2 -10 -18   -0.15    1.64
   2 -10 -18    1.92    1.82
  -2 -10  17   10.10    2.28
   2 -10 -17   11.34    2.52
   2 -10 -17   10.86    2.26
   2 -10 -16  182.17    7.86
  -2 -10  16  179.16    7.54
   2 -10 -16  176.91    7.46
  -2 -10  15   -0.93    1.46
   2  10 -15    1.22    0.81
   2 -10 -15    2.71    1.83
  -2 -10  14   41.20    3.45
  -2 -10  14   41.91    1.68
   2  10 -14   38.93    2.23
   2 -10 -14   41.40    3.50
   2  10 -13   14.81    1.41
   2 -10 -13   18.62    2.62
  -2 -10  13   15.41    1.18
   2  10 -12  798.97   15.17
   2 -10 -12  833.83   18.38
  -2 -10  12  818.33   14.78
   2  10 -11   10.38    1.24
   2 -10 -11   11.90    2.06
  -2 -10  11   14.31    1.26
  -2 -10  10  420.17    8.63
   2  10 -10  382.07    8.71
   2 -10 -10  427.42   11.63
  -2 -10   9    4.89    0.96
   2  10  -9    2.94    0.89
   2 -10  -9    2.77    1.45
  -2 -10   9    4.17    1.35
  -2 -10   8   75.07    2.97
   2  10  -8   74.29    2.99
   2 -10  -8   81.40    4.27
   2  10  -7    6.37    1.05
   2 -10  -7    6.49    1.54
   2 -10  -6   74.53    3.95
   2  10  -6   75.33    3.07
   2 -10  -5  101.14    4.46
  -2 -10   5   95.30    3.59
  -2 -10   4  831.40   15.80
   2 -10  -4  849.76   17.22
  -2 -10   3  154.41    4.85
   2 -10  -3  166.41    5.70
   2 -10  -2  352.88    9.11
  -2 -10   2  348.37    8.29
  -2 -10   1   18.03    1.74
   2 -10  -1   19.96    2.11
  -2  10   1   20.89    2.01
   2 -10   0  567.71   12.48
  -2 -10   0  541.70   11.78
  -2  10   0  590.90   12.61
  -2  10  -1   36.71    2.39
  -2 -10  -1   33.61    2.44
   2 -10   1   34.45    2.51
  -2  10  -2   42.42    2.70
  -2 -10  -2   38.66    2.63
  -2  10  -3   99.66    4.14
  -2 -10  -3   90.59    4.03
   2 -10   4 1109.46   21.02
  -2  10  -4 1140.32   21.12
   2 -10   5    2.33    1.13
  -2  10  -5    2.26    0.93
   2 -10   6 1103.72   20.66
  -2  10  -6 1101.80   20.82
  -2 -10  -7   32.43    2.49
   2 -10   7   32.22    2.40
  -2  10  -7   32.53    2.46
   2 -10   8    1.74    1.10
  -2 -10  -8    2.94    1.16
  -2  10  -8    2.69    1.12
  -2 -10  -9    0.50    1.06
  -2  10  -9    1.61    0.96
   2 -10   9    1.04    1.08
  -2  10 -10  231.09    7.16
   2 -10  10  241.25    7.16
  -2  10 -11   65.54    3.61
   2 -10  11   73.20    3.79
  -2  10 -12    3.47    1.31
   2 -10  12    4.03    1.35
  -2 -10 -13    1.70    1.21
  -2  10 -13    1.18    1.14
   2 -10  13    1.89    1.06
  -2 -10 -14   12.22    2.06
   2 -10  14   10.37    1.47
  -2 -10 -15    4.69    1.65
   2 -10  15    3.57    1.28
  -2 -10 -16   11.38    2.24
   2 -10  16    9.66    1.48
  -2 -10 -17    8.16    1.99
   2 -10  17   12.54    2.48
   2 -10  18  222.63    9.64
  -2 -10 -18  208.83    8.59
   2 -10  19   57.34    4.97
  -2 -10 -19   53.52    4.55
   2 -10  20   65.65    5.48
  -2 -10 -20   58.25    4.89
  -2 -10 -21   11.27    2.32
  -2 -10 -22    1.85    2.33
  -2 -11  21   42.82    4.29
   2 -11 -21   44.65    4.55
   2 -11 -21   42.86    4.24
   2 -11 -20   -2.49    2.12
  -2 -11  20   -0.02    1.78
   2 -11 -20   -3.33    2.11
   2 -11 -19    4.37    2.06
  -2 -11  19    2.61    2.01
   2 -11 -19    4.20    1.85
   2 -11 -18    2.82    2.02
  -2 -11  18    3.32    1.91
   2 -11 -18    0.40    1.75
  -2 -11  17   19.98    2.75
   2 -11 -17   21.06    3.01
   2 -11 -17   17.39    2.73
  -2 -11  16   -0.75    1.61
   2 -11 -16    0.53    1.64
  -2 -11  15   47.58    3.74
   2 -11 -15   51.52    4.10
   2  11 -14   11.12    1.45
   2 -11 -14   14.20    2.57
  -2 -11  14   12.12    1.11
   2  11 -13  636.26   12.81
   2 -11 -13  662.84   16.18
  -2 -11  13  622.49   12.25
   2 -11 -12    0.57    1.73
   2  11 -12    0.53    0.78
  -2 -11  12    0.96    0.75
   2  11 -11  451.82   10.24
   2 -11 -11  510.82   13.27
  -2 -11  11  539.44   10.50
  -2 -11  10   97.90    3.55
   2  11 -10   86.89    3.48
   2 -11 -10   96.34    5.01
  -2 -11   9  114.16    3.92
   2  11  -9  104.59    3.90
   2 -11  -9  111.07    5.24
   2 -11  -8    3.99    1.47
   2  11  -8    5.40    1.12
   2 -11  -7  187.19    6.78
   2  11  -7  184.11    5.41
   2 -11  -6    5.41    1.63
   2 -11  -5    7.96    1.66
  -2 -11   5    6.04    1.18
  -2 -11   4   63.38    3.12
   2 -11  -4   59.24    3.60
  -2 -11   3  927.65   17.75
   2 -11  -3  947.95   19.05
   2 -11  -2   66.38    3.70
  -2 -11   2   60.17    3.13
  -2  11   1   14.44    1.90
  -2 -11   1   15.00    1.76
   2 -11  -1   12.15    1.90
  -2  11   0    8.24    1.52
   2 -11   0    4.98    1.43
  -2 -11   0    3.70    1.10
   2 -11   1  361.69    9.43
  -2  11  -1  376.87    9.47
  -2 -11  -1  358.81    9.16
   2 -11   2  114.71    4.70
  -2  11  -2  105.77    4.32
  -2 -11  -2  115.32    4.79
  -2  11  -3  122.22    4.80
  -2 -11  -3  116.25    4.85
   2 -11   4   18.99    1.97
  -2 -11  -4   16.53    2.02
  -2  11  -4   20.14    2.00
   2 -11   5 1159.17   21.96
  -2  11  -5 1178.25   22.15
   2 -11   6    4.16    1.29
  -2  11  -6    4.81    1.15
   2 -11   7  292.48    8.04
  -2  11  -7  293.85    8.21
  -2 -11  -8   27.83    2.47
   2 -11   8   25.79    2.27
  -2  11  -8   25.44    2.22
  -2 -11  -9  124.30    5.39
  -2  11  -9  110.68    4.76
   2 -11   9  116.90    4.76
  -2  11 -10   -0.62    1.11
   2 -11  10    0.71    1.12
  -2  11 -11   47.99    3.17
   2 -11  11   46.19    3.04
  -2  11 -12   12.30    1.87
   2 -11  12   14.33    1.95
  -2 -11 -13    4.68    1.56
   2 -11  13    3.10    1.47
  -2 -11 -14   10.74    2.00
   2 -11  14    8.15    1.68
  -2 -11 -15   57.94    4.09
   2 -11  15   57.48    3.31
  -2 -11 -16    1.34    1.37
   2 -11  16    2.13    0.92
  -2 -11 -17   64.06    4.66
   2 -11  18    0.07    1.89
  -2 -11 -18    1.19    1.59
  -2 -11 -19  382.17   12.51
   2 -11  19  358.48   13.10
  -2 -11 -20    0.91    1.84
  -2 -11 -21   17.16    2.98
  -2 -12  21   -0.75    1.87
   2 -12 -20   36.75    4.14
  -2 -12  20   36.80    4.10
   2 -12 -20   41.19    4.39
  -2 -12  19   40.53    4.12
   2 -12 -19   52.57    4.74
   2 -12 -19   52.80    4.85
   2 -12 -18    7.10    2.47
  -2 -12  18    2.99    1.93
   2 -12 -18    2.12    1.87
  -2 -12  17   24.81    2.95
   2 -12 -17   24.86    3.30
   2 -12 -17   33.67    3.79
  -2 -12  16  106.32    5.86
   2 -12 -16  111.49    6.48
   2 -12 -15   11.72    2.72
   2 -12 -14   61.45    4.53
  -2 -12  14   58.22    2.56
   2 -12 -13   -0.86    1.60
   2  12 -13    0.82    0.84
  -2 -12  13    2.07    0.98
   2  12 -12  466.88   10.64
   2 -12 -12  500.02   13.70
  -2 -12  12  535.61   10.75
   2  12 -11   24.95    2.01
   2 -12 -11   22.90    2.87
  -2 -12  11   26.79    1.96
  -2 -12  10  442.40    9.74
   2 -12 -10  405.30   11.78
   2  12 -10  445.68   10.21
  -2 -12   9   18.12    1.69
   2 -12  -9   13.72    2.13
   2  12  -9   16.03    1.62
   2 -12  -8  167.16    6.71
   2  12  -8  170.98    5.40
   2 -12  -7   27.04    2.77
   2 -12  -6   59.84    3.89
   2 -12  -5    4.33    1.63
  -2 -12   5    2.23    1.02
   2 -12  -4  334.76    9.51
  -2 -12   4  324.93    8.40
  -2 -12   3   80.45    3.73
   2 -12  -3   79.79    4.28
   2 -12  -2  558.92   13.15
  -2 -12   2  548.95   12.28
   2 -12  -1   40.38    2.97
  -2 -12   1   38.46    2.64
  -2  12   0  285.24    8.20
  -2 -12   0  267.81    7.72
   2 -12   0  257.19    7.98
  -2 -12  -1   21.31    2.07
   2 -12   1   23.70    2.31
  -2  12  -1   24.79    2.29
   2 -12   2  144.54    5.65
  -2  12  -2  161.40    5.74
  -2 -12  -2  146.98    5.60
  -2  12  -3   16.63    1.75
  -2 -12  -3   18.82    2.27
   2 -12   4  268.79    7.93
  -2 -12  -4  269.94    8.28
  -2  12  -4  276.91    8.03
   2 -12   5   44.92    3.01
  -2  12  -5   49.91    3.15
  -2 -12  -5   48.45    3.35
   2 -12   6  730.58   15.54
  -2 -12  -6  721.60   16.21
  -2  12  -6  734.87   15.67
   2 -12   7   -0.81    1.23
  -2  12  -7    0.85    0.99
  -2 -12  -8   37.97    2.96
   2 -12   8   38.47    2.81
  -2  12  -8   39.27    2.90
   2 -12   9    9.91    1.64
  -2  12  -9    7.66    1.51
  -2  12 -10  128.83    5.34
   2 -12  10  135.43    5.36
   2 -12  11   10.52    1.73
   2 -12  12    6.24    1.59
   2 -12  13    8.13    1.79
  -2 -12 -14    4.33    1.55
   2 -12  14    5.21    1.32
  -2 -12 -15   18.41    2.55
   2 -12  15   15.63    1.93
  -2 -12 -16    0.77    1.45
  -2 -12 -17   33.24    3.41
   2 -12  18  269.35   10.87
  -2 -12 -18  256.16    9.86
   2 -12  19    6.88    2.58
  -2 -12 -19    4.34    1.94
  -2 -12 -20   50.25    4.48
  -2 -12 -21   10.72    2.96
  -2 -13  20   30.17    3.59
  -2 -13  19    2.03    1.88
   2 -13 -19    5.32    2.23
   2 -13 -19    7.40    2.35
   2 -13 -18   24.36    3.55
  -2 -13  18   16.17    3.03
   2 -13 -18   17.92    2.94
  -2 -13  17   -1.19    1.82
   2 -13 -17   -0.55    1.88
  -2 -13  16    5.38    1.91
   2 -13 -16    6.45    2.17
   2 -13 -15    6.17    2.13
   2 -13 -14    1.68    1.59
   2 -13 -13  278.47    9.94
  -2 -13  13  292.50    7.37
  -2 -13  12   14.54    1.63
   2  13 -12   15.74    1.89
   2 -13 -12   18.42    2.74
  -2 -13  11  252.63    6.82
   2  13 -11  243.27    6.93
   2 -13 -11  224.64    8.45
  -2 -13  10   36.78    2.42
   2 -13 -10   34.50    3.29
   2  13 -10   31.29    2.32
  -2 -13   9   71.97    3.40
   2 -13  -9   66.67    4.43
   2  13  -9   62.98    3.24
   2 -13  -8   14.54    2.29
   2 -13  -7  136.80    6.12
   2 -13  -6   41.15    3.42
  -2 -13   5   62.87    3.38
   2 -13  -5   58.63    3.86
   2 -13  -4   27.51    2.79
  -2 -13   4   27.57    2.34
  -2 -13   3  211.53    6.73
   2 -13  -3  214.00    7.47
  -2 -13   2    0.50    1.27
   2 -13  -2    0.00    1.30
   2 -13  -1   16.25    2.23
  -2 -13   1   17.09    2.12
  -2 -13   0   13.16    2.08
   2 -13   0    8.42    1.66
   2 -13   1  155.72    6.09
  -2 -13  -1  162.00    6.00
  -2 -13  -2   76.44    3.94
  -2  13  -2   93.89    4.68
   2 -13   2   83.62    4.31
  -2 -13  -3    0.50    1.33
  -2  13  -3    3.78    1.37
   2 -13   4    5.97    1.54
  -2 -13  -4    4.62    1.61
  -2  13  -4    6.13    1.33
   2 -13   5  197.27    6.79
  -2  13  -5  199.77    6.84
  -2 -13  -5  200.09    7.30
   2 -13   6   23.58    2.35
  -2  13  -6   24.95    2.41
  -2 -13  -6   22.84    2.65
   2 -13   7  118.19    5.04
  -2 -13  -7  106.35    5.32
   2 -13   8    6.28    1.58
  -2 -13  -8    5.07    1.74
   2 -13   9  116.30    5.08
   2 -13  10   17.41    2.18
   2 -13  11   11.09    1.82
   2 -13  12   17.80    2.21
   2 -13  13    2.28    1.36
  -2 -13 -14   14.26    2.27
   2 -13  14   17.64    2.24
  -2 -13 -15   23.56    2.85
  -2 -13 -16    3.37    1.69
  -2 -13 -17   22.45    3.08
  -2 -13 -18   14.57    2.67
  -2 -13 -19   57.35    4.75
  -2 -13 -20    6.08    2.18
  -2 -14  20    5.02    1.91
   2 -14 -19   43.98    4.64
  -2 -14  19   46.83    4.47
  -2 -14  18   57.21    4.79
   2 -14 -18   60.95    5.17
   2 -14 -18   60.83    4.95
  -2 -14  17   -2.13    1.80
   2 -14 -17    4.36    2.39
   2 -14 -16    4.65    1.89
   2 -14 -15    1.34    1.90
   2 -14 -14    8.46    2.37
   2 -14 -13    0.83    1.55
   2 -14 -12  207.20    8.44
  -2 -14  12  234.10    6.76
  -2 -14  11   61.42    3.23
   2  14 -11   56.72    3.15
   2 -14 -11   59.89    4.51
  -2 -14  10    9.06    1.49
   2 -14 -10    6.84    1.98
  -2 -14   9    9.22    1.47
   2 -14  -9   11.16    2.37
   2 -14  -8   10.30    2.27
   2 -14  -7   15.06    2.37
   2 -14  -6  154.72    6.69
   2 -14  -5    5.87    1.80
  -2 -14   5    5.40    1.38
   2 -14  -4   74.28    4.51
  -2 -14   4   69.93    3.78
  -2 -14   3   29.44    2.55
   2 -14  -3   30.07    2.90
  -2 -14   2    3.53    1.43
   2 -14  -2    1.94    1.52
  -2 -14   1    2.12    1.35
   2 -14  -1    0.89    1.44
  -2 -14   0  272.95    8.38
   2 -14   0  276.02    8.76
  -2 -14  -1   65.50    3.91
   2 -14   1   64.88    4.01
  -2 -14  -2    7.75    1.72
  -2 -14  -3    2.98    1.57
   2 -14   4    9.46    1.81
  -2 -14  -4    8.33    1.91
   2 -14   5    7.09    1.65
  -2 -14  -5    6.75    1.79
   2 -14   6   49.28    3.40
  -2 -14  -6   55.28    4.02
   2 -14   7   27.91    2.63
  -2 -14  -7   23.63    2.77
   2 -14   8    5.35    1.56
  -2 -14  -8    5.08    1.68
   2 -14   9   10.96    1.86
  -2 -14  -9    8.87    2.17
   2 -14  10    0.67    1.29
  -2 -14 -10   -2.49    1.90
  -2 -14 -11   -0.82    1.82
   2 -14  11    2.53    1.52
   2 -14  12  108.15    5.20
   2 -14  13   63.77    4.05
   2 -14  14   22.41    2.63
  -2 -14 -15   19.57    2.76
  -2 -14 -16    1.32    1.61
  -2 -14 -17    9.33    2.28
  -2 -14 -18   34.48    3.72
  -2 -14 -19    2.23    1.86
  -2 -14 -20    4.89    2.35
  -2 -15  19  111.39    6.88
   2 -15 -18    9.14    2.48
  -2 -15  18    7.04    2.27
   2 -15 -17   16.23    2.85
  -2 -15  17    8.84    2.18
   2 -15 -16    0.73    1.96
   2 -15 -15    2.40    2.04
   2 -15 -14   42.87    4.00
   2 -15 -13   49.04    4.34
  -2 -15  12    5.19    1.41
   2 -15 -12    2.85    1.93
  -2 -15  11    6.75    1.36
   2 -15 -11    8.86    2.28
  -2 -15  10    4.75    1.21
   2 -15 -10    4.13    1.82
  -2 -15   9   50.85    3.21
   2 -15  -9   56.69    4.30
   2 -15  -8   24.38    3.22
   2 -15  -7   58.52    4.36
   2 -15  -6   52.39    4.06
  -2 -15   5   71.50    3.96
   2 -15  -5   69.40    4.57
  -2 -15   4    9.08    1.68
   2 -15  -4    9.47    2.07
  -2 -15   3   68.70    3.93
   2 -15  -3   68.31    4.43
   2 -15  -2   10.96    2.08
  -2 -15   2   12.14    2.02
   2 -15  -1   92.36    4.98
  -2 -15   1  101.68    4.91
  -2 -15   0   17.46    2.30
   2 -15   0   18.21    2.41
  -2 -15  -1   58.83    3.89
   2 -15   1   59.96    4.07
  -2 -15  -2    4.72    1.72
  -2 -15  -3  127.35    5.84
   2 -15   4   44.19    3.35
  -2 -15  -4   43.99    3.38
   2 -15   5    5.04    1.57
  -2 -15  -5    3.98    1.58
   2 -15   6   86.28    4.68
  -2 -15  -6   87.23    5.02
   2 -15   7   24.30    2.60
  -2 -15  -7   22.98    2.88
   2 -15   8    9.95    1.84
  -2 -15  -8    9.68    2.39
   2 -15   9    6.45    1.64
  -2 -15  -9    8.87    2.16
   2 -15  10    1.52    1.33
  -2 -15 -10    4.11    2.15
  -2 -15 -11   77.63    5.33
   2 -15  11   88.62    4.74
  -2 -15 -12    0.93    1.90
   2 -15  12    3.10    1.33
  -2 -15 -13  256.64   10.11
   2 -15  13  256.50    8.66
  -2 -15 -14    5.05    2.11
  -2 -15 -15    2.46    2.03
  -2 -15 -15    3.13    1.68
  -2 -15 -16    0.59    1.74
  -2 -15 -17    2.23    1.89
  -2 -15 -18   18.50    3.16
  -2 -15 -19   13.37    2.73
  -2 -16  18  179.55    8.62
  -2 -16  17    5.58    2.04
   2 -16 -15    9.88    2.49
   2 -16 -14    2.58    1.99
   2 -16 -13    2.99    1.95
   2 -16 -12    1.72    1.86
  -2 -16  11    2.01    1.09
   2 -16 -11    4.78    2.18
  -2 -16  10   59.93    3.51
   2 -16 -10   62.27    4.78
  -2 -16   9    0.98    1.11
   2 -16  -9    1.59    1.60
   2 -16  -8   54.44    4.36
   2 -16  -7    6.77    2.17
   2 -16  -6  210.16    8.46
   2 -16  -5   24.69    3.03
  -2 -16   4   24.00    2.50
   2 -16  -4   29.77    3.16
   2 -16  -3    0.78    1.69
  -2 -16   3    2.31    1.34
   2 -16  -2  195.63    7.75
  -2 -16   2  200.24    7.33
   2 -16  -1   35.70    3.31
  -2 -16   1   31.63    3.01
   2 -16   0  234.26    8.50
  -2 -16   0  236.82    8.25
   2 -16   1   32.85    3.22
  -2 -16  -1   28.45    2.90
  -2 -16  -2   56.75    4.00
  -2 -16  -3    3.51    1.74
   2 -16   4  208.53    7.84
  -2 -16  -4  212.31    8.13
   2 -16   5    7.91    2.06
  -2 -16  -5    9.01    2.04
   2 -16   6    3.53    1.46
  -2 -16  -6    2.26    1.63
   2 -16   7   23.74    2.77
  -2 -16  -7   26.66    3.04
   2 -16   8    3.40    1.72
  -2 -16  -8    1.25    1.71
   2 -16   9    3.71    1.62
  -2 -16  -9    3.21    2.05
   2 -16  10    7.94    1.90
  -2 -16 -10    7.30    2.32
   2 -16  11   24.27    2.75
  -2 -16 -11   18.90    2.94
  -2 -16 -12  349.16   12.21
   2 -16  12  356.16   10.68
  -2 -16 -13   49.74    4.61
   2 -16  13   49.99    3.68
  -2 -16 -14   83.50    5.91
  -2 -16 -15    1.59    1.78
  -2 -16 -16    4.25    1.97
  -2 -16 -17    6.73    3.14
  -2 -16 -18    5.72    2.49
  -2 -17  17  102.01    6.37
   2 -17 -14    4.25    2.32
   2 -17 -13    6.21    2.41
   2 -17 -12    8.92    2.52
   2 -17 -11   38.55    4.08
  -2 -17  10   23.89    2.36
   2 -17 -10   26.87    3.48
  -2 -17   9  172.23    6.52
   2 -17  -9  173.58    8.09
   2 -17  -8    3.45    2.04
   2 -17  -7   77.39    5.22
   2 -17  -6    6.34    2.11
   2 -17  -5  136.35    6.77
  -2 -17   4   34.49    3.09
   2 -17  -4   35.63    3.49
   2 -17  -3   35.00    3.55
  -2 -17   3   32.07    2.97
   2 -17  -2    8.33    2.04
  -2 -17   2   10.42    1.98
   2 -17  -1  371.70   11.48
  -2 -17   1  348.13   10.65
  -2 -17   0    7.79    1.90
   2 -17   0    7.83    2.10
  -2 -17  -1   11.46    2.22
   2 -17   1   13.26    2.45
  -2 -17  -2    7.10    1.93
  -2 -17  -3  162.99    7.15
   2 -17   4    0.93    1.54
  -2 -17  -4    6.88    2.25
   2 -17   5   50.01    4.19
  -2 -17  -5   46.42    4.07
   2 -17   6    2.32    1.58
  -2 -17  -6    1.50    1.58
   2 -17   7    7.15    1.91
  -2 -17  -7    4.49    1.93
   2 -17   8   22.45    2.63
  -2 -17  -8   21.92    3.09
   2 -17   9    6.30    1.84
  -2 -17  -9    0.70    2.03
   2 -17  10    0.42    1.46
  -2 -17 -10    2.73    2.01
  -2 -17 -11  245.61   10.06
   2 -17  11  248.95    8.88
  -2 -17 -12    1.17    1.80
   2 -17  12    4.44    1.73
  -2 -17 -13  215.40   10.06
  -2 -17 -16   12.47    2.59
   2 -18 -12   10.34    2.97
   2 -18 -11    7.65    2.79
  -2 -18  10   37.92    3.10
   2 -18 -10   37.76    4.03
  -2 -18   9   31.99    2.89
   2 -18  -9   30.08    3.71
  -2 -18   8   50.14    3.70
   2 -18  -8   46.31    4.25
   2 -18  -7   17.66    3.00
   2 -18  -6  179.13    8.10
   2 -18  -5   30.73    3.49
  -2 -18   4   42.88    3.58
   2 -18  -4   47.57    4.35
   2 -18  -3    8.32    2.19
  -2 -18   3    9.72    1.99
   2 -18  -2   48.17    4.11
  -2 -18   2   45.64    3.69
   2 -18  -1   10.87    2.38
  -2 -18   1    7.51    1.96
   2 -18   0  120.45    6.33
  -2 -18   0  115.07    5.94
   2 -18   1   -0.60    1.72
  -2 -18  -1    3.61    1.77
  -2 -18  -2   10.83    2.38
  -2 -18  -3    6.99    2.09
   2 -18   4   62.26    4.45
  -2 -18  -4   66.35    4.79
   2 -18   5    4.24    1.83
  -2 -18  -5    3.01    1.97
   2 -18   6    3.32    1.62
  -2 -18  -6    6.02    2.11
   2 -18   7    7.02    1.94
  -2 -18  -7    6.31    2.03
   2 -18   8   -3.91    1.74
  -2 -18  -8   -2.12    2.01
   2 -18   9    1.10    1.51
  -2 -18  -9   -0.12    1.62
   2 -18  10    3.05    1.62
  -2 -18 -10    0.36    1.70
   2 -18  11   24.51    2.94
  -2 -18 -11   22.79    3.41
   2 -19 -10   10.16    2.82
  -2 -19   9   29.49    2.92
   2 -19  -9   28.43    3.72
  -2 -19   8    3.65    1.60
   2 -19  -8    2.44    2.10
   2 -19  -7   49.23    4.56
   2 -19  -6   -0.24    1.81
   2 -19  -5   73.91    5.39
  -2 -19   4   35.49    3.42
   2 -19  -4   41.82    4.01
   2 -19  -3    9.00    2.33
  -2 -19   3    8.28    2.13
   2 -19  -2    3.84    1.86
  -2 -19   2    1.53    1.57
  -2 -19   1   74.76    4.94
   2 -19  -1   82.33    5.45
  -2 -19   0    9.01    2.28
   2 -19   0    9.35    2.34
  -2 -19  -1   16.02    2.76
  -2 -19  -2   -0.83    1.65
  -2 -19  -3   26.67    3.38
   2 -19   4   13.32    2.50
  -2 -19  -4    8.60    2.21
   2 -19   5   10.19    2.31
  -2 -19  -5    7.71    2.17
   2 -19   6    2.26    1.71
  -2 -19  -6    3.56    2.22
   2 -19   7   -0.47    1.67
  -2 -19  -7    4.13    1.71
   2 -19   8   21.61    2.95
  -2 -19  -8   30.76    3.81
   2 -19   9   23.60    3.06
  -2 -19  -9   20.33    3.14
   2 -19  10    1.79    1.69
  -2 -20   8    1.20    1.48
   2 -20  -7   12.47    2.70
   2 -20  -6   72.43    5.59
   2 -20  -5   14.18    2.76
   2 -20  -4   16.59    2.90
   2 -20  -3    0.58    1.99
  -2 -20   3    0.98    1.58
  -2 -20   2   -0.05    1.63
   2 -20  -2   11.15    2.53
   2 -20  -1    9.53    2.44
  -2 -20   1    5.89    2.13
  -2 -20   0   42.36    3.95
   2 -20   0   41.51    4.12
  -2 -20  -1   26.14    3.12
  -2 -20  -2    3.92    2.12
   2 -20   3    1.25    1.60
  -2 -20  -3    1.75    1.81
   2 -20   4    2.27    1.97
  -2 -20  -4    0.20    1.81
   2 -20   5    8.00    2.25
  -2 -20  -5   15.50    2.75
   2 -20   6   56.97    4.53
  -2 -20  -6   55.04    5.39
   2 -20   7    5.98    2.04
  -2 -20  -7    8.65    2.58
   2 -20   8   -2.92    1.83
   2 -20   9   -4.68    2.03
  -2 -21   7   19.88    2.90
   2 -21  -4    4.32    1.90
   2 -21  -3   63.53    5.20
  -2 -21   3   65.07    4.89
   2 -21  -2    2.36    2.12
  -2 -21   2    1.76    1.74
   2 -21  -1    1.13    1.85
  -2 -21   1    2.31    1.87
  -2 -21   0   21.10    3.17
  -2 -21  -1   12.48    2.79
  -2 -21  -2   22.37    3.27
   2 -21   3    8.48    2.44
  -2 -21  -3    7.17    2.45
   2 -21   4   21.97    3.22
  -2 -21  -4   21.87    3.33
   2 -21   5  106.65    6.38
  -2 -21  -5  119.40    7.06
   2 -21   6    0.55    1.78
   2 -21   7   51.94    4.50
   2 -21   8   -1.13    1.58
   2 -21   9   16.79    2.87
  -2 -22   2  100.94    6.17
  -2 -22   1   10.28    2.57
  -2 -22   0   10.49    2.71
  -2 -22  -1    0.86    1.84
   2 -22   2   44.42    4.54
  -2 -22  -2   40.31    4.28
   2 -22   3    2.95    1.90
   2 -22   4   62.52    5.23
   2 -22   5    2.30    1.91
   2 -22   6  134.42    7.39
   2 -22   7   12.25    2.57
   2 -22   8    9.10    2.56
  -2 -23   2   19.54    3.10
  -2 -23   1    2.81    2.10
   3   0 -23    1.29    1.94
   3   0 -22  116.95    7.06
   3   0 -21    2.02    1.80
   3   0 -20    1.47    1.84
   3   0 -19   27.43    3.21
   3   0 -18  200.35    8.22
  -3   0  18  189.87    7.81
   3   0 -18  197.39    5.36
   3   0 -17   33.85    3.48
  -3   0  17   29.48    3.23
   3   0 -17   34.71    2.07
  -3   0  16  329.72   10.16
   3   0 -16  333.04   10.48
   3   0 -16  341.62    7.44
   3   0 -15   -1.07    1.40
  -3   0  15   -1.12    1.51
   3   0 -15    0.53    0.71
  -3   0  14  519.10   12.99
   3   0 -14  544.14   10.28
   3   0 -14  550.34   13.59
   3   0 -14  564.30   13.42
  -3   0  13   17.99    2.20
   3   0 -13   19.94    2.26
   3   0 -13   21.46    2.27
  -3   0  12   -0.25    1.23
   3   0 -12    2.58    1.29
   3   0 -12    2.20    1.22
  -3   0  11    1.31    1.18
   3   0 -11    0.63    0.88
   3   0 -11   -0.44    1.13
  -3   0  10  143.60    4.95
   3   0 -10  146.75    5.07
   3   0 -10  142.80    5.19
  -3   0   9    5.40    1.32
   3   0  -9    4.14    1.17
   3   0  -9    2.47    0.94
  -3   0   8  845.24   16.05
   3   0  -8  892.28   16.27
   3   0  -8  881.58   16.55
   3   0  -7    5.21    1.04
  -3   0   7    4.42    1.15
   3   0  -7    4.61    1.18
   3   0  -6  592.96   11.33
   3   0  -6  607.55   10.23
   3   0  -6  605.06   11.78
   3   0  -5    0.05    0.53
   3   0  -5   -0.21    0.48
   3   0  -5    0.11    0.50
   3   0  -5    0.57    0.69
   3   0  -4  176.01    3.57
   3   0  -4  173.81    4.05
   3   0  -4  176.46    3.42
  -3   0   4  171.36    3.42
  -3   0   3    4.15    0.62
   3   0  -3    3.85    0.61
  -3   0   3    4.44    0.56
  -3   0   2  369.86    6.78
   3   0  -2  364.80    6.81
   3   0  -1   24.03    1.47
  -3   0   1   22.48    1.29
  -3   0   0 2948.40   45.72
   3   0   0 2911.29   45.64
  -3   0  -1    2.51    0.86
   3   0   1    2.54    0.96
   3   0   2 2400.32   38.56
  -3   0  -2 2472.03   38.66
  -3   0  -3    5.95    1.02
   3   0   3    3.16    1.02
   3   0   4   43.35    1.83
   3   0   4   38.97    2.12
  -3   0  -4   38.22    2.01
   3   0   5    2.30    0.86
  -3   0  -5    2.50    0.99
   3   0   5    1.98    1.08
   3   0   6 2810.42   45.35
   3   0   6 2852.29   45.78
   3   0   6 2849.19   45.55
  -3   0  -6 2898.63   45.75
   3   0   7    5.71    1.05
   3   0   7    5.69    1.30
  -3   0  -7    6.42    1.25
   3   0   8  783.61   14.86
   3   0   8  764.02   15.17
  -3   0  -8  761.92   14.78
   3   0   9    0.90    0.88
   3   0   9   -0.04    1.09
  -3   0  -9    0.63    0.93
   3   0  10   54.26    3.01
   3   0  10   49.63    3.07
  -3   0 -10   53.36    2.91
   3   0  11    1.82    1.32
   3   0  11    1.51    1.05
  -3   0 -11    3.25    1.06
   3   0  12   33.40    2.66
   3   0  12   35.15    2.91
  -3   0 -12   33.53    2.50
   3   0  13    0.51    1.11
   3   0  13    2.56    1.55
  -3   0 -13    1.00    0.93
   3   0  14  383.20   11.06
  -3   0 -14  389.75   10.15
   3   0  15    0.76    1.44
  -3   0 -15   -0.78    1.25
   3   0  16  230.64    8.76
  -3   0 -16  226.14    7.64
   3   0  17    5.03    1.95
  -3   0 -17    6.35    1.71
   3   0  18    3.66    2.09
  -3   0 -18    4.54    1.66
   3   0  19    1.71    1.78
   3   0  20   70.53    5.47
   3   0  21   -0.13    1.82
   3   0  22   44.93    4.87
   3  -1 -23  153.83    8.42
   3  -1 -22   34.73    4.08
   3   1 -22   28.22    3.65
   3   1 -21   11.71    2.71
   3  -1 -21   10.60    2.45
  -3  -1  21   15.73    2.83
   3   1 -20    8.33    2.36
   3  -1 -20    6.40    2.11
  -3  -1  20    5.08    1.97
   3   1 -19   41.36    3.88
   3  -1 -19   32.95    3.57
  -3  -1  19   33.99    3.46
   3   1 -18    5.44    1.85
   3  -1 -18    4.15    1.75
  -3  -1  18    1.68    1.51
   3   1 -18    4.64    0.93
   3  -1 -18    5.51    1.14
  -3  -1  17   92.38    5.17
   3   1 -17   98.44    5.48
   3  -1 -17  101.64    5.52
   3  -1 -17   99.57    3.61
   3   1 -17   79.55    2.93
  -3  -1  16    6.44    1.73
   3   1 -16    5.73    1.56
   3  -1 -16    9.33    2.01
   3  -1 -16    7.13    1.06
   3   1 -16    5.49    0.75
   3   1 -15  587.61   14.53
   3  -1 -15  601.75   14.70
  -3  -1  15  592.67   14.19
   3   1 -15  566.87   10.56
   3   1 -14  181.84    6.91
   3  -1 -14  194.13    7.08
  -3  -1  14  184.05    6.73
   3   1 -14  182.46    4.30
  -3  -1  13   94.10    4.54
   3   1 -13  101.74    2.80
   3  -1 -13  102.95    4.90
   3  -1 -13  104.38    4.80
   3   1 -13  103.02    4.89
  -3  -1  12   20.63    2.13
   3   1 -12   18.41    1.05
   3  -1 -12   15.85    2.02
   3  -1 -12   20.87    2.21
   3   1 -12   17.23    2.10
   3  -1 -11  528.40   11.84
  -3  -1  11  496.50   11.40
   3   1 -11  490.28    8.66
   3  -1 -11  517.48   11.93
   3   1 -11  509.74   11.48
   3   1 -11  503.51   11.80
  -3  -1  10    8.95    1.55
   3   1 -10   10.40    1.74
   3  -1 -10   10.58    1.60
   3  -1 -10   12.08    1.68
   3   1 -10   12.08    1.51
  -3  -1   9  210.98    5.91
   3  -1  -9  219.45    6.17
   3   1  -9  206.96    6.18
   3  -1  -9  210.39    6.27
   3   1  -9  204.92    5.89
   3  -1  -8   91.27    3.54
  -3  -1   8   91.45    3.48
   3  -1  -8   93.11    3.79
   3   1  -8   95.61    3.72
   3   1  -8   94.29    3.45
   3   1  -7 1178.18   20.24
  -3  -1   7 1152.14   20.17
   3   1  -7 1158.77   18.14
   3  -1  -7 1208.17   20.59
   3  -1  -7 1173.12   19.30
   3  -1  -7 1185.46   20.80
   3   1  -7 1186.66   20.69
   3  -1  -6    5.28    1.00
   3   1  -6    4.23    0.47
  -3  -1   6    3.51    0.96
   3   1  -6    3.67    0.81
   3   1  -6    2.85    0.60
   3   1  -6    4.32    0.55
   3  -1  -6    5.08    0.86
  -3  -1   5 1117.68   18.69
   3   1  -5 1120.74   18.76
   3  -1  -5 1116.38   19.08
   3   1  -5 1132.75   19.19
   3  -1  -5 1130.33   18.30
   3   1  -5 1132.10   17.60
   3  -1  -4   10.62    0.91
  -3  -1   4   10.64    0.96
   3   1  -4   11.38    0.98
  -3  -1   4   10.50    0.67
   3   1  -4   11.16    1.07
  -3   1   4   11.29    0.93
   3  -1  -4   10.47    0.93
   3   1  -4   10.02    0.72
   3  -1  -3   23.83    1.25
   3   1  -3   24.09    1.13
   3   1  -3   26.51    1.40
   3  -1  -3   22.03    1.18
  -3   1   3   24.18    1.18
  -3  -1   3   23.81    1.06
   3   1  -3   29.93    1.16
   3  -1  -2  533.88    9.22
  -3   1   2  530.66    9.20
  -3   1   2  529.62    9.04
   3   1  -2  497.07    8.94
  -3  -1   2  510.43    9.12
  -3   1   1 1306.35   21.01
  -3  -1   1 1279.20   20.90
   3   1  -1 1285.40   20.83
   3  -1  -1 1315.25   21.02
   3   1   0  339.04    6.59
  -3  -1   0  335.10    6.59
   3  -1   0  341.02    6.76
  -3   1   0  330.41    6.67
   3   1   1  954.45   15.74
   3  -1   1  941.99   15.95
  -3  -1  -1  934.32   15.70
  -3   1  -1  873.53   15.73
   3   1   2   72.26    1.80
   3   1   2   73.29    2.56
   3  -1   2   67.86    2.70
  -3  -1  -2   72.42    2.55
  -3   1  -2   68.84    2.53
   3   1   3  848.10   13.69
   3   1   3  853.97   14.73
  -3   1  -3  790.63   14.80
   3  -1   3  796.19   14.71
  -3  -1  -3  853.37   14.79
   3   1   4    3.62    0.75
   3   1   4    4.56    0.99
  -3  -1  -4    3.12    0.93
   3  -1   4    1.92    1.05
  -3   1  -4    3.98    1.09
   3   1   5  254.51    5.71
   3   1   5  262.72    6.11
  -3  -1  -5  274.33    6.31
   3  -1   5  255.22    6.18
  -3   1  -5  250.25    6.33
   3   1   6    8.30    1.04
   3   1   6    9.23    1.35
   3  -1   6    9.62    1.22
  -3  -1  -6    8.25    1.12
  -3   1  -6    8.73    1.24
   3  -1   6    9.52    1.32
  -3  -1  -6    9.50    1.27
   3   1   7  890.19   16.57
   3  -1   7  896.08   16.48
  -3  -1  -7  882.87   16.04
   3   1   7  881.43   16.09
   3  -1   7  888.44   16.26
  -3   1  -7  874.19   16.51
  -3  -1  -7  900.11   16.47
  -3  -1  -8    6.34    1.22
   3  -1   8    6.35    1.20
   3   1   8    5.34    1.05
   3   1   8    4.63    1.29
   3  -1   8    5.12    1.30
   3  -1   8    3.57    1.14
  -3   1  -8    6.01    1.19
  -3  -1  -8    4.60    1.06
   3  -1   9  177.72    5.63
  -3  -1  -9  175.53    5.36
   3  -1   9  179.26    5.81
   3   1   9  185.19    5.50
   3   1   9  173.56    5.68
  -3   1  -9  170.83    5.40
  -3  -1  -9  178.28    5.43
   3   1  10    1.30    1.30
  -3  -1 -10    2.05    1.12
   3  -1  10    0.98    0.89
   3   1  10    0.41    0.84
   3  -1  10    0.85    1.12
  -3  -1 -10    0.11    0.92
  -3   1 -10    0.77    0.86
   3  -1  11   38.89    2.71
  -3  -1 -11   35.27    2.57
   3   1  11   40.54    2.74
   3   1  11   34.80    2.76
   3  -1  11   36.49    2.84
  -3   1 -11   34.81    2.49
  -3  -1 -11   38.26    2.55
   3   1  12    3.79    1.29
   3  -1  12    3.48    1.27
   3  -1  12    3.74    1.55
  -3  -1 -12    3.66    1.25
   3   1  12    2.37    1.40
  -3   1 -12    4.12    1.27
  -3  -1 -12    3.81    1.22
   3  -1  13    8.78    1.83
   3   1  13   16.37    2.02
   3  -1  13   13.89    1.96
   3   1  13    8.92    1.91
  -3   1 -13   11.48    1.62
  -3  -1 -13   13.88    1.78
   3   1  14    2.43    1.22
   3  -1  14    1.28    1.66
   3   1  14    2.39    1.48
  -3   1 -14    0.90    1.13
  -3  -1 -14    1.01    1.05
   3  -1  15  306.57    9.94
   3   1  15  313.26    9.95
  -3  -1 -15  298.56    8.78
  -3   1 -15  297.26    8.91
   3  -1  16   48.03    3.88
   3   1  16   51.48    4.05
  -3  -1 -16   43.06    3.17
  -3   1 -16   41.98    3.27
   3  -1  17   38.53    3.68
   3   1  17   38.26    3.69
  -3   1 -17   42.05    3.37
  -3  -1 -17   37.32    3.02
   3  -1  18   82.01    5.43
   3   1  18   72.65    5.06
  -3   1 -18   70.85    4.41
   3  -1  19  163.32    7.93
   3   1  19  164.73    7.95
   3   1  20   31.99    3.81
   3  -1  20   27.90    3.72
   3   1  21   22.48    3.32
   3  -1  21   22.00    3.40
   3  -1  22   19.88    3.58
   3   1  22   16.73    3.35
   3  -2 -23   59.68    5.20
  -3  -2  23   70.73    5.45
   3  -2 -22   10.61    2.55
  -3  -2  22    9.41    2.53
   3  -2 -21   32.29    3.75
  -3  -2  21   34.42    3.91
   3  -2 -20   18.23    2.86
  -3  -2  20   19.44    2.83
   3   2 -19    2.25    1.68
   3  -2 -19    3.40    1.80
  -3  -2  19   -0.81    1.88
  -3  -2  18  185.96    7.72
   3   2 -18  189.94    8.07
   3  -2 -18  192.53    8.04
   3  -2 -18  177.32    5.57
   3   2 -18  179.08    3.75
   3  -2 -17    5.61    1.89
   3   2 -17    9.69    2.10
  -3  -2  17    6.45    1.96
   3   2 -17    8.47    0.75
   3  -2 -16   22.24    2.73
   3   2 -16   22.18    2.69
  -3  -2  16   22.92    2.65
   3   2 -16   23.92    1.07
   3  -2 -15  195.88    7.53
   3   2 -15  201.80    7.55
  -3  -2  15  193.23    7.18
   3   2 -15  210.19    4.14
   3   2 -14    3.49    1.54
   3  -2 -14    4.51    1.52
  -3  -2  14    1.64    1.31
   3   2 -14    2.98    0.48
   3  -2 -13   11.59    1.73
   3  -2 -13   10.90    1.93
   3   2 -13   10.59    1.80
  -3  -2  13   12.17    1.84
   3   2 -13   11.32    0.70
   3  -2 -12  336.69    9.17
  -3  -2  12  322.66    8.74
   3  -2 -12  321.51    9.10
   3   2 -12  325.07    9.12
  -3  -2  12  318.60    8.98
   3  -2 -11   30.75    2.46
  -3  -2  11   29.70    2.34
   3   2 -11   33.56    2.63
  -3  -2  11   35.63    2.52
   3  -2 -11   32.11    2.56
   3  -2 -10   13.70    1.70
  -3  -2  10   12.50    1.58
  -3  -2  10   13.56    1.71
   3   2 -10   12.30    1.64
   3  -2 -10   13.50    1.83
   3  -2  -9   86.53    3.66
  -3  -2   9   81.93    3.40
  -3  -2   9   83.46    3.62
   3  -2  -9   81.01    3.69
   3   2  -9   80.97    3.57
   3  -2  -8 1210.28   21.34
  -3  -2   8 1159.36   20.72
  -3  -2   8 1198.38   21.36
   3   2  -8 1186.62   21.31
  -3  -2   7    1.33    1.03
   3  -2  -7   -0.32    0.86
   3  -2  -7    0.12    0.81
  -3  -2   7    0.55    0.84
   3   2  -7    1.68    1.02
  -3  -2   6 1469.07   24.66
   3  -2  -6 1497.68   25.30
   3  -2  -6 1533.75   24.53
   3   2  -6 1514.30   25.25
  -3  -2   6 1509.44   25.20
   3   2  -6 1480.68   24.66
  -3  -2   5   44.99    1.87
   3   2  -5   40.90    1.69
   3   2  -5   41.50    2.00
  -3  -2   5   42.79    2.09
   3  -2  -5   45.48    1.96
  -3  -2   4   52.71    1.84
   3   2  -4   50.89    1.78
   3   2  -4   61.52    2.22
  -3  -2   4   49.50    2.10
   3  -2  -4   54.10    2.09
  -3   2   4   56.03    2.05
  -3  -2   4   56.10    1.52
   3  -2  -3  143.66    3.52
  -3  -2   3  128.21    2.91
  -3  -2   3  132.72    3.32
   3   2  -3  131.04    2.91
   3   2  -3  144.31    3.38
  -3   2   3  142.44    3.46
   3  -2  -3  143.64    3.49
  -3  -2   3  143.01    3.03
   3  -2  -2   33.69    1.63
  -3  -2   2   29.05    1.20
   3   2  -2   32.66    1.23
  -3   2   2   33.24    1.55
   3  -2  -2   32.28    1.57
  -3  -2   2   30.44    1.31
   3  -2  -1  652.04   11.26
  -3   2   1  633.24   11.22
   3   2  -1  629.06   10.12
  -3  -2   1  636.18   10.95
  -3   2   1  642.64   11.18
  -3   2   0   92.80    2.86
  -3  -2   0   96.55    2.75
   3  -2   0  102.72    3.00
  -3   2  -1   -0.31    0.72
   3   2   1    0.66    0.47
   3  -2   1    0.81    0.96
  -3  -2  -1    0.48    0.74
   3   2   2  518.26    9.23
  -3  -2  -2  535.25    8.65
  -3  -2  -2  543.12   10.07
  -3   2  -2  543.33   10.13
   3  -2   2  557.75   10.28
   3   2   3  117.36    3.18
  -3  -2  -3  115.97    2.66
   3   2   3  114.47    2.71
  -3  -2  -3  119.10    3.57
   3  -2   3  119.90    3.86
  -3   2  -3  117.07    3.54
   3   2   4    0.91    0.91
   3   2   4    2.19    0.68
  -3  -2  -4    1.53    0.62
  -3  -2  -4    1.42    0.86
  -3   2  -4    4.44    1.05
   3  -2   4    1.19    1.09
   3   2   5   15.83    1.24
  -3  -2  -5   17.19    1.22
   3   2   5   14.74    1.43
  -3   2  -5   14.55    1.43
   3  -2   5   17.00    1.61
  -3  -2  -5   16.29    1.48
   3   2   6 2158.90   34.49
  -3  -2  -6 2124.46   33.74
   3   2   6 2132.68   33.89
  -3  -2  -6 2141.70   34.53
   3  -2   6 2001.26   34.28
  -3   2  -6 2004.24   34.47
   3   2   7   18.12    1.53
   3  -2   7   20.67    1.74
  -3  -2  -7   17.14    1.45
   3   2   7   18.76    1.70
   3  -2   7   17.06    1.57
  -3  -2  -7   19.31    1.59
  -3   2  -7   15.88    1.60
   3   2   8  394.32    9.22
   3  -2   8  407.46    9.25
  -3  -2  -8  383.99    8.57
   3   2   8  394.19    8.74
   3  -2   8  383.43    8.69
  -3  -2  -8  399.04    9.02
  -3   2  -8  377.08    8.91
   3   2   9  140.75    5.01
   3   2   9  138.47    4.67
  -3  -2  -9  138.04    4.56
   3  -2   9  137.29    4.91
   3  -2   9  139.31    4.60
  -3  -2  -9  139.33    4.73
  -3   2  -9  133.11    4.68
   3   2  10    7.27    1.55
   3  -2  10    8.97    1.51
  -3  -2 -10   10.50    1.49
   3  -2  10    8.63    1.68
   3  -2  10    8.63    1.31
  -3   2 -10   10.12    1.52
  -3  -2 -10    6.62    1.30
   3  -2  11    1.98    1.03
  -3  -2 -11    1.80    1.03
   3  -2  11    1.26    1.26
   3   2  11    3.03    1.35
  -3  -2 -11    3.88    1.13
  -3   2 -11    3.80    1.22
   3   2  12  239.84    7.70
   3  -2  12  238.47    7.84
   3  -2  12  246.17    7.74
  -3  -2 -12  235.54    7.19
  -3  -2 -12  240.18    7.15
  -3   2 -12  233.38    7.09
   3  -2  13  245.64    8.04
  -3  -2 -13  232.22    7.39
   3   2  13  239.52    7.94
   3  -2  13  238.97    8.08
  -3  -2 -13  239.27    7.31
  -3   2 -13  221.66    7.06
  -3  -2 -14  139.12    5.72
   3  -2  14  135.32    6.13
   3   2  14  145.77    6.24
  -3   2 -14  134.14    5.33
  -3  -2 -14  139.60    5.51
  -3  -2 -15  130.51    5.79
   3   2  15  132.54    6.16
   3  -2  15  130.83    6.33
  -3   2 -15  127.33    5.35
  -3  -2 -15  134.18    5.51
  -3  -2 -16   89.98    4.89
   3   2  16   89.76    5.26
   3  -2  16   98.92    5.55
  -3  -2 -16  101.75    4.88
  -3   2 -16   88.33    4.57
   3   2  17  165.99    7.47
   3  -2  17  171.75    7.65
  -3   2 -17  149.99    6.13
   3  -2  18  110.96    6.32
   3   2  18   95.59    5.93
  -3   2 -18   85.75    4.67
   3  -2  19   47.16    4.33
   3   2  19   50.00    4.43
   3  -2  20   89.53    6.14
   3   2  20   81.81    5.88
   3   2  21    2.37    1.82
   3  -2  21    2.69    2.14
   3   2  22    2.80    1.94
   3  -2  22    3.78    2.53
  -3  -3  23    8.54    2.73
   3  -3 -23    4.42    2.23
  -3  -3  22   39.44    4.15
   3  -3 -22   37.91    4.23
  -3  -3  21   17.32    3.05
   3  -3 -21   14.91    2.95
  -3  -3  20    9.02    2.32
   3  -3 -20   10.37    2.47
  -3  -3  19   92.54    5.62
   3  -3 -19   99.14    5.92
  -3  -3  18   10.38    2.12
   3  -3 -18   10.40    2.06
  -3  -3  17    3.30    1.53
   3  -3 -17    2.33    1.52
  -3  -3  16   27.41    2.85
   3   3 -16   36.34    3.41
   3  -3 -16   32.58    3.24
  -3  -3  15    3.25    1.57
   3  -3 -15    2.16    1.40
   3   3 -15    3.67    1.57
  -3  -3  14   30.73    2.72
   3  -3 -14   28.07    2.80
   3   3 -14   32.02    2.87
  -3  -3  13  280.36    8.37
   3  -3 -13  307.45    9.06
   3   3 -13  291.47    8.90
   3  -3 -13  299.81    8.99
  -3  -3  13  304.36    9.03
   3  -3 -12   40.48    2.99
  -3  -3  12   41.51    2.88
   3   3 -12   36.11    2.81
  -3  -3  12   39.63    2.91
   3  -3 -12   39.85    3.03
   3  -3 -11  464.52   11.13
  -3  -3  11  437.14   10.45
   3   3 -11  439.75   10.90
   3  -3 -11  449.24   11.12
  -3  -3  11  447.78   10.93
   3  -3 -10   10.30    1.56
  -3  -3  10    7.26    1.39
  -3  -3  10    8.79    1.46
   3   3 -10    8.12    1.50
   3  -3  -9  677.11   13.97
  -3  -3   9  657.87   13.26
   3   3  -9  675.90   13.85
  -3  -3   9  665.87   13.74
   3  -3  -8    2.54    0.94
   3  -3  -8    3.84    1.14
  -3  -3   8    3.10    1.08
   3   3  -8    2.38    1.10
  -3  -3   8    2.05    0.89
   3  -3  -7  758.92   14.60
  -3  -3   7  750.63   13.89
   3  -3  -7  785.45   14.03
  -3  -3   7  755.60   14.41
   3   3  -7  752.50   14.46
  -3  -3   6   66.01    2.49
   3  -3  -6   65.69    2.62
  -3  -3   6   64.15    2.67
   3   3  -6   66.06    2.68
  -3  -3   5  350.03    6.97
   3  -3  -5  368.71    7.48
  -3  -3   5  350.84    7.46
   3   3  -5  360.93    7.51
  -3  -3   4  428.75    7.93
  -3   3   4  444.12    8.62
   3  -3  -4  445.76    8.67
  -3  -3   4  443.94    7.52
   3   3  -4  453.66    8.55
  -3  -3   4  447.35    8.49
  -3  -3   3  439.10    7.63
  -3   3   3  440.73    8.43
   3  -3  -3  447.49    8.50
  -3  -3   3  437.37    8.01
  -3  -3   3  424.01    7.44
   3  -3  -2   52.95    2.16
   3  -3  -2   56.59    2.23
  -3   3   2   51.56    2.08
  -3  -3   2   49.93    1.61
   3  -3  -1 1394.13   22.71
  -3   3   1 1400.80   22.65
  -3  -3   1 1361.46   21.33
   3  -3   0   67.04    2.54
  -3   3   0   68.94    2.48
  -3   3  -1  937.51   16.23
  -3  -3  -1  935.41   14.92
   3  -3   1  965.20   16.36
  -3  -3  -2   19.67    0.79
  -3   3  -2   22.71    1.54
  -3  -3  -2   19.42    1.07
   3   3   2   19.84    1.12
   3  -3   2   24.35    1.70
  -3  -3  -3   32.86    1.25
   3   3   3   34.95    1.65
  -3  -3  -3   31.66    1.52
  -3   3  -3   36.09    1.91
   3  -3   3   39.26    2.14
  -3  -3  -4   13.26    0.98
  -3  -3  -4   16.30    1.27
  -3   3  -4   13.81    1.36
   3   3   4   11.80    1.18
   3  -3   4   15.17    1.76
  -3  -3  -5  396.34    7.69
  -3  -3  -5  395.36    8.17
   3   3   5  395.45    8.25
  -3   3  -5  390.14    8.43
   3  -3   5  398.73    8.77
  -3  -3  -6   62.14    2.65
  -3  -3  -6   58.87    2.34
   3   3   6   59.71    2.74
  -3   3  -6   54.12    2.61
   3  -3   6   56.77    2.70
  -3  -3  -7  139.76    4.13
  -3  -3  -7  141.49    4.47
   3   3   7  144.53    4.62
  -3   3  -7  135.08    4.36
   3  -3   7  130.37    4.35
   3   3   8   90.85    3.76
   3  -3   8   93.04    3.93
  -3  -3  -8   86.74    3.56
  -3  -3  -8   88.66    3.34
  -3  -3  -8   91.27    3.70
   3  -3   8   87.00    3.47
  -3   3  -8   81.99    3.41
   3   3   9  107.42    4.34
   3  -3   9  107.26    4.35
  -3  -3  -9  103.23    4.15
  -3  -3  -9  109.25    3.96
  -3  -3  -9  106.67    4.16
   3  -3   9  101.20    3.86
  -3   3  -9   97.12    3.90
   3   3  10   69.69    3.58
   3  -3  10   66.47    3.56
  -3  -3 -10   64.54    3.16
  -3  -3 -10   70.21    3.38
   3  -3  10   64.47    3.06
  -3   3 -10   58.54    3.02
   3   3  11   25.89    2.41
  -3  -3 -11   26.56    2.20
   3  -3  11   25.45    2.35
   3  -3  11   28.63    2.11
  -3  -3 -11   27.54    2.22
  -3   3 -11   23.29    1.96
  -3  -3 -12    3.39    1.33
   3  -3  12    5.45    1.77
   3  -3  12    4.92    1.42
   3   3  12    3.44    1.33
  -3   3 -12    3.56    1.08
  -3  -3 -12    4.96    1.31
   3   3  13  375.57   10.50
   3  -3  13  373.35   10.62
  -3  -3 -13  374.64    9.83
  -3  -3 -13  385.81    9.93
  -3   3 -13  330.95    9.05
  -3  -3 -14   18.70    2.12
   3  -3  14   21.46    2.57
   3   3  14   19.54    2.52
  -3  -3 -14   20.61    2.17
  -3   3 -14   19.51    2.06
  -3  -3 -15    3.26    1.38
   3  -3  15   -0.04    1.53
   3   3  15    3.62    1.63
  -3  -3 -15    3.19    1.34
  -3   3 -15    3.21    1.33
  -3  -3 -16  101.21    5.23
   3  -3  16  104.12    5.76
   3   3  16  111.46    5.89
  -3   3 -16   95.78    4.54
   3  -3  17   36.82    3.75
  -3  -3 -17   36.35    3.37
   3   3  17   37.96    3.71
  -3   3 -17   33.88    2.81
  -3  -3 -18   33.90    3.31
   3  -3  18   34.62    3.74
   3   3  18   35.05    3.67
  -3   3 -18   29.49    2.66
   3   3  19  101.46    6.28
   3  -3  19   98.83    6.25
   3   3  20    2.37    2.12
   3  -3  20    5.74    2.27
   3  -3  21    2.97    1.93
   3   3  21    4.29    2.10
   3  -3  22   22.36    3.55
  -3  -4  23   63.41    5.36
   3  -4 -23   62.31    5.65
  -3  -4  22   50.38    4.71
   3  -4 -22   49.37    4.66
  -3  -4  21   13.64    2.85
   3  -4 -21   16.11    3.01
  -3  -4  20    1.24    1.85
   3  -4 -20   -1.33    1.72
  -3  -4  19    3.42    2.05
   3  -4 -19    0.39    1.68
  -3  -4  18  211.65    8.30
   3  -4 -18  199.91    8.39
  -3  -4  17   53.67    3.99
   3  -4 -17   48.05    3.89
  -3  -4  16   82.29    4.72
   3  -4 -16   82.74    5.01
  -3  -4  15   72.69    4.26
   3  -4 -15   70.74    4.43
  -3  -4  14  185.65    6.74
   3  -4 -14  194.20    7.27
  -3  -4  13    0.69    1.17
   3  -4 -13    1.14    1.24
  -3  -4  13   -1.16    1.17
  -3  -4  12  575.80   13.25
   3  -4 -12  628.62   14.19
  -3  -4  12  609.16   13.90
   3  -4 -12  591.02   13.99
   3  -4 -11   12.08    1.81
  -3  -4  11   11.50    1.60
  -3  -4  11   10.43    1.50
   3  -4 -10    1.41    1.00
  -3  -4  10    0.89    1.01
  -3  -4  10    2.54    0.98
   3  -4  -9   53.45    3.00
  -3  -4   9   50.12    2.70
   3  -4  -9   55.53    2.79
  -3  -4   9   56.62    3.00
   3  -4  -8  208.91    6.13
  -3  -4   8  201.68    5.56
   3  -4  -8  212.00    5.74
  -3  -4   8  211.43    6.02
   3  -4  -7  223.83    5.82
  -3  -4   7  209.14    5.36
  -3  -4   7  211.11    5.83
   3  -4  -6  421.06    8.89
  -3  -4   6  434.56    8.53
  -3  -4   6  428.45    9.04
   3  -4  -5   58.69    2.62
  -3  -4   5   56.26    2.41
  -3  -4   4 1070.37   16.75
  -3   4   4 1066.28   18.49
   3  -4  -4 1084.58   18.60
  -3  -4   4 1064.32   18.12
  -3  -4   3  112.48    2.60
  -3   4   3  111.76    3.44
   3  -4  -3  122.86    3.70
  -3  -4   3  124.70    3.21
   3  -4  -2 2489.13   39.40
  -3   4   2 2449.34   39.34
   3  -4  -1   96.48    3.27
   3  -4  -1   92.11    3.18
  -3   4   1   98.26    3.19
   3  -4   0 4814.26   74.21
  -3   4   0 4776.76   74.23
  -3  -4  -1   30.91    1.19
   3  -4   1   28.97    1.87
   3  -4   2  655.21   11.89
  -3   4  -2  638.67   11.77
  -3  -4  -2  607.74   10.73
  -3   4  -3    7.89    1.13
  -3  -4  -3    6.83    0.86
   3  -4   3   10.22    1.39
  -3  -4  -4   96.04    2.65
  -3  -4  -4   93.23    2.99
  -3   4  -4   93.80    3.28
   3  -4   4   99.76    3.43
  -3  -4  -5    5.84    0.83
  -3  -4  -5    7.62    1.07
  -3   4  -5    8.33    1.16
   3   4   5    7.75    1.14
   3  -4   5    6.93    1.25
  -3  -4  -6  268.49    6.08
  -3   4  -6  275.54    6.65
  -3  -4  -6  273.38    6.58
   3   4   6  282.89    6.77
   3  -4   6  273.18    7.01
  -3  -4  -7  238.65    5.89
  -3  -4  -7  247.66    6.43
   3   4   7  244.67    6.47
   3  -4   7  233.52    6.39
  -3   4  -7  255.92    6.40
  -3  -4  -8   40.15    2.24
  -3  -4  -8   42.75    2.55
   3   4   8   41.06    2.58
   3  -4   8   38.27    2.47
  -3   4  -8   38.39    2.31
  -3  -4  -9   15.66    1.52
   3  -4   9   16.27    1.80
  -3  -4  -9   13.36    1.60
   3   4   9   14.83    1.74
  -3   4  -9   14.15    1.45
   3  -4   9   13.01    1.59
  -3  -4 -10  488.90   11.42
  -3  -4 -10  489.91   10.87
   3  -4  10  506.52   11.94
   3   4  10  493.27   11.58
  -3   4 -10  494.53   10.79
   3  -4  10  463.87   10.61
   3   4  11  150.45    5.72
  -3  -4 -11  151.29    5.58
   3  -4  11  153.25    5.88
  -3  -4 -11  144.59    5.16
  -3  -4 -11  149.45    5.41
   3  -4  11  132.87    4.75
  -3   4 -11  150.51    5.07
   3   4  12  540.59   13.06
   3  -4  12  558.76   13.35
  -3  -4 -12  556.91   13.00
  -3  -4 -12  532.16   12.28
  -3  -4 -12  546.77   12.57
   3  -4  12  518.10   11.65
  -3   4 -12  521.18   11.77
   3   4  13   61.67    3.90
   3  -4  13   60.02    4.02
  -3  -4 -13   58.29    3.48
   3  -4  13   57.58    3.07
  -3  -4 -13   62.03    3.59
  -3   4 -13   61.21    3.25
   3   4  14  176.72    6.98
  -3  -4 -14  176.90    6.51
   3  -4  14  174.37    7.11
  -3  -4 -14  179.61    6.52
  -3   4 -14  171.23    5.86
   3  -4  15   14.77    2.45
  -3  -4 -15   14.04    2.11
  -3   4 -15   16.36    1.91
   3   4  15   14.62    2.40
  -3  -4 -16  102.64    5.21
   3  -4  16  105.38    5.85
   3   4  16  101.63    5.68
  -3   4 -16   96.70    4.47
  -3   4 -17    0.90    1.10
   3   4  17   -0.64    1.61
   3  -4  17   -0.41    1.74
  -3  -4 -17    1.08    1.67
   3   4  18  246.35    9.60
   3  -4  18  251.48    9.91
  -3  -4 -18  240.10    8.91
   3  -4  19   12.91    2.74
  -3  -4 -19   14.03    2.55
   3  -4  20    1.58    1.88
  -3  -4 -20    2.28    1.73
   3  -4  21   34.34    4.04
  -3  -5  23   42.55    4.45
  -3  -5  22    0.97    2.45
   3  -5 -22    4.97    2.03
  -3  -5  21   62.65    4.94
   3  -5 -21   75.74    5.66
  -3  -5  20    3.68    2.01
   3  -5 -20    5.83    2.43
  -3  -5  19  260.98    9.67
   3  -5 -19  256.43    9.98
  -3  -5  18    5.23    1.63
   3  -5 -18    8.47    2.17
  -3  -5  17  156.36    6.90
   3  -5 -17  158.27    7.24
  -3  -5  16  116.42    5.68
   3  -5 -16  125.92    6.08
  -3  -5  15  294.18    9.24
   3  -5 -15  308.17    9.83
  -3  -5  14    0.63    1.21
   3  -5 -14    1.61    1.49
  -3  -5  13  373.69   10.01
   3  -5 -13  377.32   10.65
  -3  -5  12   38.55    2.72
   3  -5 -12   41.21    3.04
  -3  -5  12   45.78    3.19
  -3  -5  11  305.08    8.32
   3  -5 -11  325.00    9.17
  -3  -5  11  338.50    9.10
  -3  -5  10   83.54    3.71
   3  -5 -10   90.59    4.22
   3  -5 -10   84.80    3.71
  -3  -5  10   89.78    4.06
   3  -5  -9  931.02   18.03
   3   5  -9  870.48   14.48
   3  -5  -9  929.31   17.25
  -3  -5   9  907.86   16.95
  -3  -5   9  929.98   17.70
   3  -5  -8   18.86    1.83
   3   5  -8   17.61    0.86
  -3  -5   8   19.20    1.79
  -3  -5   8   19.79    1.67
   3  -5  -7   24.98    1.98
   3   5  -7   19.58    0.88
  -3  -5   7   27.87    1.99
   3  -5  -6    3.33    1.07
  -3  -5   6    3.02    0.89
   3  -5  -5   19.68    1.78
  -3  -5   5   19.01    1.50
  -3   5   4  131.63    4.10
   3  -5  -4  136.38    4.28
  -3  -5   4  133.19    3.01
  -3  -5   4  136.32    3.84
  -3   5   3   74.12    2.90
  -3  -5   3   69.83    2.10
   3  -5  -3   73.53    3.02
  -3   5   2   32.21    1.93
   3  -5  -2   30.91    2.05
  -3   5   1 1560.13   26.26
   3  -5  -1 1578.54   26.30
   3  -5   0    9.99    1.42
  -3   5   0    8.26    1.26
   3  -5   1 2221.71   36.01
  -3   5  -1 2216.94   36.07
   3  -5   2   27.40    1.95
  -3   5  -2   24.88    1.78
  -3   5  -3  200.02    5.20
  -3  -5  -3  198.48    4.66
   3  -5   3  200.64    5.28
  -3  -5  -4   18.04    1.35
   3  -5   4   20.64    1.73
  -3   5  -4   22.16    1.65
  -3  -5  -5    1.11    0.74
  -3   5  -5    1.53    0.87
   3  -5   5    2.55    1.15
  -3  -5  -6    8.92    1.03
  -3  -5  -6    7.74    1.15
  -3   5  -6    7.14    1.10
   3  -5   6    7.95    1.40
  -3  -5  -7    1.64    0.77
  -3  -5  -7    2.34    0.95
  -3   5  -7    3.30    0.99
   3  -5   7    1.46    1.05
  -3  -5  -8   27.53    1.87
  -3  -5  -8   27.80    2.09
  -3   5  -8   25.45    1.85
   3  -5   8   26.22    2.17
  -3  -5  -9  753.19   14.80
  -3  -5  -9  778.31   15.58
  -3   5  -9  782.50   14.90
   3  -5   9  724.71   14.99
   3  -5  10  127.78    5.30
  -3  -5 -10  125.08    4.54
  -3  -5 -10  127.34    4.98
  -3   5 -10  129.72    4.51
   3  -5  10  115.90    4.41
  -3  -5 -11   20.25    1.98
  -3  -5 -11   22.15    2.24
   3  -5  11   20.49    2.21
  -3   5 -11   18.67    1.79
   3  -5  11   19.03    1.88
  -3  -5 -12    4.19    1.24
  -3  -5 -12    4.74    1.27
  -3   5 -12    7.22    1.37
   3  -5  12    5.04    1.15
  -3  -5 -13  933.64   19.01
  -3  -5 -13  949.59   19.37
   3  -5  13  910.73   18.08
  -3   5 -13  936.04   18.14
  -3   5 -14   18.43    1.88
   3  -5  14   18.95    1.92
  -3  -5 -14   20.99    2.34
   3  -5  14   20.23    2.73
  -3   5 -15   61.74    3.37
   3  -5  15   63.86    4.48
  -3  -5 -15   64.38    3.98
  -3   5 -16  105.40    4.58
  -3  -5 -16  104.28    5.29
   3  -5  16  105.43    5.89
  -3   5 -17  173.76    6.13
   3  -5  17  194.09    8.33
  -3  -5 -17  177.72    7.26
   3  -5  18    3.70    1.78
  -3  -5 -18    3.49    1.64
   3  -5  19   58.39    4.93
  -3  -5 -19   51.12    4.20
   3  -5  20    3.51    2.18
  -3  -5 -20    5.08    2.15
   3  -5  21  101.49    6.76
  -3  -5 -21   81.95    5.65
   3  -6 -24    3.16    1.60
  -3  -6  23   43.58    4.41
   3  -6 -23   43.86    3.86
  -3  -6  22   89.46    5.94
   3  -6 -22   87.73    5.33
   3  -6 -22   86.96    6.16
  -3  -6  21    3.36    1.83
   3  -6 -21    4.59    2.07
  -3  -6  20   -1.35    1.98
   3  -6 -20    3.16    2.11
  -3  -6  19    0.00    1.60
   3  -6 -19    3.38    1.64
  -3  -6  18  122.61    6.35
   3  -6 -18  134.28    6.87
  -3  -6  17    5.75    2.04
   3  -6 -17    6.84    2.02
  -3  -6  16    8.24    1.93
   3  -6 -16   10.02    2.08
  -3  -6  15   27.00    2.72
   3  -6 -15   27.55    3.04
  -3  -6  14   80.28    4.40
   3  -6 -14   81.78    4.73
  -3  -6  13    1.14    1.24
  -3  -6  12  194.24    6.54
   3  -6 -12  195.77    6.46
  -3  -6  12  201.27    6.98
   3  -6 -11   38.89    2.98
   3  -6 -11   36.58    2.63
   3   6 -11   35.61    1.51
  -3  -6  11   35.45    2.76
  -3  -6  11   32.99    2.50
   3  -6 -10  287.97    8.28
   3  -6 -10  286.73    7.78
   3   6 -10  263.68    5.40
  -3  -6  10  279.67    7.47
  -3  -6  10  285.61    8.04
   3   6  -9   12.86    0.87
   3  -6  -9   15.24    1.78
  -3  -6   9   17.61    1.85
  -3  -6   9   14.49    1.63
  -3  -6   8 1622.97   25.00
   3   6  -8 1564.17   25.28
   3  -6  -8 1657.90   28.23
  -3  -6   8 1621.10   28.18
   3   6  -7  108.35    2.70
   3  -6  -7  111.78    4.20
  -3  -6   7  108.58    4.07
   3  -6  -6   -2.14    1.27
  -3  -6   6    1.80    0.88
   3  -6  -5    4.40    1.21
  -3  -6   5    4.74    0.72
  -3  -6   5    7.02    1.24
  -3   6   4  231.43    6.10
  -3  -6   4  231.44    4.88
   3  -6  -4  228.00    6.18
  -3   6   3  112.78    3.80
  -3  -6   3  101.20    2.84
   3  -6  -3  107.23    3.89
  -3  -6   2  544.92   10.17
  -3   6   2  578.32   11.37
   3  -6  -2  566.67   11.40
  -3   6   1   13.52    1.48
   3  -6  -1   13.54    1.64
  -3   6   0  836.63   15.51
   3  -6   0  838.24   15.56
   3  -6   1   34.28    2.18
  -3   6  -1   37.55    2.22
   3  -6   2  597.62   11.93
  -3   6  -2  611.02   12.04
  -3  -6  -3    4.24    0.78
   3  -6   3    4.72    1.20
  -3   6  -3    5.35    1.11
  -3  -6  -4    3.74    0.88
   3  -6   4    3.69    1.20
  -3  -6  -5   30.77    1.90
   3  -6   5   30.05    2.12
  -3  -6  -6  317.11    7.56
  -3   6  -6  319.17    7.60
   3  -6   6  322.00    7.81
  -3   6  -7   14.92    1.53
  -3  -6  -7   17.27    1.67
   3  -6   7   16.87    1.80
  -3  -6  -8  600.44   12.17
  -3  -6  -8  615.19   12.85
  -3   6  -8  589.93   12.22
   3  -6   8  603.40   12.85
  -3  -6  -9    0.77    0.89
  -3  -6  -9   -0.41    1.00
  -3   6  -9    0.94    0.76
   3  -6   9   -0.62    1.05
   3  -6  10  403.49   10.61
  -3  -6 -10  388.59    9.31
  -3   6 -10  386.97    9.10
  -3  -6 -10  404.10   10.04
   3  -6  10  361.48    9.30
  -3  -6 -11    2.31    1.05
   3  -6  11    3.53    1.34
  -3  -6 -11    4.56    1.34
  -3   6 -11    2.48    0.92
   3  -6  11    3.77    0.99
  -3  -6 -12 1110.64   21.38
  -3  -6 -12 1135.16   22.25
  -3   6 -12 1116.16   20.58
   3  -6  12 1052.10   20.62
  -3  -6 -13    4.31    1.34
  -3   6 -13    4.50    1.20
   3  -6  13    4.38    1.28
  -3   6 -14  249.26    7.15
   3  -6  14  247.05    7.20
  -3  -6 -14  246.87    8.00
  -3   6 -15   91.35    4.03
   3  -6  15   88.17    3.98
  -3  -6 -15   86.80    4.63
   3  -6  15   94.37    5.44
  -3   6 -16  305.30    8.35
   3  -6  16  308.69   10.61
  -3  -6 -16  293.42    9.48
  -3   6 -17    6.00    1.34
  -3  -6 -17    5.29    1.72
   3  -6  17    8.95    2.47
   3  -6  18  202.26    8.82
  -3  -6 -18  184.83    7.73
  -3  -6 -19    0.99    1.49
   3  -6  19    2.40    2.17
   3  -6  20    7.93    2.72
  -3  -6 -20    8.65    2.33
  -3  -6 -21    3.64    2.04
   3  -6  21    1.82    2.20
  -3  -6 -22  193.09    8.89
   3  -7 -24    3.59    2.05
  -3  -7  23    5.62    2.25
   3  -7 -23    2.05    1.70
  -3  -7  22    2.36    1.75
   3  -7 -22    5.57    2.03
   3  -7 -22    3.86    1.85
  -3  -7  21   19.40    3.22
   3  -7 -21   18.95    2.68
   3  -7 -21   21.28    3.21
  -3  -7  20    7.09    2.15
   3  -7 -20    6.78    1.94
   3  -7 -20    5.08    2.03
  -3  -7  19  156.19    7.37
   3  -7 -19  147.41    6.64
   3  -7 -19  149.42    7.46
  -3  -7  18    0.18    1.60
   3  -7 -18   -0.67    1.42
   3  -7 -18   -0.65    1.76
  -3  -7  17  241.55    8.86
   3  -7 -17  239.70    8.30
   3  -7 -17  237.89    9.20
  -3  -7  16  100.12    5.33
   3  -7 -16  103.60    5.17
   3  -7 -16  106.37    5.85
  -3  -7  15   79.39    4.59
   3   7 -15   78.98    2.78
   3  -7 -15   79.25    4.39
   3  -7 -15   83.76    4.93
   3  -7 -14    0.00    1.34
   3   7 -14    0.96    0.67
  -3  -7  14    1.11    1.28
  -3  -7  13  164.31    6.16
   3  -7 -13  162.51    6.16
   3   7 -13  163.23    4.08
   3  -7 -12    4.07    1.44
   3   7 -12    3.44    0.72
  -3  -7  12    4.70    1.36
   3  -7 -11  211.28    7.23
  -3  -7  11  202.78    6.41
  -3  -7  11  214.34    7.09
   3   7 -11  187.03    4.43
   3  -7 -11  201.62    6.67
   3  -7 -10   88.82    4.30
  -3  -7  10   86.20    4.12
  -3  -7  10   82.48    3.69
   3  -7 -10   89.71    4.19
   3   7 -10   78.11    2.38
  -3  -7  10   75.74    1.95
  -3  -7   9  323.68    8.56
   3   7  -9  296.51    6.07
   3  -7  -9  317.40    8.48
  -3  -7   9  316.03    5.81
  -3  -7   8  375.94    6.88
   3   7  -8  359.62    7.00
   3  -7  -8  365.60    9.22
  -3  -7   8  373.58    9.20
   3  -7  -7   10.89    1.58
   3   7  -7   12.15    0.98
  -3  -7   7   11.47    1.52
   3  -7  -6  101.16    4.15
  -3  -7   6  100.31    3.83
   3  -7  -5  129.09    4.66
  -3  -7   5  128.28    3.42
   3  -7  -4   21.85    1.91
  -3   7   4   19.85    1.73
  -3  -7   4   20.37    1.35
   3  -7  -3   -0.48    1.17
  -3   7   3    2.27    1.11
  -3  -7   3    1.06    0.76
  -3   7   2   12.51    1.39
  -3  -7   2   15.28    1.37
   3  -7  -2   13.14    1.68
  -3   7   1 1467.79   25.44
   3  -7  -1 1462.45   25.47
  -3   7   0  109.24    3.97
   3  -7   0  109.92    4.00
   3  -7   1 1850.72   31.32
  -3   7  -1 1867.16   31.36
   3  -7   2   56.76    2.82
  -3   7  -2   53.76    2.71
   3  -7   3  166.77    5.10
  -3   7  -3  168.10    5.18
  -3  -7  -4   20.29    1.54
   3  -7   4   18.45    1.73
  -3   7  -4   22.08    1.82
  -3  -7  -5   57.76    2.71
   3  -7   5   53.04    2.84
   3  -7   6    6.94    1.32
  -3  -7  -6    3.19    0.92
  -3  -7  -7   14.09    1.60
   3  -7   7   16.62    1.74
  -3  -7  -8   35.69    2.43
   3  -7   8   36.52    2.45
  -3  -7  -9  369.52    8.84
  -3  -7  -9  380.48    9.55
  -3   7  -9  353.21    8.67
   3  -7   9  373.98    9.38
  -3  -7 -10    1.86    0.92
  -3  -7 -10    2.65    1.27
  -3   7 -10    3.08    0.96
   3  -7  10    2.41    1.05
  -3  -7 -11   54.78    3.14
  -3  -7 -11   55.78    3.48
  -3   7 -11   54.10    2.93
   3  -7  11   56.51    3.19
  -3  -7 -12    8.16    1.45
  -3   7 -12    7.04    1.27
   3  -7  12    6.57    1.28
  -3  -7 -13  356.26    9.68
  -3   7 -13  346.30    8.75
   3  -7  13  339.79    8.97
  -3  -7 -14   19.73    2.30
  -3   7 -14   19.10    1.84
   3  -7  14   22.13    2.08
  -3   7 -15   34.95    2.49
   3  -7  15   40.57    2.78
  -3  -7 -15   38.32    3.16
  -3   7 -16   13.27    1.68
   3  -7  16   10.41    1.58
   3  -7  16   11.08    2.31
  -3  -7 -16    9.38    1.98
   3  -7  17  258.15    9.99
  -3  -7 -17  263.76    9.15
  -3  -7 -18    3.28    1.82
   3  -7  18    3.96    2.21
  -3  -7 -19   29.84    3.24
   3  -7  19   30.23    3.82
  -3  -7 -20    5.32    1.99
   3  -7  20    2.95    1.94
   3  -7  21   27.35    3.99
  -3  -7 -21   23.91    3.22
  -3  -7 -22   24.98    3.43
  -3  -7 -23   35.24    4.14
   3  -8 -24   65.90    5.07
   3  -8 -23    7.29    2.21
  -3  -8  22    4.39    2.16
   3  -8 -22   -1.08    1.81
   3  -8 -22    0.85    2.07
  -3  -8  21   11.37    2.47
   3  -8 -21   16.97    2.81
   3  -8 -21   13.56    2.78
  -3  -8  20    2.04    1.92
   3  -8 -20    3.58    1.90
   3  -8 -20    2.33    1.86
  -3  -8  19    2.98    1.89
   3  -8 -19   -0.84    1.67
   3  -8 -19    1.52    1.66
  -3  -8  18  116.22    6.18
   3  -8 -18  110.22    5.81
   3  -8 -18  104.47    6.19
  -3  -8  17   75.38    4.75
   3  -8 -17   70.16    4.93
   3  -8 -17   76.29    4.70
  -3  -8  16    4.23    1.45
   3  -8 -16    6.20    1.84
   3  -8 -16    4.48    1.78
   3   8 -16    4.59    0.90
  -3  -8  15    3.69    1.44
   3   8 -15    7.31    1.01
   3  -8 -15    6.54    1.89
  -3  -8  14   32.36    2.92
   3   8 -14   31.28    1.69
   3  -8 -14   35.41    3.15
  -3  -8  13   38.10    2.89
   3  -8 -13   38.45    3.19
   3   8 -13   35.11    1.75
  -3  -8  12  186.83    6.43
   3  -8 -12  189.27    6.79
   3   8 -12  182.30    4.47
  -3  -8  11    5.68    1.47
   3  -8 -11    4.71    1.55
   3   8 -11    4.24    0.75
  -3  -8  11    4.50    0.59
  -3  -8  10    5.81    1.39
   3  -8 -10    5.82    1.56
   3   8 -10    2.89    0.75
  -3  -8  10    5.45    0.71
  -3  -8   9   79.27    2.39
   3  -8  -9   73.81    3.89
   3   8  -9   75.03    2.51
  -3  -8   9   80.21    3.95
   3  -8  -8   30.69    2.49
   3   8  -8   35.15    1.70
  -3  -8   8   35.27    2.53
   3  -8  -7   34.97    2.60
  -3  -8   7   40.18    2.54
   3  -8  -6  189.60    6.11
   3  -8  -5   32.53    2.52
  -3  -8   5   33.19    1.79
  -3  -8   4   78.55    2.81
   3  -8  -4   78.00    3.67
   3  -8  -3    0.87    1.19
  -3   8   3    2.78    1.07
  -3  -8   3    2.74    0.88
   3  -8  -2   61.35    3.19
  -3  -8   2   56.82    2.51
  -3   8   2   60.37    3.00
  -3  -8   1   38.84    2.20
   3  -8  -1   38.02    2.57
  -3   8   1   37.31    2.40
  -3   8   0  563.46   11.88
   3  -8   0  547.88   11.85
  -3   8  -1    1.06    0.95
   3  -8   2  313.56    7.95
  -3   8  -2  324.82    8.03
   3  -8   3    1.21    1.01
  -3   8  -3    2.46    1.13
   3  -8   4    4.58    1.17
  -3   8  -4    7.23    1.33
   3  -8   5  137.10    4.75
  -3  -8  -5  134.61    4.47
  -3   8  -5  139.90    4.92
  -3  -8  -6  255.20    6.87
  -3   8  -6  251.84    7.06
   3  -8   6  253.55    7.04
  -3  -8  -7  209.27    6.22
   3  -8   7  202.64    6.15
  -3  -8  -8    8.50    1.44
   3  -8   8    7.97    1.46
  -3  -8  -9   66.99    3.56
   3  -8   9   68.86    3.53
  -3  -8 -10   47.16    2.87
  -3  -8 -10   43.72    3.03
   3  -8  10   45.59    3.11
  -3  -8 -11   32.15    2.49
  -3  -8 -11   33.62    2.78
   3  -8  11   31.95    2.57
  -3  -8 -12  303.54    8.56
   3  -8  12  296.30    8.40
  -3  -8 -13   57.75    3.57
   3  -8  13   56.45    3.29
  -3  -8 -14   38.16    3.04
   3  -8  14   33.02    2.50
  -3  -8 -15   16.48    2.30
   3  -8  15   16.33    1.90
  -3  -8 -16    4.53    1.75
   3  -8  16    6.33    2.05
   3  -8  16    3.95    1.34
  -3  -8 -17    9.73    2.04
   3  -8  17    8.60    2.18
  -3  -8 -18  119.42    6.16
   3  -8  18  131.33    7.21
   3  -8  19   56.27    5.05
  -3  -8 -19   49.64    4.12
   3  -8  20    2.44    2.18
  -3  -8 -20    2.03    1.63
  -3  -8 -21   69.05    5.19
  -3  -8 -22   18.58    2.98
   3  -9 -24   10.54    2.88
   3  -9 -23   39.38    4.29
  -3  -9  22   20.43    3.27
   3  -9 -22   19.79    3.02
  -3  -9  21   -2.59    2.08
   3  -9 -21   -0.22    1.70
   3  -9 -21    2.74    2.03
  -3  -9  20   45.42    4.21
   3  -9 -20   41.15    3.84
   3  -9 -20   43.21    4.31
  -3  -9  19   68.94    4.91
   3  -9 -19   59.10    4.47
   3  -9 -19   69.58    5.18
   3  -9 -18    4.13    1.91
   3  -9 -18    6.20    2.22
  -3  -9  18    6.70    2.11
   3  -9 -17   28.55    3.19
   3  -9 -17   27.01    3.27
  -3  -9  17   23.30    2.90
  -3  -9  16   95.56    5.30
   3  -9 -16  103.03    5.60
   3  -9 -16   97.97    5.69
  -3  -9  15   65.80    4.31
   3   9 -15   62.61    2.51
   3  -9 -15   68.26    4.44
  -3  -9  14   61.51    3.90
   3   9 -14   57.13    2.36
   3  -9 -14   64.43    4.25
  -3  -9  13    9.72    1.93
   3   9 -13    4.65    0.88
   3  -9 -13    7.07    2.04
   3  -9 -12   25.83    2.84
   3   9 -12   21.82    1.46
  -3  -9  12   23.99    1.11
   3  -9 -11   78.19    4.31
   3   9 -11   71.52    2.54
  -3  -9  11   80.76    2.45
  -3  -9  10    2.70    0.71
   3  -9 -10    2.99    1.42
   3   9 -10    3.57    0.79
  -3  -9  10    3.69    1.29
  -3  -9   9    5.99    0.82
   3  -9  -9    4.95    1.54
   3   9  -9    4.98    0.86
  -3  -9   9    4.96    1.31
   3  -9  -8  118.73    5.04
  -3  -9   8  123.05    4.91
   3  -9  -7  417.40   10.51
   3  -9  -6  130.31    5.15
  -3  -9   5  113.04    3.64
   3  -9  -5  112.19    4.63
  -3  -9   4    9.88    1.26
   3  -9  -4   11.74    1.70
  -3  -9   3  219.40    5.76
  -3   9   3  235.48    6.84
   3  -9  -3  226.43    6.78
  -3  -9   2   63.67    2.86
  -3   9   2   71.97    3.53
   3  -9  -2   66.80    3.47
   3  -9  -1   61.88    3.36
  -3   9   1   59.56    3.09
  -3  -9   1   62.39    2.93
  -3  -9   0    4.73    1.12
  -3   9   0    5.76    1.20
   3  -9   0    6.88    1.58
  -3   9  -1  180.02    5.76
   3  -9   2    6.03    1.43
  -3   9  -2    5.06    1.20
   3  -9   3    3.11    1.22
  -3   9  -3    4.06    1.22
   3  -9   4   -0.31    1.15
  -3   9  -4    1.65    1.13
   3  -9   5  542.15   12.01
  -3   9  -5  562.42   12.30
   3  -9   6   19.80    1.96
  -3  -9  -6   18.79    1.81
  -3   9  -6   17.43    1.90
  -3  -9  -7  911.75   17.74
  -3   9  -7  889.48   17.88
   3  -9   7  889.48   17.60
  -3  -9  -8   83.98    3.96
  -3   9  -8   78.99    3.84
   3  -9   8   80.29    3.78
  -3  -9  -9   15.78    1.94
   3  -9   9   17.23    1.95
  -3  -9 -10   -0.32    1.22
   3  -9  10    3.67    1.34
  -3  -9 -11    8.66    1.50
   3  -9  11   10.35    1.72
  -3  -9 -12   87.95    4.31
   3  -9  12   85.27    4.23
  -3  -9 -13  160.08    6.11
   3  -9  13  151.87    5.73
  -3  -9 -14   42.14    3.28
   3  -9  14   39.43    2.85
  -3  -9 -15    2.46    1.51
   3  -9  15    3.03    1.22
   3  -9  16   53.39    3.33
  -3  -9 -16   54.16    3.97
   3  -9  17   34.22    2.64
  -3  -9 -17   29.40    3.08
   3  -9  17   35.36    3.90
   3  -9  18   31.82    3.89
  -3  -9 -18   26.90    3.05
   3  -9  19   60.31    5.14
  -3  -9 -19   51.17    4.12
  -3  -9 -20   40.23    3.90
   3  -9  20   40.52    4.42
  -3  -9 -21   14.47    2.87
  -3  -9 -22   11.47    2.56
   3 -10 -23    0.69    1.93
  -3 -10  22   49.35    4.64
   3 -10 -22   52.36    4.71
  -3 -10  21    0.56    1.78
   3 -10 -21    1.28    2.10
   3 -10 -21    3.77    2.49
  -3 -10  20   34.38    3.71
   3 -10 -20   37.56    4.04
   3 -10 -20   39.07    4.17
   3 -10 -19    5.22    2.19
   3 -10 -19    3.90    2.02
  -3 -10  19    0.50    1.76
   3 -10 -18   27.97    3.40
  -3 -10  18   28.08    3.31
   3 -10 -18   30.30    3.61
   3 -10 -17   29.32    3.43
  -3 -10  17   28.57    3.13
   3 -10 -17   29.85    3.40
  -3 -10  16  209.09    8.35
   3 -10 -16  240.76    9.21
  -3 -10  15    6.15    1.79
   3 -10 -15   12.37    2.26
  -3 -10  14    4.43    1.66
   3 -10 -14    6.45    2.11
   3  10 -14    5.80    0.96
  -3 -10  13   67.05    4.04
   3 -10 -13   66.26    4.31
   3  10 -13   61.60    2.49
  -3 -10  13   66.09    1.91
   3 -10 -12  432.18   11.89
   3  10 -12  426.52    8.84
  -3 -10  12  438.96    8.38
  -3 -10  11    2.12    0.65
   3 -10 -11    2.87    1.51
   3  10 -11    2.32    0.83
  -3 -10  10  164.71    4.34
   3  10 -10  152.96    4.41
   3 -10 -10  151.00    6.08
  -3 -10   9   36.28    1.94
   3  10  -9   27.35    1.75
   3 -10  -9   31.47    2.78
  -3 -10   9   35.44    2.77
   3 -10  -8  496.84   12.37
  -3 -10   8  498.99   11.92
   3 -10  -7    5.42    1.49
   3 -10  -6 1291.88   24.66
  -3 -10   5   30.23    1.96
   3 -10  -5   27.43    2.47
   3 -10  -4   10.39    1.82
  -3 -10   4   12.97    1.43
  -3 -10   3   20.92    1.76
  -3  10   3   19.06    1.99
   3 -10  -3   20.11    2.19
  -3 -10   2  213.77    6.01
   3 -10  -2  217.84    6.85
  -3  10   2  231.05    6.96
  -3 -10   1    1.44    1.02
  -3  10   1    0.78    1.06
   3 -10  -1   -1.31    1.34
  -3  10   0   89.89    3.92
   3 -10   0   93.84    4.21
  -3 -10   0   95.10    3.92
  -3  10  -1   27.61    2.24
  -3 -10  -1   28.74    2.26
   3 -10   2    8.46    1.51
  -3  10  -2   12.83    1.67
   3 -10   3   41.20    2.73
  -3  10  -3   46.87    2.94
   3 -10   4  302.07    8.26
  -3  10  -4  316.71    8.43
   3 -10   5    1.62    1.19
  -3  10  -5    1.88    1.03
   3 -10   6 1530.06   27.71
  -3 -10  -6 1551.00   27.47
  -3  10  -6 1541.18   27.95
  -3 -10  -7   15.07    1.75
   3 -10   7   16.64    1.85
  -3  10  -7   15.05    1.81
  -3 -10  -8  339.00    9.13
  -3  10  -8  330.11    9.07
   3 -10   8  339.03    9.00
  -3 -10  -9    3.45    1.25
  -3  10  -9    3.20    1.14
   3 -10   9    2.20    1.27
  -3 -10 -10    6.25    1.52
  -3  10 -10    7.11    1.53
   3 -10  10    8.30    1.53
  -3 -10 -11   27.05    2.38
  -3  10 -11   26.17    2.43
   3 -10  11   30.13    2.70
  -3 -10 -12   18.86    2.17
   3 -10  12   13.21    2.11
  -3 -10 -13   13.40    1.96
   3 -10  13   10.30    1.81
  -3 -10 -14   89.60    4.71
   3 -10  14   86.47    4.35
  -3 -10 -15   35.01    3.15
   3 -10  15   34.00    2.70
   3 -10  16  111.82    4.92
  -3 -10 -16  107.30    5.64
  -3 -10 -17   61.91    4.38
  -3 -10 -18   82.70    5.21
   3 -10  18   76.78    5.53
   3 -10  19    4.00    2.28
  -3 -10 -19    3.94    1.77
  -3 -10 -20  132.60    6.99
  -3 -10 -21    0.33    1.72
  -3 -10 -22    1.12    1.86
   3 -11 -22    4.61    2.59
  -3 -11  21   -0.20    1.77
   3 -11 -21    1.42    1.89
   3 -11 -20    4.29    2.17
  -3 -11  20    0.84    1.81
   3 -11 -20    1.61    1.90
   3 -11 -19   19.88    3.03
   3 -11 -19   21.77    3.60
  -3 -11  19   14.92    2.61
   3 -11 -18   13.17    2.69
   3 -11 -18   13.47    2.86
  -3 -11  18   14.31    2.68
  -3 -11  17   69.91    4.86
   3 -11 -17   73.31    5.27
   3 -11 -17   72.89    5.09
  -3 -11  16   28.79    3.09
   3 -11 -16   27.64    3.21
  -3 -11  15  377.09   11.31
   3 -11 -15  396.69   12.00
  -3 -11  14    8.11    1.93
   3 -11 -14    6.68    1.99
   3 -11 -13    2.76    1.73
   3  11 -13    1.94    0.86
  -3 -11  13    3.56    0.76
   3 -11 -12   22.78    2.66
   3  11 -12   24.58    1.75
  -3 -11  12   26.07    1.59
   3  11 -11   97.34    3.49
   3 -11 -11   88.95    4.77
  -3 -11  11  105.18    3.41
  -3 -11  10   80.09    3.03
   3 -11 -10   72.85    4.35
  -3 -11   9  158.39    4.64
   3 -11  -9  151.77    6.34
  -3 -11   9  156.19    6.10
   3 -11  -8  144.49    6.03
   3 -11  -7  683.32   15.69
   3 -11  -6    7.20    1.63
  -3 -11   5  183.98    5.47
   3 -11  -5  190.95    6.72
  -3 -11   4   72.27    3.21
   3 -11  -4   71.23    3.96
  -3 -11   3  525.97   11.37
   3 -11  -3  539.47   12.69
  -3 -11   2    2.25    1.01
   3 -11  -2    2.34    1.32
  -3  11   2    3.82    1.24
   3 -11  -1  231.15    7.39
  -3  11   1  267.80    7.90
  -3 -11   1  221.61    6.53
  -3  11   0   19.01    2.01
  -3 -11   0   18.08    1.86
   3 -11   0   20.86    2.25
  -3  11  -1    9.76    1.54
  -3 -11  -1    8.29    1.57
   3 -11   1    9.13    1.76
  -3  11  -2  197.05    6.44
  -3 -11  -2  178.30    6.07
   3 -11   3   82.48    4.04
  -3  11  -3   91.37    4.23
   3 -11   4   56.36    3.34
  -3  11  -4   59.49    3.38
   3 -11   5  709.56   15.31
  -3  11  -5  734.74   15.62
   3 -11   6    7.25    1.43
  -3  11  -6    5.38    1.33
  -3 -11  -7  791.90   16.45
   3 -11   7  777.42   16.39
  -3  11  -7  779.05   16.64
  -3 -11  -8   67.37    3.79
  -3  11  -8   67.38    3.75
   3 -11   8   71.60    3.78
  -3 -11  -9   35.20    2.81
  -3  11  -9   31.28    2.66
   3 -11   9   35.45    2.81
  -3  11 -10   34.66    2.79
   3 -11  10   35.18    2.81
   3 -11  11    3.08    1.38
  -3 -11 -12   10.53    1.78
   3 -11  12    8.61    1.89
  -3 -11 -13    1.53    1.15
   3 -11  13    3.57    1.32
  -3 -11 -14   12.91    2.15
   3 -11  14   11.65    1.84
  -3 -11 -15  224.13    8.09
   3 -11  15  200.60    7.03
  -3 -11 -16    3.15    1.51
   3 -11  16    5.19    1.44
  -3 -11 -17   26.75    3.20
  -3 -11 -18    2.08    1.74
   3 -11  18    4.23    2.04
  -3 -11 -19  107.19    6.21
   3 -11  19  108.11    6.92
  -3 -11 -20    2.11    1.71
  -3 -11 -21    6.85    2.18
  -3 -12  21    6.25    2.12
   3 -12 -21   10.00    2.54
   3 -12 -20   20.13    3.47
  -3 -12  20   25.34    3.37
   3 -12 -20   24.62    3.56
   3 -12 -19    6.45    2.21
  -3 -12  19    2.22    1.75
   3 -12 -19    7.86    2.35
  -3 -12  18    1.86    1.83
   3 -12 -18    2.91    1.87
   3 -12 -18    3.79    2.19
  -3 -12  17   13.29    2.65
   3 -12 -17   16.44    3.00
  -3 -12  16  232.18    8.76
   3 -12 -16  247.54    9.44
  -3 -12  15   12.04    2.12
   3 -12 -15   15.42    2.55
   3 -12 -14  132.91    6.50
   3 -12 -13   10.52    2.06
   3  12 -13   12.00    1.38
  -3 -12  13   11.01    1.11
   3 -12 -12   18.37    2.54
   3  12 -12   18.38    1.59
  -3 -12  12   21.51    1.60
  -3 -12  11    4.14    1.03
   3 -12 -11    5.73    1.93
  -3 -12  10   57.57    2.72
   3 -12 -10   58.56    4.24
   3 -12  -9    0.45    1.60
   3 -12  -8  221.15    7.94
   3 -12  -7    1.90    1.64
  -3 -12   6  505.53   11.02
   3 -12  -6  498.19   12.77
   3 -12  -5    1.95    1.38
  -3 -12   5    1.71    0.89
   3 -12  -4   25.97    2.62
  -3 -12   4   27.67    2.16
  -3 -12   3    2.24    1.09
   3 -12  -3    1.82    1.36
   3 -12  -2  450.39   11.55
  -3  12   2  461.21   11.54
  -3 -12   2  449.40   10.57
  -3  12   1   14.43    1.97
  -3 -12   1   11.77    1.59
   3 -12  -1   11.13    1.80
  -3 -12   0    0.79    1.04
   3 -12   0    3.71    1.58
  -3  12   0    3.86    1.27
   3 -12   1   29.35    2.59
  -3  12  -1   33.87    2.70
  -3 -12  -1   33.35    2.65
  -3  12  -2  148.88    5.64
  -3 -12  -2  143.03    5.52
   3 -12   3   -0.35    1.25
  -3  12  -3    2.88    1.15
  -3 -12  -3    3.03    1.39
   3 -12   4    7.23    2.15
  -3 -12  -4    7.63    1.74
  -3  12  -4    7.28    1.46
   3 -12   5   52.37    3.37
  -3  12  -5   51.40    3.30
   3 -12   6  731.90   15.96
  -3  12  -6  750.49   16.24
  -3 -12  -7   13.55    1.87
   3 -12   7   12.67    1.84
  -3  12  -7   13.73    1.90
  -3 -12  -8  279.83    8.51
   3 -12   8  284.70    8.49
   3 -12   9   45.81    3.24
   3 -12  10    3.42    1.34
   3 -12  11   14.41    2.14
   3 -12  12   13.43    1.96
  -3 -12 -13   13.77    2.19
   3 -12  13   12.56    2.04
  -3 -12 -14   23.20    2.61
   3 -12  14   23.04    2.58
  -3 -12 -15    2.84    1.62
   3 -12  15    1.15    1.42
  -3 -12 -16  211.70    8.22
  -3 -12 -17    7.13    2.21
  -3 -12 -18   97.20    5.88
  -3 -12 -19    6.56    2.09
  -3 -12 -20   39.52    4.02
  -3 -12 -21   32.71    3.97
  -3 -13  21    0.39    1.88
  -3 -13  20    1.58    1.93
   3 -13 -19   36.82    4.33
  -3 -13  19   30.11    3.66
   3 -13 -19   30.27    3.51
   3 -13 -18    6.63    2.28
  -3 -13  18    0.73    1.71
   3 -13 -18    5.73    2.22
  -3 -13  17    1.35    1.55
   3 -13 -17   -0.84    1.70
  -3 -13  16    7.40    1.95
   3 -13 -16    8.63    2.29
  -3 -13  15   60.69    4.24
   3 -13 -15   64.92    4.79
   3 -13 -14    8.23    2.25
   3 -13 -13   13.97    2.44
  -3 -13  13   13.18    1.37
  -3 -13  12    9.94    1.28
   3 -13 -12   10.84    2.39
  -3 -13  11  192.77    5.60
   3 -13 -11  193.65    7.93
  -3 -13  10   56.62    2.85
   3 -13 -10   61.16    4.34
   3 -13  -9   54.49    4.11
   3 -13  -8    1.42    1.49
   3 -13  -7  327.93   10.10
   3 -13  -6    6.60    1.81
  -3 -13   5  283.92    7.74
   3 -13  -5  275.88    9.04
  -3 -13   4   83.43    3.87
   3 -13  -4   85.14    4.64
   3 -13  -3  107.85    5.20
  -3 -13   3   98.16    4.28
  -3 -13   2    0.58    1.14
   3 -13  -2    1.88    1.41
  -3 -13   1    8.99    1.55
   3 -13  -1    6.32    1.80
   3 -13   0    4.86    1.65
  -3 -13   0    4.09    1.41
  -3 -13  -1    0.64    1.24
   3 -13   1    2.32    1.43
  -3 -13  -2   11.64    1.92
   3 -13   3   38.98    3.03
  -3 -13  -3   39.52    3.12
   3 -13   4    5.51    1.59
  -3 -13  -4    4.46    1.63
   3 -13   5  211.67    7.22
  -3 -13  -5  207.55    7.42
   3 -13   6   45.22    3.29
  -3 -13  -7  345.09    9.65
   3 -13   7  339.19    9.70
   3 -13   8    6.77    1.72
   3 -13   9    6.43    1.69
   3 -13  10    3.79    1.42
   3 -13  11   13.21    2.08
   3 -13  12   15.54    2.27
  -3 -13 -13    0.51    1.31
   3 -13  13    1.82    1.52
  -3 -13 -14   62.49    4.27
   3 -13  14   64.51    4.06
  -3 -13 -15   70.26    4.57
   3 -13  15   71.10    4.27
  -3 -13 -16   33.82    3.37
  -3 -13 -17    5.56    2.06
  -3 -13 -18    4.48    2.12
  -3 -13 -19   12.87    2.54
  -3 -13 -20   -1.72    2.22
  -3 -14  20    1.13    1.84
  -3 -14  19    5.45    2.08
  -3 -14  18   36.22    3.85
   3 -14 -18   39.87    4.20
  -3 -14  17    0.75    1.71
   3 -14 -17    0.68    1.77
  -3 -14  16   11.91    2.37
   3 -14 -16   16.15    2.98
   3 -14 -15   28.73    3.55
   3 -14 -14   -2.51    2.14
   3 -14 -13   17.67    2.78
   3 -14 -12   91.44    5.66
  -3 -14  12   93.62    3.79
  -3 -14  11    3.01    1.00
   3 -14 -11    4.84    1.93
  -3 -14  10   18.97    1.88
   3 -14 -10   20.41    3.08
   3 -14  -9    4.28    1.81
   3 -14  -8    3.01    1.79
   3 -14  -7   14.33    2.34
   3 -14  -6  100.97    5.41
   3 -14  -5    6.72    1.84
  -3 -14   5    4.36    1.25
  -3 -14   4   10.31    1.68
   3 -14  -4    8.66    1.93
   3 -14  -3    0.74    1.53
  -3 -14   3   -0.22    1.13
  -3 -14   2   10.36    1.70
   3 -14  -2   10.05    2.09
  -3 -14   1   21.86    2.31
   3 -14  -1   21.40    2.59
  -3 -14   0  172.16    6.35
   3 -14   0  172.25    6.78
  -3 -14  -1   11.97    1.91
  -3 -14  -2   -0.05    1.28
   3 -14   3    1.70    1.56
  -3 -14  -3    2.42    1.45
   3 -14   4    3.81    1.49
  -3 -14  -4    4.98    1.77
   3 -14   5    4.04    1.56
  -3 -14  -5    2.02    1.48
   3 -14   6   97.13    4.89
  -3 -14  -6   97.32    5.22
   3 -14   7    2.48    1.39
  -3 -14  -7    0.33    1.58
   3 -14   8    8.45    1.84
  -3 -14  -8    6.08    1.73
   3 -14   9   46.87    3.50
   3 -14  10   -0.25    1.50
   3 -14  11   13.07    2.07
   3 -14  12   90.14    4.92
   3 -14  13  116.33    5.78
  -3 -14 -14    5.02    1.66
   3 -14  14    3.63    1.43
  -3 -14 -15   40.65    3.61
  -3 -14 -16    6.10    1.87
  -3 -14 -17   27.93    3.35
  -3 -14 -18   31.30    3.53
  -3 -14 -19   14.09    2.82
  -3 -15  19   33.63    3.65
  -3 -15  18   -1.05    1.68
   3 -15 -17   62.77    5.27
  -3 -15  17   53.39    4.46
   3 -15 -16    4.76    2.27
  -3 -15  16    2.12    1.75
   3 -15 -15   20.42    3.13
   3 -15 -14   98.32    6.19
   3 -15 -13   90.77    5.85
   3 -15 -12   -0.51    1.73
  -3 -15  11   18.26    1.86
   3 -15 -11   13.86    2.78
  -3 -15  10   33.67    2.49
   3 -15 -10   29.74    3.37
   3 -15  -9   59.04    4.48
   3 -15  -8   12.20    2.49
   3 -15  -7    2.88    1.84
   3 -15  -6    0.56    1.68
  -3 -15   5   22.24    2.31
   3 -15  -5   26.95    3.08
  -3 -15   4    0.58    1.19
   3 -15  -4    0.56    1.71
   3 -15  -3   64.25    4.31
  -3 -15   3   58.80    3.65
  -3 -15   2    4.79    1.54
   3 -15  -2    4.48    1.82
   3 -15  -1  196.98    7.57
  -3 -15   1  190.51    6.91
  -3 -15   0   18.57    2.40
   3 -15   0   19.59    2.72
  -3 -15  -1  222.35    7.72
  -3 -15  -2   16.53    2.30
   3 -15   3   11.20    2.10
  -3 -15  -3    7.26    1.95
   3 -15   4   22.85    2.64
  -3 -15  -4   19.29    2.56
   3 -15   5   -2.56    1.67
  -3 -15  -5    0.57    1.58
   3 -15   6   46.33    3.54
  -3 -15  -6   44.26    3.73
   3 -15   7   26.85    2.80
  -3 -15  -7   27.39    3.18
   3 -15   8   -0.08    1.26
  -3 -15  -8    0.89    1.58
  -3 -15  -9   76.61    5.08
   3 -15   9   78.97    4.65
  -3 -15 -10   39.59    3.76
   3 -15  10   44.52    3.54
  -3 -15 -11   12.17    2.38
   3 -15  11   14.17    2.13
   3 -15  12    7.35    1.71
   3 -15  13  155.58    6.87
  -3 -15 -14   21.66    2.77
  -3 -15 -15    3.52    1.70
  -3 -15 -16    2.19    1.61
  -3 -15 -17   48.02    4.14
  -3 -16  19   -0.94    2.20
  -3 -16  18   75.64    5.32
  -3 -16  17   -0.19    1.62
  -3 -16  16   83.69    5.44
   3 -16 -15    9.83    2.70
   3 -16 -14  101.15    6.46
   3 -16 -13   -2.44    2.23
   3 -16 -12  166.65    8.08
  -3 -16  11    7.34    1.39
   3 -16 -11    9.26    2.38
  -3 -16  10   12.22    1.73
   3 -16 -10    7.64    2.26
   3 -16  -9   12.87    2.49
   3 -16  -8   94.98    5.79
   3 -16  -7    0.40    1.73
   3 -16  -6   53.16    4.27
  -3 -16   5  116.28    5.19
   3 -16  -5  105.88    5.79
   3 -16  -4    3.66    1.82
  -3 -16   4    5.01    1.60
  -3 -16   3   21.81    2.52
   3 -16  -3   19.67    2.71
   3 -16  -2  285.36    9.81
  -3 -16   2  285.12    8.93
  -3 -16   1    4.94    1.49
   3 -16  -1    4.14    1.71
  -3 -16   0  934.65   20.19
   3 -16   0  949.38   21.03
  -3 -16  -1    7.88    1.87
  -3 -16  -2  146.93    6.45
   3 -16   3    1.05    1.43
  -3 -16  -3   -0.36    1.53
   3 -16   4    9.25    1.97
  -3 -16  -4    4.81    1.74
   3 -16   5    8.72    2.00
  -3 -16  -5    7.32    2.01
   3 -16   6    5.16    1.81
  -3 -16  -6    2.96    1.59
   3 -16   7   30.47    3.08
  -3 -16  -7   33.74    3.68
   3 -16   8   65.69    4.35
  -3 -16  -8   64.53    4.77
   3 -16   9    1.01    1.41
  -3 -16  -9    3.16    2.07
  -3 -16 -10   79.99    5.46
   3 -16  10   86.24    5.00
  -3 -16 -11   15.98    2.85
   3 -16  11   14.93    2.27
  -3 -16 -12  119.01    6.80
   3 -16  12  137.89    6.45
  -3 -16 -13   10.53    2.44
   3 -16  13   13.10    2.33
  -3 -16 -14  116.69    6.93
  -3 -16 -14  120.89    6.27
  -3 -16 -15    2.40    1.87
  -3 -16 -16   11.09    2.39
  -3 -17  17   78.89    5.48
   3 -17 -14    7.41    2.60
   3 -17 -13   61.46    5.14
   3 -17 -12    0.24    1.74
   3 -17 -11    3.19    2.09
  -3 -17  10   39.46    2.96
   3 -17 -10   43.33    4.23
  -3 -17   9  301.64    8.97
   3 -17  -9  305.87   11.13
   3 -17  -8   18.27    3.00
   3 -17  -7   22.10    3.06
   3 -17  -6    3.55    2.03
  -3 -17   5    1.18    1.33
   3 -17  -5    0.00    1.73
  -3 -17   4   39.55    3.17
   3 -17  -4   38.21    3.68
   3 -17  -3   -1.28    1.58
  -3 -17   3   -0.84    1.39
   3 -17  -2  120.82    6.31
  -3 -17   2  122.65    5.76
   3 -17  -1  578.03   15.38
  -3 -17   1  571.46   14.44
  -3 -17   0   -1.08    1.54
   3 -17   0    2.32    1.71
  -3 -17  -1  232.62    8.44
  -3 -17  -2   19.50    2.64
   3 -17   3    0.18    1.61
  -3 -17  -3    3.16    1.83
   3 -17   4    2.71    1.72
  -3 -17  -4   -2.64    1.88
   3 -17   5   12.83    2.34
  -3 -17  -5   10.49    2.02
   3 -17   6    5.40    1.73
  -3 -17  -6   -0.25    1.53
   3 -17   7   26.54    3.06
  -3 -17  -7   21.21    2.95
   3 -17   8    3.70    1.56
  -3 -17  -8    4.20    2.08
  -3 -17  -9  193.91    8.83
   3 -17   9  189.55    7.78
   3 -17  10    2.34    1.65
  -3 -17 -10    2.76    1.94
  -3 -17 -11    0.93    1.86
   3 -17  11    4.63    1.68
  -3 -17 -12   14.44    2.89
   3 -17  12   12.14    2.25
   3 -18 -12  125.25    7.37
   3 -18 -11    3.19    2.22
   3 -18 -10   21.23    3.23
  -3 -18   9    1.46    1.31
   3 -18  -9    3.11    2.06
   3 -18  -8  141.40    7.46
   3 -18  -7    1.16    1.79
   3 -18  -6   18.04    2.73
   3 -18  -5    9.84    2.15
  -3 -18   5   10.66    1.98
  -3 -18   4    4.65    1.64
   3 -18  -4    3.38    1.92
   3 -18  -3    0.35    1.68
  -3 -18   3    0.70    1.52
   3 -18  -2   33.58    3.54
  -3 -18   2   31.75    3.16
   3 -18  -1   26.27    3.19
  -3 -18   1   25.83    2.99
  -3 -18   0  419.92   12.35
  -3 -18  -1    0.35    1.56
   3 -18   2   64.83    4.63
  -3 -18  -2   60.76    4.43
   3 -18   3   -0.69    1.62
  -3 -18  -3    0.84    1.66
   3 -18   4    8.26    2.12
  -3 -18  -4    7.44    1.94
   3 -18   5   -2.68    1.84
  -3 -18  -5    3.45    2.01
   3 -18   6   25.23    3.10
  -3 -18  -6   23.94    3.11
   3 -18   7   25.47    3.03
  -3 -18  -7   24.34    3.18
   3 -18   8   57.01    4.65
  -3 -18  -8   66.83    4.98
   3 -18   9   17.88    2.74
  -3 -18  -9   13.18    2.62
  -3 -18 -10   70.64    5.35
   3 -18  10   75.60    4.99
  -3 -18 -11   12.56    2.69
   3 -18  11   16.49    2.57
   3 -19 -10    3.50    2.27
   3 -19  -9   25.18    3.50
   3 -19  -8    8.45    2.27
   3 -19  -7    3.34    2.28
   3 -19  -6    2.34    1.89
   3 -19  -5   26.67    3.46
  -3 -19   4    8.57    2.01
   3 -19  -4   11.28    2.54
   3 -19  -3   -2.46    2.06
  -3 -19   3    0.06    1.48
   3 -19  -2    3.47    2.01
  -3 -19   2    1.94    1.47
   3 -19  -1  106.03    6.21
  -3 -19   1  112.22    5.89
  -3 -19   0   -0.43    1.70
  -3 -19  -1   68.93    4.91
   3 -19   2   -0.04    1.68
  -3 -19  -2   -2.53    1.72
   3 -19   3    4.02    2.01
  -3 -19  -3    5.86    1.75
   3 -19   4   10.42    2.36
  -3 -19  -4    4.30    2.06
   3 -19   5    2.24    1.64
  -3 -19  -5    4.27    2.03
   3 -19   6    0.16    1.59
  -3 -19  -6    1.95    1.92
   3 -19   7    9.30    2.25
  -3 -19  -7    6.62    2.25
   3 -19   8   42.99    3.98
  -3 -19  -8   45.09    4.27
  -3 -19  -9   43.98    4.23
   3 -19   9   52.19    4.41
   3 -19  10   -1.05    1.73
   3 -19  11    3.59    1.87
   3 -20  -7   30.28    3.87
   3 -20  -6   78.19    5.79
   3 -20  -5    3.36    2.21
  -3 -20   4   10.54    2.24
   3 -20  -4   10.52    2.44
   3 -20  -3   -2.58    1.98
  -3 -20   3    2.57    2.02
  -3 -20   2   11.48    2.46
   3 -20  -2    8.16    2.42
   3 -20  -1   -3.92    2.04
  -3 -20   1   -1.86    1.73
  -3 -20   0   44.00    4.03
  -3 -20  -1    4.47    2.00
   3 -20   2    0.38    1.65
  -3 -20  -2    1.63    1.63
   3 -20   3    5.64    2.04
  -3 -20  -3    5.04    1.93
   3 -20   4    3.00    1.93
  -3 -20  -4   -2.51    2.01
   3 -20   5    0.34    1.78
  -3 -20  -5   -0.14    2.18
   3 -20   6   69.39    5.15
  -3 -20  -6   70.74    5.37
   3 -20   7   22.99    3.22
  -3 -20  -7   32.00    3.80
   3 -20   8   10.16    2.27
   3 -20   9    6.74    2.16
   3 -20  10    4.29    2.03
   3 -21  -3    1.82    2.20
  -3 -21   3    2.75    1.89
   3 -21  -2    2.99    1.81
  -3 -21   2    6.12    2.03
  -3 -21   1    3.34    1.97
  -3 -21   0    3.90    2.16
   3 -21   1    6.39    2.25
  -3 -21  -1    4.08    2.02
   3 -21   2    9.40    2.44
  -3 -21  -2    9.95    2.56
   3 -21   3    1.12    1.82
  -3 -21  -3    2.21    2.23
   3 -21   4   12.02    2.73
  -3 -21  -4   12.72    2.79
   3 -21   5   64.43    5.18
  -3 -21  -5   72.99    5.59
   3 -21   6    0.14    1.68
   3 -21   7  147.72    7.59
   3 -21   8    6.79    2.26
   3 -21   9    8.69    2.44
  -3 -22   3    0.46    1.73
  -3 -22   2   75.45    5.30
  -3 -22   1    2.08    1.94
  -3 -22   0    3.10    1.75
  -3 -22  -1   -5.08    2.26
  -3 -22  -2    2.49    2.28
   3 -22   3    9.56    2.69
   3 -22   4    8.77    2.35
   3 -22   5   11.03    2.85
   3 -22   6  171.28    8.47
   3 -22   7    3.02    1.80
  -3 -23   2   10.64    2.76
  -3 -23   1   40.43    4.29
   4   0 -23    3.03    2.41
   4   0 -22  124.19    7.37
   4   0 -21    3.88    2.01
   4   0 -20   80.84    5.53
   4   0 -19    0.52    1.60
   4   0 -18  211.28    8.48
   4   0 -18  197.41    5.06
   4   0 -17   -0.14    1.72
   4   0 -17    0.79    0.69
   4   0 -16   90.63    2.95
   4   0 -16   86.14    5.08
   4   0 -15    1.66    0.70
   4   0 -15    2.39    1.38
   4   0 -14 1459.64   28.38
   4   0 -14 1484.21   28.00
   4   0 -13   31.01    2.84
   4   0 -13   25.84    2.44
   4   0 -12  105.02    4.85
   4   0 -12  109.05    4.65
   4   0 -11    4.53    1.33
   4   0 -11    4.36    1.15
   4   0 -10  439.44   10.24
   4   0 -10  440.05    8.48
   4   0 -10  437.34   10.54
   4   0  -9    1.23    0.64
   4   0  -9    1.51    0.98
   4   0  -9    0.46    0.97
   4   0  -8  775.79   13.07
   4   0  -8  839.91   15.10
   4   0  -8  763.20   13.17
   4   0  -8  820.31   15.47
   4   0  -7    0.74    0.66
   4   0  -7   -1.29    0.58
   4   0  -7    0.33    0.52
   4   0  -7    0.08    0.84
   4   0  -6 1823.31   29.07
   4   0  -6 1874.92   30.23
   4   0  -6 1847.98   28.92
   4   0  -6 1892.94   30.76
   4   0  -5    0.17    0.64
   4   0  -5    1.80    0.70
   4   0  -5   -0.36    0.52
  -4   0   5    1.47    0.58
  -4   0   4  744.27   12.74
  -4   0   4  741.99   12.40
   4   0  -4  779.21   12.85
  -4   0   3    1.80    0.73
   4   0  -3    1.47    0.85
  -4   0   2   15.49    1.21
   4   0  -2   16.85    1.42
  -4   0   1    0.38    0.75
   4   0  -1    0.61    1.05
   4   0   0 1361.11   22.68
  -4   0   0 1357.38   22.74
   4   0   1    9.23    1.37
  -4   0  -1   11.08    1.38
  -4   0  -2 2947.19   46.25
   4   0   2 2844.57   45.98
  -4   0  -3    9.18    1.31
   4   0   3    8.68    1.40
   4   0   4 1563.93   26.52
  -4   0  -4 1580.34   26.76
   4   0   5    0.31    0.69
  -4   0  -5    0.77    0.91
   4   0   5    2.53    1.27
   4   0   6 2480.26   40.27
   4   0   6 2502.18   40.88
  -4   0  -6 2531.48   41.20
   4   0   7   14.15    1.46
   4   0   7   14.79    1.66
   4   0   7   14.19    1.69
  -4   0  -7   13.40    1.59
   4   0   8   12.19    1.39
   4   0   8   13.81    1.68
  -4   0  -8   11.84    1.57
   4   0   9    1.35    1.16
   4   0   9    0.12    0.79
  -4   0  -9    0.40    0.92
   4   0  10  860.74   17.07
   4   0  10  852.45   17.53
  -4   0 -10  866.26   17.29
   4   0  11   -1.13    1.09
   4   0  11   -2.25    1.48
  -4   0 -11   -0.80    1.04
   4   0  12  706.43   15.43
   4   0  12  694.83   15.90
  -4   0 -12  721.65   15.50
   4   0  13   10.80    1.69
   4   0  13    8.02    1.87
  -4   0 -13    9.77    1.71
   4   0  14  153.38    6.57
  -4   0 -14  155.66    6.07
   4   0  15    3.60    1.94
  -4   0 -15    0.91    1.26
   4   0  16  254.65    9.32
  -4   0 -16  242.61    8.32
   4   0  17    4.84    1.92
   4   0  18  232.10    9.34
   4   0  19   15.10    3.11
   4   0  20    2.83    1.88
   4   0  21    3.56    2.42
   4  -1 -23  131.83    7.76
   4   1 -23  137.27    7.88
   4  -1 -22   47.36    4.49
   4   1 -22   45.52    4.48
   4   1 -21   85.53    5.92
   4  -1 -21   77.83    5.62
   4  -1 -20    6.70    2.25
   4   1 -20    4.74    1.99
   4   1 -19  479.24   14.23
   4  -1 -19  473.11   14.16
   4   1 -18    3.04    1.54
   4  -1 -18    7.46    2.23
  -4  -1  18    2.93    1.57
   4   1 -18    5.79    0.75
   4  -1 -18    4.23    1.00
  -4  -1  17   45.76    3.71
   4   1 -17   46.17    3.80
   4  -1 -17   44.67    3.92
   4  -1 -17   43.27    2.24
   4   1 -17   40.83    1.66
   4  -1 -16    0.66    1.41
   4   1 -16   -0.21    1.47
  -4  -1  16    0.83    1.33
   4   1 -16    0.68    0.53
   4  -1 -15  527.62   13.52
   4   1 -15  510.79   13.37
  -4  -1  15  514.87   12.86
   4   1 -15  501.90    9.01
  -4  -1  14   90.44    4.56
   4  -1 -14   86.75    4.71
   4   1 -14   88.78    4.72
   4   1 -14   90.17    2.43
   4  -1 -13    2.12    1.18
   4   1 -13    3.84    1.56
   4  -1 -13    3.83    1.49
   4   1 -13    2.00    0.99
  -4  -1  13    3.41    1.27
   4   1 -13    1.97    0.51
   4   1 -12    1.05    0.46
  -4  -1  12   -0.05    1.10
   4  -1 -12    1.27    1.17
   4   1 -12    1.07    1.10
   4  -1 -12   -0.20    1.30
   4   1 -12    1.07    1.07
   4   1 -11   16.56    0.83
  -4  -1  11   16.37    1.87
   4   1 -11   19.67    2.15
   4  -1 -11   20.07    2.15
   4   1 -11   18.26    1.96
   4  -1 -11   19.42    2.10
  -4  -1  10   99.84    4.00
   4   1 -10  103.66    2.37
   4  -1 -10  107.73    4.30
   4  -1 -10  109.51    3.40
   4   1 -10  109.65    4.47
   4   1 -10  108.40    4.21
   4  -1 -10  104.47    4.48
   4   1  -9    4.41    0.53
  -4  -1   9    5.53    1.20
   4  -1  -9    4.63    1.10
   4  -1  -9    6.16    1.41
   4   1  -9    5.11    1.06
   4   1  -9    3.47    1.15
   4  -1  -9    5.18    1.00
   4   1  -9    3.47    0.68
  -4  -1   8   11.30    1.35
   4  -1  -8   13.84    1.47
   4   1  -8   12.72    1.40
   4   1  -8   12.71    1.16
   4  -1  -8   13.92    1.61
   4   1  -8   13.51    0.87
   4  -1  -8   14.03    1.16
   4   1  -8   14.82    0.78
   4   1  -7 1910.42   31.22
   4  -1  -7 1917.18   31.60
   4   1  -7 1900.15   31.77
   4  -1  -7 1905.61   30.29
   4   1  -7 1876.06   29.32
   4   1  -7 1915.93   29.46
   4  -1  -6   19.48    1.42
   4  -1  -6   19.07    1.20
   4   1  -6   22.79    1.47
   4   1  -6   19.49    1.54
   4  -1  -6   21.44    1.31
   4   1  -6   19.62    0.98
  -4  -1   5 1389.81   22.39
   4   1  -5 1449.90   23.19
   4  -1  -5 1434.76   22.97
   4   1  -5 1478.57   23.82
   4  -1  -5 1418.39   22.81
  -4   1   5 1480.22   22.95
  -4  -1   5 1376.97   21.92
   4   1  -5 1433.52   22.68
   4  -1  -4   13.07    1.15
   4   1  -4   14.16    1.03
   4   1  -4   17.01    1.33
  -4   1   4   15.20    1.09
  -4  -1   4   16.43    0.76
   4   1  -4   14.56    1.12
  -4  -1   4   16.30    1.04
  -4   1   3  215.92    4.84
  -4   1   3  222.25    4.69
   4  -1  -3  233.24    5.03
   4   1  -3  211.75    4.72
  -4  -1   3  210.39    4.69
  -4   1   2  109.21    3.13
  -4  -1   2  103.96    3.07
   4  -1  -2  114.25    3.22
   4   1  -2   93.60    2.89
  -4   1   1   23.34    1.52
   4   1  -1   24.90    1.61
  -4  -1   1   23.17    1.50
   4  -1  -1   24.82    1.67
   4   1   0   25.08    1.65
  -4   1   0   24.41    1.61
   4  -1   0   25.61    1.86
  -4  -1   0   23.73    1.59
   4   1   1    1.74    1.05
   4  -1   1    2.55    1.32
  -4  -1  -1    3.10    0.96
  -4   1  -1    3.21    0.97
  -4  -1  -2    5.16    1.07
   4  -1   2    4.16    1.37
  -4   1  -2    4.96    1.08
   4   1   2    3.98    1.23
   4   1   3 1932.29   30.46
   4   1   3 1968.70   31.99
  -4  -1  -3 2019.95   32.08
  -4   1  -3 1919.49   32.16
   4  -1   3 1889.32   32.03
   4   1   4   14.46    1.05
   4   1   4   14.73    1.64
   4  -1   4   12.06    1.54
  -4  -1  -4   15.17    1.44
  -4   1  -4   14.78    1.56
   4   1   5   81.70    3.04
   4   1   5   77.12    2.67
  -4  -1  -5   82.53    3.32
   4  -1   5   77.05    3.26
  -4   1  -5   84.87    3.53
   4   1   6  231.54    5.56
   4  -1   6  230.86    5.92
   4   1   6  235.94    6.03
   4  -1   6  219.23    6.10
  -4   1  -6  224.03    6.38
  -4  -1  -6  236.95    6.27
   4   1   7 2370.66   38.26
   4  -1   7 2382.94   38.72
   4   1   7 2337.26   38.89
   4  -1   7 2333.05   38.92
  -4  -1  -7 2409.94   39.17
  -4   1  -7 2281.27   39.26
   4   1   8   73.07    3.40
   4  -1   8   72.27    3.24
   4   1   8   71.03    3.07
   4  -1   8   67.93    3.26
  -4   1  -8   66.08    3.34
  -4  -1  -8   72.35    3.37
   4   1   9  167.38    5.63
   4  -1   9  171.66    5.52
   4  -1   9  168.99    5.76
   4   1   9  155.60    5.09
   4  -1   9  161.94    5.29
  -4   1  -9  165.54    5.62
  -4  -1  -9  173.14    5.60
   4  -1  10  156.45    5.48
   4  -1  10  164.91    5.84
   4   1  10  155.96    5.30
   4   1  10  151.28    5.62
  -4  -1 -10  154.60    5.45
  -4   1 -10  156.89    5.58
   4  -1  11 1021.51   20.66
   4   1  11 1028.93   20.00
   4  -1  11 1041.82   20.38
   4   1  11 1039.97   20.62
  -4   1 -11 1011.31   20.26
  -4  -1 -11 1038.39   20.17
   4  -1  12    2.51    1.18
   4   1  12    2.07    1.23
   4  -1  12    1.52    1.39
   4   1  12    1.40    1.34
  -4  -1 -12    4.02    1.38
  -4   1 -12    1.63    1.13
   4  -1  13  303.18    8.98
   4   1  13  288.91    8.65
   4   1  13  288.50    9.09
   4  -1  13  290.51    9.10
  -4  -1 -13  282.69    8.43
  -4   1 -13  275.35    8.51
   4  -1  14   34.15    3.24
   4   1  14   32.75    3.05
  -4   1 -14   32.30    2.81
  -4  -1 -14   34.59    2.84
   4   1  15  222.66    8.27
   4  -1  15  215.83    8.21
  -4   1 -15  220.75    7.77
  -4  -1 -15  210.87    7.43
   4   1  16   42.41    3.77
   4  -1  16   45.79    3.88
  -4   1 -16   44.97    3.50
   4  -1  17  101.68    5.94
   4   1  17   97.18    5.76
  -4   1 -17   95.78    5.16
   4  -1  18   22.47    3.24
   4   1  18   20.35    3.11
   4   1  19   37.27    3.86
   4  -1  19   35.33    3.84
   4  -1  20    1.42    1.87
   4   1  20    0.13    1.85
   4   1  21    6.00    2.49
   4  -1  21    2.26    2.20
   4   1  22    1.56    2.15
   4  -2 -23   11.90    2.77
   4  -2 -22   38.91    4.13
  -4  -2  21   89.58    5.77
   4  -2 -21   98.99    6.45
   4   2 -21   98.43    6.43
  -4  -2  20   81.80    5.29
   4   2 -20   86.20    5.75
   4  -2 -20   85.29    5.56
  -4  -2  19   -0.39    1.57
   4   2 -19   -2.79    1.99
   4  -2 -19    1.04    1.85
  -4  -2  18  187.88    7.71
   4  -2 -18  187.29    8.13
   4   2 -18  186.31    8.08
  -4  -2  17    6.21    1.82
   4  -2 -17    5.32    1.70
   4   2 -17    4.61    1.72
  -4  -2  16    0.54    1.40
   4   2 -16    1.86    1.43
   4  -2 -16    3.80    1.73
  -4  -2  15  218.05    7.58
   4  -2 -15  223.20    8.10
   4   2 -15  217.32    7.97
  -4  -2  14   43.57    3.19
   4   2 -14   45.99    3.37
   4  -2 -14   32.00    2.94
  -4  -2  13  160.85    5.91
   4  -2 -13  168.81    6.30
   4   2 -13  158.00    6.24
   4  -2 -13  162.87    6.37
  -4  -2  12   99.70    4.38
   4  -2 -12  103.81    4.67
   4  -2 -12  102.18    3.73
   4  -2 -12  101.52    4.84
   4   2 -12   98.69    4.63
   4  -2 -11   61.72    3.39
  -4  -2  11   55.12    3.07
   4  -2 -11   61.09    2.75
   4  -2 -11   62.06    3.57
   4   2 -11   63.50    3.51
   4  -2 -10    9.00    1.49
  -4  -2  10    8.04    1.34
   4  -2 -10    7.21    1.11
   4   2 -10   11.24    1.70
   4  -2 -10    7.06    1.50
  -4  -2   9  130.98    4.44
   4  -2  -9  134.33    4.73
   4  -2  -9  131.72    3.97
   4   2  -9  130.95    2.82
   4   2  -9  130.72    4.37
   4   2  -9  133.62    4.78
  -4  -2   8  772.27   14.45
   4  -2  -8  796.19   15.18
   4  -2  -8  746.45   13.71
   4   2  -8  775.17   12.20
   4   2  -8  781.86   15.12
   4   2  -8  775.88   14.47
   4  -2  -7  167.63    4.93
  -4  -2   7  163.88    4.51
   4  -2  -7  173.15    4.39
   4   2  -7  163.36    4.49
   4   2  -7  166.60    4.92
  -4  -2   6 2219.83   35.80
  -4  -2   6 2220.93   34.42
   4   2  -6 2233.45   35.88
   4   2  -6 2282.21   36.59
   4   2  -6 2278.41   34.48
   4  -2  -6 2275.80   35.81
   4   2  -5   38.22    1.68
   4  -2  -5   36.64    1.81
  -4  -2   5   36.77    1.65
   4   2  -5   40.63    2.02
   4   2  -5   38.86    1.37
   4  -2  -5   37.85    1.83
  -4   2   5   41.85    1.95
  -4  -2   5   36.40    1.32
   4   2  -4  616.37   10.69
   4  -2  -4  645.19   11.39
   4   2  -4  640.21   11.35
   4   2  -4  645.40   10.70
  -4   2   4  631.27   11.26
   4  -2  -4  642.66   11.27
  -4  -2   4  586.35   10.70
   4   2  -3   10.83    0.75
   4  -2  -3   11.06    1.23
   4   2  -3   10.52    0.95
  -4   2   3   11.58    1.10
   4   2  -3   11.07    1.02
  -4  -2   3   11.78    1.02
   4  -2  -2  119.48    3.48
  -4   2   2  119.58    3.39
   4   2  -2  113.62    2.74
  -4   2   2  121.44    3.35
   4   2  -2  118.44    3.18
  -4  -2   2  115.68    3.20
  -4   2   1   46.55    2.09
   4   2  -1   41.27    1.22
   4   2  -1   45.61    2.01
  -4  -2   1   44.52    1.93
   4  -2  -1   43.20    2.13
  -4   2   0  384.40    7.86
   4   2   0  372.82    7.62
  -4  -2   0  375.82    7.66
   4  -2   0  376.21    7.89
   4   2   1   55.88    1.65
   4  -2   1   65.42    2.71
  -4  -2  -1   59.91    2.47
  -4   2  -1   59.14    2.54
   4   2   2    0.70    0.65
   4   2   2    1.49    0.39
  -4   2  -2    1.53    0.94
  -4  -2  -2    1.12    0.87
   4  -2   2   -0.07    1.21
   4   2   3   91.60    2.78
   4   2   3   85.53    2.29
  -4  -2  -3   98.37    3.38
  -4   2  -3   89.39    3.36
   4  -2   3   99.53    3.70
   4   2   4   30.76    1.75
   4   2   4   28.21    1.37
  -4  -2  -4   32.62    2.04
  -4   2  -4   30.20    2.00
   4  -2   4   31.79    2.25
   4   2   5   68.28    2.78
   4   2   5   66.47    2.36
  -4  -2  -5   70.33    3.08
  -4   2  -5   65.59    3.02
   4  -2   5   70.05    3.11
   4   2   6  460.43    9.59
   4   2   6  451.45    8.94
  -4  -2  -6  463.64    9.96
   4  -2   6  410.79    9.67
  -4   2  -6  439.51    9.91
   4   2   7  173.14    5.24
  -4  -2  -7  170.32    4.68
   4  -2   7  177.61    5.33
   4   2   7  168.77    4.74
  -4  -2  -7  177.16    5.41
   4  -2   7  153.81    5.10
  -4   2  -7  166.50    5.37
   4   2   8  244.62    6.79
   4   2   8  240.72    6.29
  -4  -2  -8  240.61    6.18
   4  -2   8  245.76    6.81
  -4  -2  -8  243.73    6.81
   4  -2   8  234.85    6.61
  -4   2  -8  243.19    6.88
   4   2   9    5.46    1.12
   4  -2   9    6.13    1.26
  -4  -2  -9    6.69    1.27
   4   2   9    5.77    1.48
  -4   2  -9    5.70    1.36
  -4  -2  -9    6.58    1.27
   4  -2   9    6.60    1.30
   4   2  10  330.81    8.94
  -4  -2 -10  333.57    8.28
   4   2  10  332.53    8.42
   4  -2  10  334.86    8.88
   4  -2  10  322.71    8.34
  -4   2 -10  323.63    8.73
  -4  -2 -10  333.97    8.72
   4   2  11   29.37    2.57
   4  -2  11   32.61    2.57
  -4  -2 -11   32.23    2.49
   4   2  11   33.45    2.48
   4  -2  11   31.95    2.69
   4  -2  11   27.98    2.32
  -4  -2 -11   32.80    2.57
  -4   2 -11   29.86    2.41
   4  -2  12  730.67   16.53
   4  -2  12  766.89   16.39
   4   2  12  735.40   16.36
  -4   2 -12  721.90   15.82
  -4  -2 -12  735.58   15.88
   4  -2  13    5.17    1.72
   4  -2  13    6.75    1.70
   4   2  13    1.69    1.27
  -4   2 -13    7.46    1.54
  -4  -2 -13    4.11    1.36
   4  -2  14   25.42    2.93
   4   2  14   22.13    2.58
  -4  -2 -14   26.49    2.51
  -4   2 -14   25.40    2.53
   4  -2  15  241.83    8.83
   4   2  15  248.89    8.82
  -4   2 -15  235.83    7.98
  -4  -2 -15  253.27    8.23
   4  -2  16   19.79    2.85
   4   2  16   19.49    2.65
  -4   2 -16   19.76    2.36
   4  -2  17  135.54    6.89
   4   2  17  124.48    6.46
  -4   2 -17  121.53    5.69
   4  -2  18   62.08    4.87
   4   2  18   56.19    4.62
   4  -2  19  110.98    6.66
   4   2  19  111.14    6.59
   4   2  20    8.22    2.65
   4  -2  20   10.43    2.78
   4  -2  21    3.90    2.02
   4   2  21    2.36    2.04
  -4  -3  23    1.73    1.82
  -4  -3  22   31.09    3.72
   4  -3 -22   31.31    2.91
   4  -3 -22   30.56    3.81
  -4  -3  21   34.12    3.69
   4  -3 -21   36.69    3.05
   4  -3 -21   32.57    3.74
  -4  -3  20   20.63    2.98
   4  -3 -20   16.79    2.79
  -4  -3  19  127.07    6.57
   4  -3 -19  138.07    7.04
  -4  -3  18   14.33    2.40
   4  -3 -18   14.65    2.63
   4   3 -18   15.08    2.71
  -4  -3  17    6.64    1.75
   4   3 -17    6.03    1.92
   4  -3 -17    3.80    1.63
  -4  -3  16    2.71    1.54
   4   3 -16   -1.23    1.66
   4  -3 -16   -0.42    1.45
  -4  -3  15   27.63    2.65
   4   3 -15   28.93    2.90
   4  -3 -15   30.60    3.00
  -4  -3  14   32.91    2.82
   4   3 -14   42.40    3.28
   4  -3 -14   37.14    3.23
   4  -3 -13  472.77   12.05
  -4  -3  13  442.91   11.23
   4  -3 -13  468.36   10.47
   4   3 -13  472.55   12.04
   4  -3 -13  472.34   12.19
   4  -3 -12  134.57    5.49
  -4  -3  12  126.18    4.97
   4  -3 -12  135.52    4.62
   4   3 -12  138.43    5.50
  -4  -3  12  135.45    5.39
   4  -3 -12  132.17    5.55
   4  -3 -11  344.76    9.21
  -4  -3  11  334.42    8.56
   4  -3 -11  342.70    8.12
   4  -3 -11  336.39    9.33
  -4  -3  11  340.16    9.08
   4   3 -11  329.01    9.04
  -4  -3  10    1.88    1.07
   4  -3 -10    2.91    1.23
   4  -3 -10    2.07    1.06
   4   3 -10    1.15    1.03
  -4  -3  10    3.58    1.24
  -4  -3   9  448.76    9.84
   4  -3  -9  482.20   10.76
   4  -3  -9  461.03    9.67
   4   3  -9  455.03   10.49
  -4  -3   9  459.82   10.49
  -4  -3   8  200.54    5.39
   4  -3  -8  214.78    6.11
   4  -3  -8  196.48    5.18
   4   3  -8  211.38    5.95
  -4  -3   8  209.68    5.95
  -4  -3   7  103.07    3.37
   4   3  -7  109.82    3.86
  -4  -3   7  103.85    3.75
   4  -3  -7  111.93    3.60
  -4  -3   6   65.85    2.41
  -4  -3   6   67.74    2.78
   4   3  -6   66.82    2.80
   4  -3  -6   70.59    2.75
  -4  -3   6   66.30    1.65
  -4  -3   5  274.49    5.65
   4   3  -5  284.52    6.31
  -4  -3   5  279.09    6.28
   4  -3  -5  287.65    6.33
  -4   3   5  289.52    6.32
  -4  -3   5  271.11    5.31
   4  -3  -4   46.52    2.19
  -4  -3   4   41.10    1.51
   4   3  -4   46.36    1.95
  -4  -3   4   43.32    1.91
  -4   3   4   43.11    2.01
   4  -3  -4   46.26    2.15
  -4  -3   4   45.78    1.64
   4  -3  -3  792.83   13.90
  -4  -3   3  746.92   12.28
  -4  -3   3  754.31   13.05
   4   3  -3  789.10   13.11
   4  -3  -3  782.61   13.80
  -4   3   3  789.88   13.83
  -4  -3   3  791.94   13.18
   4  -3  -2    5.63    1.24
  -4  -3   2    4.11    0.63
   4   3  -2    4.36    0.66
  -4   3   2    3.60    0.94
  -4  -3   2    3.51    0.79
   4  -3  -1 1159.30   19.84
  -4   3   1 1161.14   19.82
  -4   3   1 1156.84   19.73
  -4  -3   1 1160.83   19.40
  -4   3   0    4.36    0.94
   4  -3   0    5.06    1.23
  -4  -3   0    5.36    0.96
  -4   3  -1 2542.79   40.41
   4   3   1 2505.89   38.54
  -4  -3  -1 2527.47   40.18
   4  -3   1 2509.20   40.45
  -4   3  -2   30.33    1.95
   4   3   2   29.60    1.34
  -4  -3  -2   30.62    1.88
   4  -3   2   31.83    2.12
   4   3   3   14.22    1.16
  -4   3  -3   17.78    1.54
  -4  -3  -3   15.11    0.80
  -4  -3  -3   17.41    1.50
   4  -3   3   17.80    1.76
  -4   3  -4    4.54    1.11
   4   3   4    4.27    0.91
  -4  -3  -4    4.23    0.65
  -4  -3  -4    4.51    1.06
   4  -3   4    4.25    1.42
   4   3   5  331.00    7.18
  -4  -3  -5  321.24    6.43
  -4  -3  -5  316.26    7.74
   4  -3   5  318.39    7.90
  -4   3  -5  309.26    7.57
   4   3   6   73.22    3.04
  -4  -3  -6   67.97    2.50
  -4  -3  -6   71.36    3.23
  -4   3  -6   64.48    3.02
   4  -3   6   67.17    3.17
   4   3   7 1314.34   22.60
  -4  -3  -7 1299.34   21.65
  -4  -3  -7 1336.81   23.08
  -4   3  -7 1183.77   22.58
   4  -3   7 1200.64   22.64
   4   3   8   89.42    3.77
  -4  -3  -8   85.76    3.26
   4  -3   8   91.87    3.93
  -4  -3  -8   94.22    3.93
   4  -3   8   80.21    3.61
  -4   3  -8   78.48    3.57
   4   3   9  260.76    7.33
  -4  -3  -9  252.10    6.60
   4  -3   9  264.62    7.50
  -4  -3  -9  262.65    7.38
   4  -3   9  243.51    7.01
  -4   3  -9  244.76    7.10
   4   3  10  194.61    6.37
   4  -3  10  187.51    6.35
  -4  -3 -10  184.97    5.62
  -4  -3 -10  191.75    6.24
   4  -3  10  175.47    5.79
  -4   3 -10  170.82    5.84
   4  -3  11   10.94    1.62
  -4  -3 -11   10.84    1.56
   4   3  11    6.78    1.45
  -4   3 -11    7.69    1.35
  -4  -3 -11    8.63    1.49
   4  -3  11    8.62    1.55
   4   3  12   57.87    3.71
   4  -3  12   56.95    3.80
   4  -3  12   57.08    3.57
  -4  -3 -12   56.49    3.27
   4  -3  12   52.30    3.13
  -4  -3 -12   61.49    3.54
  -4   3 -12   53.93    3.24
   4   3  13   58.58    3.83
  -4  -3 -13   65.55    3.67
   4  -3  13   68.60    4.27
  -4  -3 -13   69.21    3.87
  -4   3 -13   61.89    3.55
   4  -3  14   37.75    3.42
  -4  -3 -14   36.90    2.95
   4   3  14   35.63    3.21
  -4  -3 -14   39.78    3.07
  -4   3 -14   37.26    2.89
  -4  -3 -15    4.65    1.50
   4  -3  15    4.63    1.75
   4   3  15    2.04    1.58
  -4   3 -15    2.65    1.29
   4  -3  16   17.62    2.76
   4   3  16   16.83    2.61
  -4   3 -16   19.19    2.19
   4  -3  17    0.43    1.62
   4   3  17    0.15    1.79
  -4   3 -17    1.11    1.17
   4   3  18   24.95    3.40
   4  -3  18   22.59    3.21
   4   3  19  190.46    8.69
   4  -3  19  185.51    8.74
   4   3  20   23.47    3.63
   4  -3  20   23.97    3.64
   4   3  21    8.98    2.58
   4  -3  21    5.48    2.55
  -4  -4  23   34.22    3.99
  -4  -4  22   55.17    4.67
   4  -4 -22   62.85    4.19
   4  -4 -22   53.38    5.03
  -4  -4  21   46.43    4.39
   4  -4 -21   44.27    3.47
   4  -4 -21   46.68    4.42
  -4  -4  20    8.76    2.26
   4  -4 -20    8.70    1.88
   4  -4 -20   11.83    2.72
  -4  -4  19   85.96    5.34
   4  -4 -19   91.12    4.67
   4  -4 -19   98.07    5.93
  -4  -4  18   83.70    5.09
   4  -4 -18   92.67    4.65
   4  -4 -18   81.59    5.23
  -4  -4  17    8.56    2.03
   4  -4 -17   11.24    1.86
   4  -4 -17   10.08    2.26
  -4  -4  16  129.98    5.96
   4  -4 -16  134.91    5.31
   4  -4 -16  130.47    6.35
  -4  -4  15    4.04    1.48
   4  -4 -15    9.01    1.69
   4  -4 -15    8.28    1.95
  -4  -4  14  282.07    8.57
   4  -4 -14  290.27    8.05
   4   4 -14  301.76    9.34
   4  -4 -14  302.47    9.57
  -4  -4  13   41.30    2.92
   4  -4 -13   45.83    2.88
  -4  -4  13   41.65    3.08
   4   4 -13   39.19    3.13
   4  -4 -13   40.37    3.28
  -4  -4  12 1314.50   25.06
   4  -4 -12 1414.14   26.27
   4  -4 -12 1380.42   24.72
   4   4 -12 1349.49   25.98
  -4  -4  12 1401.14   26.11
   4  -4 -11    6.50    1.49
  -4  -4  11    3.48    1.21
   4  -4 -11    6.70    1.37
  -4  -4  11    5.09    1.32
   4   4 -11    5.95    1.56
  -4  -4  10  237.98    6.66
   4  -4 -10  252.36    7.48
   4  -4 -10  250.73    6.70
   4   4 -10  244.02    7.24
  -4  -4  10  240.00    7.15
   4  -4  -9   86.42    3.95
  -4  -4   9   82.82    3.43
   4  -4  -9   89.86    3.55
   4   4  -9   94.69    3.97
  -4  -4   9   91.54    3.86
  -4  -4   8   13.02    1.37
   4  -4  -8   11.90    1.49
  -4  -4   8   13.29    1.50
   4   4  -8    9.60    1.33
  -4  -4   7  413.03    8.51
  -4  -4   7  406.16    9.14
   4   4  -7  420.64    9.24
   4  -4  -7  427.97    9.11
  -4  -4   6   34.11    1.71
  -4  -4   6   32.54    1.96
   4   4  -6   33.19    1.96
   4  -4  -6   32.45    2.02
  -4  -4   6   33.29    1.19
  -4  -4   5    7.48    0.86
  -4  -4   5    7.74    1.05
   4  -4  -5    6.47    1.25
  -4   4   5    8.85    1.16
  -4  -4   5    6.27    0.69
  -4  -4   4  512.56    8.88
  -4  -4   4  510.15    9.14
  -4   4   4  498.96    9.98
   4  -4  -4  532.67   10.30
  -4  -4   4  513.43    9.63
   4  -4  -3   94.75    3.34
  -4  -4   3   84.49    2.01
  -4  -4   3   86.11    2.61
   4  -4  -3   86.66    3.17
  -4   4   3   90.19    3.19
  -4  -4   3   86.61    2.54
   4  -4  -2   41.66    2.33
  -4   4   2   43.60    2.16
  -4  -4   2   37.87    1.43
   4  -4  -1   17.47    1.66
  -4   4   1   19.53    1.54
  -4  -4   1   16.24    0.79
  -4   4   0 3373.01   53.69
   4  -4   0 3379.04   53.74
  -4   4   0 3446.32   53.76
  -4   4  -1   15.30    1.43
  -4  -4  -1   14.39    0.80
   4  -4   1   15.90    1.64
  -4  -4  -2 1624.29   25.24
  -4  -4  -2 1635.55   26.01
  -4   4  -2 1701.53   27.71
   4  -4   2 1736.70   27.84
  -4  -4  -3   35.63    1.26
  -4   4  -3   39.21    2.19
  -4  -4  -3   36.57    1.65
   4  -4   3   39.29    2.30
  -4  -4  -4  556.90    9.83
  -4  -4  -4  566.29   10.59
   4   4   4  580.49   10.71
  -4   4  -4  568.68   11.50
   4  -4   4  582.39   11.71
  -4  -4  -5   13.84    1.27
  -4  -4  -5   13.02    1.00
  -4   4  -5   13.12    1.49
   4   4   5   14.41    1.45
   4  -4   5   13.03    1.66
  -4  -4  -6  567.84   10.62
  -4  -4  -6  561.84   11.28
   4   4   6  576.94   11.52
   4  -4   6  560.48   12.20
  -4   4  -6  569.76   11.85
  -4  -4  -7   16.89    1.38
  -4  -4  -7   19.44    1.64
   4   4   7   15.07    1.66
  -4   4  -7   14.72    1.57
   4  -4   7   13.61    1.66
   4   4   8   95.58    3.96
  -4  -4  -8   93.67    3.40
  -4  -4  -8   90.37    3.71
  -4  -4  -8   94.37    4.04
   4  -4   8   89.58    3.87
  -4   4  -8   88.83    3.76
   4   4   9  289.25    7.87
   4  -4   9  295.22    8.21
  -4  -4  -9  278.67    7.05
  -4  -4  -9  291.14    8.00
  -4   4  -9  285.80    7.63
   4  -4   9  258.66    7.46
   4   4  10  405.26   10.12
  -4  -4 -10  395.69    9.25
   4  -4  10  416.82   10.50
  -4  -4 -10  406.21   10.15
   4  -4  10  368.51    9.42
  -4   4 -10  375.99    9.52
   4   4  11  183.24    6.47
  -4  -4 -11  174.01    5.69
   4  -4  11  185.85    6.60
   4  -4  11  164.41    5.77
  -4  -4 -11  186.44    6.37
  -4   4 -11  173.62    5.86
  -4  -4 -12   12.41    1.65
   4   4  12   10.93    1.84
  -4   4 -12   12.03    1.69
   4  -4  12   11.34    1.64
  -4  -4 -12   13.25    1.85
   4   4  13   27.30    2.79
  -4  -4 -13   29.42    2.49
   4  -4  13   34.45    3.30
   4  -4  13   29.65    2.48
  -4   4 -13   31.89    2.58
  -4  -4 -13   26.42    2.51
   4  -4  14  234.90    8.62
  -4  -4 -14  238.20    7.67
   4   4  14  241.39    8.40
  -4   4 -14  219.81    7.20
  -4  -4 -15   44.28    3.30
   4  -4  15   51.63    4.04
   4   4  15   53.72    3.99
  -4   4 -15   46.28    3.18
  -4  -4 -16  198.42    7.44
   4  -4  16  194.89    8.19
   4   4  16  197.18    8.01
  -4   4 -16  175.94    6.58
  -4  -4 -17   43.01    3.50
   4  -4  17   49.35    3.99
   4   4  17   47.00    4.06
  -4   4 -17   40.85    3.13
   4  -4  18  361.13   12.31
   4   4  18  337.70   11.75
   4   4  19    3.08    2.19
   4  -4  19    3.25    1.88
   4  -4  20   91.77    6.31
   4   4  20   85.67    6.00
   4  -4  21   -0.57    2.01
  -4  -5  23   15.67    2.95
   4  -5 -23   10.90    2.26
  -4  -5  22    0.00    1.85
   4  -5 -22   -1.16    1.43
   4  -5 -22    1.29    2.15
  -4  -5  21  198.31    8.81
   4  -5 -21  193.94    7.65
   4  -5 -21  195.90    9.18
  -4  -5  20    3.67    1.86
   4  -5 -20    3.92    1.71
   4  -5 -20    0.84    1.80
  -4  -5  19    2.45    1.60
   4  -5 -19    2.46    1.48
   4  -5 -19   -0.58    1.78
  -4  -5  18   22.31    2.85
   4  -5 -18   22.93    2.54
   4  -5 -18   24.20    3.07
  -4  -5  17    9.71    2.14
   4  -5 -17   10.63    1.94
   4  -5 -17   13.24    2.33
  -4  -5  16    6.00    1.79
   4  -5 -16    3.85    1.43
   4  -5 -16    7.79    2.17
  -4  -5  15   59.46    3.79
   4  -5 -15   60.79    3.56
   4  -5 -15   60.83    4.30
  -4  -5  14   33.32    2.86
   4  -5 -14   39.16    2.87
   4  -5 -14   42.85    3.43
  -4  -5  13 1001.48   20.29
   4  -5 -13 1045.15   20.09
   4  -5 -12    2.91    1.24
  -4  -5  12    2.58    1.18
   4   5 -12    2.22    0.48
   4  -5 -12    4.04    1.40
  -4  -5  12    1.28    1.25
  -4  -5  11  861.97   16.56
   4  -5 -11  924.00   17.98
   4   5 -11  783.29   12.91
   4  -5 -11  913.95   16.87
  -4  -5  11  884.42   17.36
  -4  -5  10   38.30    2.46
   4  -5 -10   41.52    2.83
   4  -5 -10   38.96    2.57
  -4  -5  10   39.06    2.71
  -4  -5   9  116.48    4.11
   4  -5  -9  111.07    4.14
  -4  -5   9  121.06    4.57
  -4  -5   8   73.45    3.00
   4  -5  -8   76.45    3.37
  -4  -5   8   73.92    3.35
  -4  -5   7  355.24    7.76
   4  -5  -7  376.67    8.63
  -4  -5   7  369.14    6.39
  -4  -5   7  370.75    8.54
   4  -5  -6   84.79    3.43
  -4  -5   6   81.70    2.19
  -4  -5   6   81.30    2.74
  -4  -5   6   82.41    3.19
  -4   5   5  101.70    3.66
  -4  -5   5  100.39    2.23
   4  -5  -5  102.95    3.76
  -4  -5   5   96.31    2.81
  -4  -5   5  101.69    3.35
  -4   5   4   53.43    2.54
   4  -5  -4   51.26    2.67
  -4  -5   4   56.36    1.69
  -4  -5   4   53.48    2.20
  -4   5   3 1207.26   20.93
   4  -5  -3 1217.78   20.94
  -4  -5   3 1169.00   19.63
   4  -5  -2  111.70    3.91
  -4   5   2  115.44    3.83
   4  -5  -2  108.58    3.83
  -4  -5   2  108.08    2.85
   4  -5  -1  350.34    8.02
  -4   5   1  362.14    8.10
   4  -5   0    4.60    1.22
  -4   5   0    9.06    1.35
   4  -5   1 1808.82   29.65
  -4  -5  -1 1735.17   27.64
  -4   5  -1 1816.66   29.73
  -4  -5  -2    7.90    0.79
  -4   5  -2   10.51    1.35
   4  -5   2    8.18    1.35
  -4  -5  -3  633.06   11.43
  -4   5  -3  642.20   12.63
   4  -5   3  653.53   12.79
  -4  -5  -4   31.61    1.40
  -4  -5  -4   32.59    1.73
  -4   5  -4   31.19    2.04
   4  -5   4   30.96    2.18
  -4  -5  -5  131.17    3.48
  -4   5  -5  137.24    4.49
  -4  -5  -5  133.74    4.02
   4  -5   5  132.60    4.59
  -4  -5  -6    1.76    0.70
  -4  -5  -6    2.34    0.87
  -4   5  -6    1.57    0.94
   4  -5   6    0.43    1.09
  -4  -5  -7   83.46    3.02
  -4  -5  -7   82.24    3.44
  -4   5  -7   88.43    3.66
   4  -5   7   88.39    3.99
  -4  -5  -8  144.13    4.90
  -4  -5  -8  142.56    4.37
   4   5   8  147.54    5.05
  -4   5  -8  141.36    4.90
   4  -5   8  134.72    4.99
  -4  -5  -9 1295.14   23.33
  -4  -5  -9 1366.00   24.41
  -4   5  -9 1347.79   24.16
   4   5   9 1363.80   24.53
   4  -5   9 1291.23   24.32
  -4  -5 -10   44.73    2.88
  -4  -5 -10   42.41    2.54
   4  -5  10   44.49    3.14
   4   5  10   46.42    3.02
   4  -5  10   41.53    2.75
  -4   5 -10   45.04    2.79
   4   5  11  482.40   11.83
   4  -5  11  487.41   12.24
  -4  -5 -11  493.00   11.73
  -4  -5 -11  471.92   10.87
  -4  -5 -11  474.38   11.74
   4  -5  11  439.75   10.91
  -4   5 -11  469.39   11.09
  -4   5 -12   14.41    1.76
   4   5  12   14.79    2.05
  -4  -5 -12   12.72    1.67
  -4  -5 -12   14.88    1.95
   4  -5  12   12.58    1.76
   4   5  13  519.14   13.17
  -4  -5 -13  514.88   12.22
   4  -5  13  496.31   11.93
  -4   5 -13  517.76   12.09
  -4   5 -14    3.64    1.33
   4   5  14    5.14    1.72
   4  -5  14    5.10    1.42
  -4  -5 -14    4.24    1.43
   4  -5  14    8.98    2.12
  -4  -5 -15    2.75    1.25
   4  -5  15   -0.47    1.53
  -4   5 -15    0.86    1.04
   4   5  15    2.53    1.66
   4  -5  16   69.09    4.90
  -4  -5 -16   61.92    3.96
   4   5  16   61.97    4.48
  -4   5 -16   62.76    3.70
   4  -5  17  358.29   12.02
  -4  -5 -17  348.19   10.69
  -4   5 -17  334.89    9.70
   4  -5  18   22.48    3.43
  -4  -5 -18   22.75    2.72
   4  -5  19  380.11   13.06
  -4  -5 -19  361.21   11.65
   4  -5  20    8.00    2.44
   4  -5  21   12.17    3.18
  -4  -6  23    6.37    2.56
   4  -6 -23    5.46    2.06
  -4  -6  22  124.98    7.19
   4  -6 -22  129.32    6.41
   4  -6 -22  121.18    7.33
  -4  -6  21   -2.42    1.87
   4  -6 -21    0.25    1.71
   4  -6 -21   -1.37    1.89
  -4  -6  20   80.89    5.34
   4  -6 -20  101.50    5.48
   4  -6 -20   94.33    6.13
  -4  -6  19    5.23    1.82
   4  -6 -19    5.84    1.84
   4  -6 -19    5.62    2.05
  -4  -6  18    5.90    1.89
   4  -6 -18    3.08    1.66
   4  -6 -18    5.04    2.16
  -4  -6  17    4.62    1.75
   4  -6 -17    1.27    1.54
   4  -6 -17    4.75    1.87
  -4  -6  16   28.10    2.89
   4  -6 -16   31.49    2.89
   4  -6 -16   32.32    3.42
  -4  -6  15    9.18    1.92
   4   6 -15    6.14    0.72
   4  -6 -15    8.06    1.78
   4  -6 -15    5.40    1.61
  -4  -6  14  135.77    5.61
   4  -6 -14  143.79    5.66
   4   6 -14  133.95    3.13
   4   6 -13   20.31    0.98
   4  -6 -13   26.84    2.61
  -4  -6  13   20.31    2.20
  -4  -6  12 1023.05   19.74
   4  -6 -12 1084.54   20.23
   4   6 -12  976.30   15.87
  -4  -6  12 1052.82   20.71
   4  -6 -11   -0.34    1.09
   4  -6 -11   -1.12    1.39
   4   6 -11    0.23    0.30
  -4  -6  11    1.08    1.02
  -4  -6  11    1.44    1.01
  -4  -6  10   42.82    2.63
   4  -6 -10   48.14    2.93
  -4  -6  10   47.83    3.00
   4  -6  -9    2.48    1.18
  -4  -6   9    2.39    0.96
  -4  -6   9    3.61    1.17
   4  -6  -8 1008.58   18.87
  -4  -6   8  988.20   15.70
  -4  -6   8  975.55   17.80
  -4  -6   8  988.32   18.73
   4  -6  -7   30.23    2.34
  -4  -6   7   33.45    2.28
  -4  -6   7   31.42    1.86
   4  -6  -6  463.47   10.22
  -4  -6   6  451.17    9.69
  -4   6   5   58.04    2.82
  -4  -6   5   59.90    1.83
   4  -6  -5   64.97    3.14
  -4  -6   5   58.69    2.56
   4  -6  -4 3258.67   50.51
  -4   6   4 3169.94   50.38
  -4  -6   4 3034.53   48.10
  -4  -6   4 3151.04   49.26
  -4   6   3   12.35    1.48
   4  -6  -3   11.39    1.54
  -4   6   2  185.07    5.40
   4  -6  -2  192.80    5.51
   4  -6  -1   -0.14    1.16
  -4   6   1    3.36    1.04
   4  -6   0  216.90    6.04
  -4   6   0  232.56    6.22
   4  -6   1    3.91    1.19
  -4   6  -1    3.81    1.11
   4  -6   2  630.95   12.66
  -4  -6  -2  622.50   11.12
  -4   6  -2  639.96   12.81
  -4  -6  -3   66.87    2.44
   4  -6   3   69.97    3.19
  -4  -6  -4  779.76   14.31
  -4   6  -4  805.97   15.34
   4  -6   4  809.06   15.48
  -4  -6  -5   65.61    2.75
  -4   6  -5   71.61    3.18
   4  -6   5   68.43    3.24
  -4  -6  -6   81.01    2.87
  -4  -6  -6   83.10    3.31
  -4   6  -6   83.61    3.53
   4  -6   6   84.68    3.71
  -4  -6  -7    3.18    0.83
  -4  -6  -7    4.40    1.07
  -4   6  -7    4.55    1.01
   4  -6   7    3.56    1.24
  -4  -6  -8  712.39   13.71
  -4  -6  -8  705.70   14.51
  -4   6  -8  725.28   14.60
   4  -6   8  721.60   15.22
  -4  -6  -9    5.25    1.27
  -4  -6  -9    4.16    1.01
  -4   6  -9    4.58    1.11
   4  -6   9    3.98    1.39
  -4  -6 -10 1758.87   30.07
  -4  -6 -10 1755.64   31.09
  -4   6 -10 1749.80   30.50
   4  -6  10 1669.42   30.74
  -4  -6 -11   32.00    2.33
  -4  -6 -11   28.88    2.51
  -4   6 -11   31.96    2.38
   4  -6  11   28.18    2.35
  -4  -6 -12   69.86    3.65
  -4   6 -12   70.08    3.60
   4  -6  12   60.27    3.48
  -4   6 -13   33.56    2.62
  -4  -6 -13   31.93    2.61
   4  -6  13   30.07    2.60
  -4  -6 -14   20.66    2.26
  -4   6 -14   23.05    2.22
   4  -6  14   24.51    2.44
  -4   6 -15   34.62    2.70
   4  -6  15   31.27    2.63
  -4  -6 -15   31.66    2.84
   4  -6  15   28.02    3.12
  -4   6 -16  219.51    7.19
  -4  -6 -16  217.30    7.85
   4  -6  16  216.95    8.96
  -4  -6 -17    8.91    1.89
   4  -6  17    6.74    2.18
   4  -6  18  520.80   15.49
  -4  -6 -18  488.59   13.72
  -4  -6 -19    3.50    1.60
   4  -6  19    6.86    2.28
  -4  -6 -20   34.99    3.80
   4  -6  20   34.40    4.08
  -4  -7  23   17.20    3.17
   4  -7 -23   22.13    3.08
  -4  -7  22    8.60    2.44
   4  -7 -22   17.66    2.91
   4  -7 -22    8.00    2.57
  -4  -7  21   65.16    5.07
   4  -7 -21   73.80    5.24
   4  -7 -21   69.12    5.74
  -4  -7  20    9.39    2.28
   4  -7 -20    6.47    1.94
   4  -7 -20   12.48    2.78
  -4  -7  19   23.32    3.10
   4  -7 -19   23.86    2.94
   4  -7 -19   19.52    3.03
  -4  -7  18   13.61    2.47
   4  -7 -18   13.06    2.36
   4  -7 -18   12.85    2.55
  -4  -7  17   12.46    2.36
   4  -7 -17   14.16    2.30
   4  -7 -17   15.10    2.65
  -4  -7  16    0.94    1.48
   4  -7 -16    4.80    1.82
   4   7 -16    2.11    0.60
   4  -7 -16    4.19    1.85
  -4  -7  15    7.89    1.83
   4  -7 -15   12.75    2.33
   4   7 -15    7.37    0.77
   4  -7 -15    6.68    1.77
   4   7 -14    7.93    0.72
   4  -7 -14   11.23    2.15
  -4  -7  14    8.48    1.78
  -4  -7  13  637.59   14.36
   4  -7 -13  655.73   14.68
   4   7 -13  625.74   10.60
   4  -7 -12   10.04    1.77
   4   7 -12   11.29    0.70
  -4  -7  12   13.32    1.75
  -4  -7  12   13.34    1.96
  -4  -7  11  734.23   15.22
   4   7 -11  730.80   12.02
   4  -7 -11  737.66   15.71
  -4  -7  11  769.94   16.30
   4  -7 -10   35.57    2.62
  -4  -7  10   31.93    2.31
  -4  -7  10   36.74    2.70
  -4  -7   9   56.55    1.58
   4  -7  -9   55.23    3.26
  -4  -7   9   54.11    2.78
  -4  -7   9   54.56    3.17
   4  -7  -8  146.86    5.32
  -4  -7   8  146.83    5.12
   4  -7  -7  123.07    4.68
  -4  -7   7  116.27    4.31
   4  -7  -6  567.31   12.29
  -4  -7   6  565.67   11.63
   4  -7  -5  194.70    5.95
  -4  -7   5  187.79    4.27
  -4   7   5  190.00    5.78
  -4  -7   5  187.18    5.24
  -4  -7   4   40.48    1.81
   4  -7  -4   43.36    2.70
  -4   7   4   41.58    2.61
  -4   7   3 1209.77   22.21
   4  -7  -3 1286.38   22.73
  -4  -7   3 1269.72   20.93
  -4   7   2   22.50    2.01
   4  -7  -2   20.30    1.90
   4  -7  -1  388.35    9.13
  -4   7   1  392.91    9.13
   4  -7   0    0.12    1.08
  -4   7   0    2.07    1.04
   4  -7   1  436.00    9.90
  -4   7  -1  448.87   10.02
   4  -7   2    0.06    1.04
  -4   7  -2    0.30    0.97
  -4  -7  -3  282.07    6.23
   4  -7   3  267.85    7.23
  -4   7  -3  278.67    7.42
   4  -7   4    2.52    1.06
  -4  -7  -4    4.98    0.90
  -4  -7  -5   30.78    1.93
   4  -7   5   33.60    2.44
  -4  -7  -6    1.84    0.85
   4  -7   6    2.45    1.13
  -4  -7  -7   92.37    3.31
  -4  -7  -7   93.26    3.79
  -4   7  -7   86.65    3.80
   4  -7   7   91.78    4.05
  -4  -7  -8  111.97    3.90
  -4  -7  -8  106.28    4.30
  -4   7  -8  111.29    4.37
   4  -7   8  114.52    4.69
  -4  -7  -9  620.66   12.69
  -4   7  -9  611.25   13.25
  -4  -7  -9  633.59   13.63
   4  -7   9  622.74   14.09
  -4  -7 -10   10.94    1.49
  -4  -7 -10    8.64    1.53
  -4   7 -10    5.96    1.14
   4  -7  10    7.58    1.60
  -4  -7 -11   11.76    1.84
  -4  -7 -11   13.24    1.61
  -4   7 -11   11.49    1.63
   4  -7  11   10.99    1.86
  -4  -7 -12   11.51    1.66
  -4   7 -12   10.51    1.65
   4  -7  12    8.93    1.75
  -4  -7 -13   61.87    3.65
  -4   7 -13   66.15    3.57
   4  -7  13   59.81    3.59
  -4  -7 -14    6.08    1.52
  -4   7 -14    5.31    1.33
   4  -7  14    3.55    1.28
  -4   7 -15   34.48    2.75
   4  -7  15   33.43    2.79
  -4  -7 -15   34.44    2.96
  -4   7 -16   25.88    2.47
   4  -7  16   29.36    2.48
  -4  -7 -16   27.42    2.78
   4  -7  16   24.92    3.21
  -4  -7 -17  321.34   10.26
   4  -7  17  325.48   11.58
  -4  -7 -18   30.19    3.18
   4  -7  18   30.87    3.85
   4  -7  19  255.52   10.59
  -4  -7 -19  245.79    9.35
  -4  -7 -20    3.52    2.04
   4  -7  20    0.15    1.99
  -4  -7 -21   -0.28    1.73
  -4  -7 -22   30.36    3.90
  -4  -8  23    5.35    2.46
   4  -8 -23    3.27    1.92
  -4  -8  22    7.86    2.20
   4  -8 -22   11.17    2.49
  -4  -8  21   57.02    4.77
   4  -8 -21   63.03    4.77
   4  -8 -21   61.42    5.25
  -4  -8  20    4.83    1.86
   4  -8 -20    1.13    1.62
   4  -8 -20   -1.17    2.11
  -4  -8  19  118.38    6.35
   4  -8 -19  114.47    6.17
   4  -8 -19  118.85    6.80
  -4  -8  18   44.82    3.89
   4  -8 -18   46.60    3.92
   4  -8 -18   48.71    4.36
  -4  -8  17    7.05    2.47
   4  -8 -17    8.01    2.09
   4  -8 -17    9.14    2.03
  -4  -8  16    5.50    1.77
   4  -8 -16    1.72    1.52
   4  -8 -16    2.02    1.52
  -4  -8  15   21.40    2.50
   4   8 -15   18.55    1.05
   4  -8 -15   21.93    2.57
  -4  -8  14   11.94    1.98
   4  -8 -14   13.62    2.16
   4   8 -14   11.01    0.82
  -4  -8  13    2.86    1.37
   4   8 -13    1.12    0.50
   4  -8 -13    1.97    1.56
  -4  -8  12  258.27    7.73
   4  -8 -12  262.25    8.17
   4   8 -12  255.65    5.06
  -4  -8  11    2.96    1.20
  -4  -8  11    2.98    1.21
   4  -8 -11    2.01    1.27
  -4  -8  10   14.24    1.57
  -4  -8  10   17.78    1.99
   4  -8 -10   20.01    2.25
  -4  -8  10   17.17    0.87
   4  -8  -9    3.38    1.45
  -4  -8   9    2.93    1.13
   4  -8  -8   42.79    2.94
  -4  -8   8   40.25    2.64
   4  -8  -7    7.11    1.57
  -4  -8   7    7.52    1.28
   4  -8  -6  194.45    6.27
  -4  -8   6  192.90    4.55
  -4  -8   6  194.48    5.74
   4  -8  -5  940.14   18.02
  -4   8   5  902.44   17.74
  -4  -8   5  898.40   15.65
  -4  -8   4  124.70    3.66
   4  -8  -4  129.54    4.89
  -4   8   4  137.64    4.92
  -4  -8   3   29.08    1.73
   4  -8  -3   31.11    2.51
  -4   8   3   33.31    2.34
  -4  -8   2   25.02    1.70
  -4   8   2   31.00    2.30
   4  -8  -2   26.65    2.33
   4  -8  -1   23.81    2.07
  -4   8   1   23.83    2.05
   4  -8   0  240.52    6.92
  -4   8   0  256.54    7.04
   4  -8   1   -0.20    1.04
  -4   8  -1   -0.74    0.93
   4  -8   2    6.80    1.41
  -4   8  -2   11.05    1.61
   4  -8   3    2.01    1.17
  -4   8  -3    2.00    1.12
   4  -8   4   52.37    3.00
  -4  -8  -4   51.38    2.46
  -4   8  -4   54.83    3.06
   4  -8   5   19.81    2.07
  -4  -8  -5   19.41    1.66
  -4   8  -5   21.41    2.04
  -4  -8  -6  499.42   10.86
   4  -8   6  503.56   11.51
  -4  -8  -7  156.95    5.22
   4  -8   7  156.49    5.58
  -4  -8  -8    1.90    0.84
  -4  -8  -8    0.15    0.86
   4  -8   8    0.28    1.19
  -4  -8  -9   60.01    2.99
  -4  -8  -9   61.62    3.42
   4  -8   9   61.61    3.55
  -4  -8 -10  118.85    4.48
  -4  -8 -10  122.30    5.13
   4  -8  10  115.12    5.14
  -4  -8 -11   40.39    2.72
  -4  -8 -11   39.62    2.97
  -4   8 -11   38.07    2.72
   4  -8  11   35.41    2.86
  -4  -8 -12   78.38    3.87
  -4   8 -12   71.38    3.71
   4  -8  12   75.09    4.02
  -4  -8 -13  115.04    5.01
  -4   8 -13  120.80    4.92
   4  -8  13  110.63    5.01
  -4  -8 -14   16.63    2.15
  -4   8 -14   15.02    1.92
   4  -8  14   15.11    1.98
  -4  -8 -15    5.86    1.52
  -4   8 -15    3.62    1.27
   4  -8  15    4.77    1.37
  -4  -8 -16   11.83    2.10
  -4   8 -16    7.94    1.67
   4  -8  16   15.72    2.11
   4  -8  17   83.14    4.23
   4  -8  17   83.89    5.70
  -4  -8 -17   81.68    4.90
  -4  -8 -18  155.37    6.99
   4  -8  18  159.53    8.15
   4  -8  19    1.00    1.84
  -4  -8 -19   -0.54    1.47
   4  -8  20    4.76    2.24
  -4  -8 -20    5.27    2.09
  -4  -8 -21    5.92    2.03
  -4  -8 -22    4.43    2.32
  -4  -8 -23   28.95    4.17
   4  -9 -23   36.76    3.86
  -4  -9  22    8.09    2.33
   4  -9 -22    6.24    2.03
  -4  -9  21   15.44    2.80
   4  -9 -21   11.97    2.62
   4  -9 -21   15.91    3.02
  -4  -9  20  103.24    6.16
   4  -9 -20  108.32    6.09
   4  -9 -20  116.86    6.95
  -4  -9  19  120.74    6.53
   4  -9 -19  126.75    6.54
   4  -9 -19  129.92    7.22
  -4  -9  18    0.07    1.76
   4  -9 -18    1.09    1.62
   4  -9 -18    1.71    1.80
   4  -9 -17   19.19    2.65
  -4  -9  17   14.24    2.41
   4  -9 -17   17.13    2.73
   4  -9 -16   28.97    3.05
  -4  -9  16   27.27    3.00
  -4  -9  15   49.94    3.66
   4   9 -15   48.26    1.76
   4  -9 -15   50.75    3.83
  -4  -9  14    2.17    1.35
   4  -9 -14    2.92    1.39
   4   9 -14    2.02    0.58
  -4  -9  13   35.70    2.91
   4  -9 -13   36.90    3.16
  -4  -9  12   15.41    2.03
   4  -9 -12   15.14    2.09
  -4  -9  11   56.05    3.21
   4  -9 -11   53.86    3.63
  -4  -9  11   57.35    1.74
  -4  -9  10   67.00    2.16
   4  -9 -10   60.24    3.77
  -4  -9  10   62.45    3.64
   4  -9  -9   25.66    2.52
  -4  -9   9   18.74    2.05
   4  -9  -8   49.63    3.35
  -4  -9   8   47.98    2.97
   4  -9  -7  277.96    8.18
  -4  -9   7  278.00    7.62
   4  -9  -6    1.20    1.24
  -4  -9   6    3.09    0.87
  -4  -9   6    2.63    1.01
   4  -9  -5  305.67    8.44
  -4  -9   5  297.79    6.68
  -4  -9   4   73.10    2.84
  -4   9   4   75.39    3.73
   4  -9  -4   72.57    3.79
  -4  -9   3  109.85    3.57
  -4   9   3  127.23    4.89
   4  -9  -3  118.31    4.80
  -4   9   2   53.81    3.04
   4  -9  -2   60.72    3.39
  -4  -9   2   63.99    2.86
  -4   9   1   41.56    2.69
   4  -9  -1   41.69    2.83
  -4  -9   1   37.75    2.25
   4  -9   0   25.79    2.26
  -4   9   0   26.55    2.24
   4  -9   1  142.98    5.21
  -4   9  -1  148.15    5.32
   4  -9   2    7.05    1.47
  -4   9  -2    8.77    1.45
   4  -9   3  173.39    5.79
  -4   9  -3  173.12    5.85
  -4  -9  -4   22.38    1.77
   4  -9   4   24.09    2.22
  -4   9  -4   22.36    2.16
   4  -9   5    1.95    1.08
  -4  -9  -5    4.82    1.10
  -4   9  -5    5.44    1.40
  -4  -9  -6   49.46    2.75
  -4   9  -6   49.68    3.13
   4  -9   6   46.24    3.01
  -4  -9  -7  518.06   11.59
  -4   9  -7  506.56   12.12
   4  -9   7  520.40   12.07
  -4  -9  -8   76.37    3.75
   4  -9   8   83.32    4.11
  -4  -9  -9    4.41    1.06
  -4  -9  -9    5.55    1.22
   4  -9   9    4.03    1.20
  -4  -9 -10   25.31    2.49
  -4  -9 -10   25.26    2.17
   4  -9  10   21.92    2.37
  -4  -9 -11   18.40    1.93
   4  -9  11   17.47    2.23
  -4  -9 -12   18.95    2.08
   4  -9  12   19.10    2.20
  -4  -9 -13  145.61    5.76
   4  -9  13  142.99    5.83
  -4  -9 -14    1.37    1.35
   4  -9  14    0.66    1.13
  -4  -9 -15   27.01    2.77
   4  -9  15   22.19    2.32
  -4  -9 -16   53.46    3.83
   4  -9  16   48.05    3.37
  -4  -9 -17    1.66    1.31
   4  -9  17    1.82    1.33
   4  -9  18  154.34    8.10
  -4  -9 -18  154.75    7.01
  -4  -9 -19   15.68    2.52
   4  -9  19   18.32    3.22
  -4  -9 -20   11.67    2.44
  -4  -9 -21   -0.58    1.72
  -4  -9 -22    2.12    2.02
   4 -10 -23    2.82    2.02
  -4 -10  22   53.23    4.72
   4 -10 -22   53.63    4.58
  -4 -10  21    5.44    2.06
   4 -10 -21    9.29    2.29
  -4 -10  20  151.25    7.59
   4 -10 -20  150.03    7.42
   4 -10 -20  153.08    8.11
  -4 -10  19    8.74    2.31
   4 -10 -19   10.27    2.44
   4 -10 -19    9.38    2.69
  -4 -10  18  250.34    9.43
   4 -10 -18  254.53   10.33
   4 -10 -18  255.10    9.53
  -4 -10  17    3.07    1.51
   4 -10 -17    4.39    1.96
   4 -10 -17    3.02    1.70
  -4 -10  16    7.45    1.76
   4 -10 -16   11.27    2.32
  -4 -10  15    8.96    1.84
   4 -10 -15    8.24    2.08
  -4 -10  14   70.25    4.15
   4 -10 -14   64.91    4.16
  -4 -10  13   11.44    1.85
   4 -10 -13   10.09    1.95
  -4 -10  12   50.62    3.29
   4 -10 -12   54.36    3.83
  -4 -10  12   52.54    1.72
   4 -10 -11   66.13    4.17
  -4 -10  11   70.40    2.31
  -4 -10  10    1.20    0.61
   4 -10 -10   -1.17    1.61
  -4 -10  10   -1.64    1.30
   4 -10  -9   10.08    1.96
  -4 -10   9   14.11    1.80
   4 -10  -8  199.06    7.08
  -4 -10   8  212.46    6.77
   4 -10  -7   19.34    2.36
  -4 -10   7   23.72    2.19
  -4 -10   6 2413.15   39.24
   4 -10  -6 2466.17   42.18
  -4 -10   5   45.74    2.30
   4 -10  -5   51.26    3.27
  -4  10   4  537.88   12.38
   4 -10  -4  516.48   12.35
  -4 -10   4  509.30   10.59
  -4 -10   3  135.92    4.43
   4 -10  -3  145.34    5.55
  -4  10   3  144.67    5.46
  -4  10   2   19.23    2.02
   4 -10  -2   16.80    2.03
  -4 -10   2   15.88    1.58
   4 -10  -1    0.10    1.20
  -4 -10   1    1.09    1.11
  -4  10   1    2.04    1.11
  -4 -10   0   12.20    1.58
  -4  10   0   13.98    1.75
   4 -10   1   21.52    2.21
  -4  10  -1   23.24    2.22
   4 -10   2  269.12    7.89
  -4  10  -2  284.46    8.07
   4 -10   3    3.43    1.29
  -4  10  -3    4.61    1.26
   4 -10   4  131.68    5.21
  -4  10  -4  143.97    5.44
  -4 -10  -5    2.12    0.92
   4 -10   5    1.70    1.23
  -4  10  -5    1.51    1.08
  -4 -10  -6  656.08   13.75
  -4  10  -6  658.14   14.62
   4 -10   6  647.92   14.38
   4 -10   7    3.32    1.31
  -4 -10  -7    2.51    0.98
  -4  10  -7    3.84    1.29
  -4 -10  -8  299.35    8.39
  -4  10  -8  296.53    8.75
   4 -10   8  301.40    8.65
  -4 -10  -9    2.20    0.99
  -4  10  -9    2.14    1.17
   4 -10   9    4.85    1.44
  -4 -10 -10  235.95    7.05
  -4 -10 -10  244.36    7.86
   4 -10  10  238.50    7.92
  -4 -10 -11    3.09    1.13
   4 -10  11    2.94    1.55
  -4 -10 -12  339.57    9.37
   4 -10  12  337.94    9.95
  -4 -10 -13    2.79    1.26
   4 -10  13    2.73    1.45
  -4 -10 -14    3.00    1.43
   4 -10  14    2.13    1.46
  -4 -10 -15    3.16    1.30
   4 -10  15   -1.01    1.26
  -4 -10 -16   69.34    4.44
   4 -10  16   63.37    3.91
  -4 -10 -17   29.11    3.06
   4 -10  17   30.12    2.70
   4 -10  18    1.61    1.98
  -4 -10 -18    3.39    1.84
  -4 -10 -19    1.59    1.72
   4 -10  19    6.13    2.72
  -4 -10 -20   43.54    4.16
  -4 -10 -21    8.33    2.47
  -4 -11  22    0.36    1.93
   4 -11 -22    1.21    2.06
  -4 -11  21   36.21    3.95
   4 -11 -21   27.37    3.57
  -4 -11  20   20.30    3.12
   4 -11 -20   16.35    2.77
   4 -11 -20   16.38    2.87
  -4 -11  19  184.97    8.31
   4 -11 -19  214.00    9.63
   4 -11 -19  189.97    8.27
  -4 -11  18   -1.33    1.68
   4 -11 -18   -2.08    1.71
   4 -11 -18    3.41    2.03
  -4 -11  17    6.24    1.82
   4 -11 -17    5.88    1.88
  -4 -11  16   17.58    2.55
   4 -11 -16   20.34    2.86
  -4 -11  15  250.05    8.68
   4 -11 -15  258.83    9.26
  -4 -11  14   -0.50    1.26
   4 -11 -14   -1.88    1.82
  -4 -11  13   43.66    3.25
   4 -11 -13   42.03    3.63
  -4 -11  13   41.53    1.44
   4 -11 -12   35.96    3.40
  -4 -11  12   38.76    1.73
  -4 -11  11   21.80    1.41
   4 -11 -11   20.49    2.52
  -4 -11  10   19.38    1.44
   4 -11 -10   17.55    2.34
   4 -11  -9   16.54    2.27
  -4 -11   9   19.44    2.18
   4 -11  -8  269.10    8.62
  -4 -11   8  265.59    8.04
   4 -11  -7  572.38   13.88
   4 -11  -6    3.53    1.38
  -4 -11   6    8.11    1.20
  -4 -11   5 1088.81   19.68
   4 -11  -5 1096.38   21.93
  -4  11   4    8.67    1.55
  -4 -11   4    9.71    1.34
   4 -11  -4    7.03    1.64
  -4 -11   3    9.67    1.40
   4 -11  -3    8.68    1.81
  -4  11   3   11.13    1.76
  -4 -11   2   55.45    2.89
   4 -11  -2   59.23    3.68
  -4  11   2   76.04    3.95
   4 -11  -1  125.87    5.30
  -4 -11   1  120.78    4.55
  -4  11   1  129.04    5.15
  -4 -11   0   -0.18    1.11
  -4  11   0    1.39    1.07
   4 -11   1   56.21    3.45
  -4  11  -1   53.86    3.35
  -4 -11  -1   52.81    3.09
   4 -11   2   34.29    2.73
  -4  11  -2   38.24    2.85
   4 -11   3  917.73   18.94
  -4  11  -3  952.24   19.15
   4 -11   4   97.01    4.56
  -4  11  -4  107.37    4.77
   4 -11   5    1.27    1.22
  -4 -11  -5    0.91    0.94
  -4  11  -5    1.84    1.07
  -4 -11  -6    8.12    1.36
   4 -11   6    8.45    1.72
  -4  11  -6    8.01    1.57
  -4 -11  -7  374.28    9.76
  -4  11  -7  397.01   10.51
   4 -11   7  377.64   10.25
  -4 -11  -8   71.25    3.81
   4 -11   8   73.37    4.06
  -4 -11  -9  111.12    4.97
   4 -11   9  110.55    5.05
   4 -11  10    3.65    1.43
  -4 -11 -11  247.46    7.62
   4 -11  11  247.25    8.30
  -4 -11 -12    4.72    1.42
   4 -11  12    2.92    1.62
  -4 -11 -13   79.66    4.32
   4 -11  13   79.72    4.51
  -4 -11 -14    3.42    1.42
   4 -11  14    0.11    1.30
  -4 -11 -15  166.55    6.85
   4 -11  15  165.61    6.60
  -4 -11 -16    0.31    1.34
   4 -11  16    1.09    1.19
  -4 -11 -17  152.68    6.94
  -4 -11 -18    7.09    2.02
  -4 -11 -19   11.86    2.45
  -4 -11 -20   -1.97    1.97
  -4 -11 -21   18.79    3.21
  -4 -12  21   16.19    3.11
   4 -12 -21   19.45    3.23
  -4 -12  20   94.41    6.05
   4 -12 -20  100.14    6.35
   4 -12 -19    6.83    2.23
   4 -12 -19    1.71    1.98
  -4 -12  19    2.73    1.65
  -4 -12  18  134.78    6.90
   4 -12 -18  143.05    7.72
   4 -12 -18  147.48    7.45
  -4 -12  17    3.03    1.81
   4 -12 -17    5.76    2.11
  -4 -12  16   38.18    3.53
   4 -12 -16   39.76    3.94
  -4 -12  15   -1.83    1.62
   4 -12 -15    2.55    1.91
  -4 -12  14  173.52    6.94
   4 -12 -14  183.56    7.84
  -4 -12  13    4.51    1.47
   4 -12 -13    0.45    1.54
  -4 -12  13    1.92    0.61
  -4 -12  12   14.80    1.26
   4 -12 -12   11.64    2.32
  -4 -12  11   28.37    1.77
   4 -12 -11   25.88    2.87
  -4 -12  10   21.28    1.65
   4 -12 -10   27.72    3.10
   4 -12  -9    6.32    1.94
   4 -12  -8  116.87    5.62
  -4 -12   8  116.14    5.10
   4 -12  -7    3.39    1.66
  -4 -12   6  663.23   13.36
   4 -12  -6  662.00   15.60
  -4 -12   5    4.96    1.16
   4 -12  -5    3.47    1.44
  -4 -12   4  151.98    5.06
   4 -12  -4  150.05    6.16
  -4 -12   3    2.46    1.10
   4 -12  -3   -0.08    1.32
   4 -12  -2   26.28    2.66
  -4 -12   2   23.80    2.10
  -4 -12   1    0.60    1.02
   4 -12  -1    0.43    1.31
  -4 -12   0    6.44    1.52
   4 -12   1   38.49    3.02
  -4 -12  -1   38.20    2.81
   4 -12   2  685.75   15.40
  -4 -12  -2  667.80   14.75
   4 -12   3    1.57    1.25
   4 -12   4  426.56   11.15
   4 -12   5   35.19    2.88
   4 -12   6  242.45    7.86
  -4 -12  -6  243.78    7.35
  -4 -12  -7    2.66    1.14
   4 -12   7    0.57    1.38
  -4 -12  -8  220.27    7.21
   4 -12   8  207.14    7.33
   4 -12   9   50.74    3.48
   4 -12  10  135.72    5.90
  -4 -12 -11    0.20    1.07
   4 -12  11    2.74    1.56
  -4 -12 -12  191.92    6.91
   4 -12  12  189.60    7.42
  -4 -12 -13    2.40    1.23
   4 -12  13    2.69    1.52
  -4 -12 -14    5.36    1.46
   4 -12  14    5.50    1.62
  -4 -12 -15   -1.12    1.32
   4 -12  15   -1.94    1.33
  -4 -12 -16  221.95    8.34
   4 -12  16  206.56    7.60
  -4 -12 -17    2.34    1.83
  -4 -12 -18    4.09    1.77
  -4 -12 -19    3.88    2.19
  -4 -13  21    3.48    2.15
   4 -13 -20    0.14    1.99
  -4 -13  20    1.01    1.82
  -4 -13  19  102.95    6.20
   4 -13 -19  109.18    6.70
   4 -13 -19  103.76    6.84
   4 -13 -18    8.75    2.43
  -4 -13  18    9.20    2.09
  -4 -13  17   48.32    4.06
   4 -13 -17   52.77    4.64
  -4 -13  16    3.69    1.94
   4 -13 -16    4.37    2.14
  -4 -13  15   65.78    4.35
   4 -13 -15   65.17    4.83
  -4 -13  14   18.19    2.49
   4 -13 -14   21.36    2.95
   4 -13 -13    3.25    1.92
   4 -13 -12   44.15    3.94
  -4 -13  12   44.24    2.26
  -4 -13  11   14.70    1.46
   4 -13 -11   14.11    2.57
  -4 -13  10   15.10    1.52
   4 -13 -10    8.67    2.01
   4 -13  -9   10.00    2.23
   4 -13  -8   94.65    5.25
   4 -13  -7  770.05   17.90
   4 -13  -6    0.12    1.41
  -4 -13   6    0.20    0.96
  -4 -13   5  417.76    9.91
   4 -13  -5  414.73   11.65
   4 -13  -4   88.90    4.83
  -4 -13   4   88.84    3.89
  -4 -13   3    2.64    1.06
   4 -13  -3    1.93    1.43
  -4 -13   2    5.19    1.29
   4 -13  -2    7.99    1.83
   4 -13  -1   17.56    2.33
  -4 -13   1   19.39    2.15
  -4 -13   0   30.72    2.58
   4 -13   1   22.89    2.61
  -4 -13  -1   23.31    2.39
   4 -13   2   21.54    2.44
  -4 -13  -2   20.97    2.36
   4 -13   3  223.46    7.68
  -4 -13  -3  214.86    7.34
   4 -13   4    3.08    1.35
   4 -13   5   46.20    3.34
  -4 -13  -6   35.99    2.72
   4 -13   6   34.29    3.00
  -4 -13  -7  429.20   11.05
   4 -13   7  422.70   11.49
   4 -13   8    5.44    1.70
   4 -13   9   82.28    4.59
   4 -13  10   66.79    4.25
   4 -13  11  202.44    7.61
  -4 -13 -12    2.33    1.21
   4 -13  12    3.31    1.62
  -4 -13 -13   37.95    3.15
   4 -13  13   44.22    3.76
  -4 -13 -14   16.95    2.27
   4 -13  14   14.54    2.11
  -4 -13 -15   15.16    2.37
   4 -13  15   14.34    2.22
  -4 -13 -16   25.23    2.97
  -4 -13 -17    1.72    1.50
  -4 -13 -18    0.97    1.56
  -4 -14  20    2.04    2.09
  -4 -14  19    4.04    2.03
   4 -14 -18   15.21    2.87
  -4 -14  18   15.62    2.63
   4 -14 -17   -2.86    2.15
  -4 -14  17   -1.30    1.68
   4 -14 -16   11.62    2.62
  -4 -14  16    5.89    1.70
   4 -14 -15   16.07    2.93
  -4 -14  15   17.57    2.70
   4 -14 -14    5.94    2.32
   4 -14 -13  130.34    6.83
  -4 -14  12  103.41    3.84
   4 -14 -12  101.28    5.94
  -4 -14  11    8.57    1.32
   4 -14 -11    9.09    2.26
  -4 -14  10   20.25    1.87
   4 -14 -10   25.97    3.00
   4 -14  -9    4.24    1.90
   4 -14  -8    2.81    1.65
   4 -14  -7    0.36    1.64
  -4 -14   6  153.57    5.43
   4 -14  -6  154.69    6.80
  -4 -14   5   17.90    1.95
   4 -14  -5   13.91    2.30
   4 -14  -4   -0.54    1.56
  -4 -14   4    0.77    1.11
  -4 -14   3   29.25    2.48
   4 -14  -3   28.93    2.98
  -4 -14   2   11.13    1.83
   4 -14  -2    8.85    1.92
  -4 -14   1   13.18    2.00
   4 -14  -1    9.26    2.02
  -4 -14   0   61.19    3.66
   4 -14   1    3.53    1.58
  -4 -14  -1    2.96    1.37
   4 -14   2    5.75    1.93
  -4 -14  -2    0.25    1.53
   4 -14   3    3.89    1.66
  -4 -14  -3    3.00    1.55
   4 -14   4    2.32    1.48
  -4 -14  -4    2.00    1.65
   4 -14   5    1.71    1.49
  -4 -14  -5   -0.59    1.41
   4 -14   6  151.38    6.37
  -4 -14  -6  161.99    6.05
   4 -14   7   -0.02    1.43
   4 -14   8    2.45    1.40
   4 -14   9    6.21    1.78
   4 -14  10    3.81    1.73
   4 -14  11   34.77    3.25
  -4 -14 -12  101.26    5.01
   4 -14  12  111.37    5.75
  -4 -14 -13   51.85    3.70
   4 -14  13   46.54    3.92
  -4 -14 -14    0.68    1.38
   4 -14  14    3.84    1.93
  -4 -14 -15    4.42    1.79
  -4 -14 -16   17.59    2.72
  -4 -14 -17   31.99    3.39
  -4 -15  19    3.97    1.85
  -4 -15  18    8.71    2.27
   4 -15 -17   25.54    3.72
  -4 -15  17   16.70    2.55
   4 -15 -16   -1.81    1.98
  -4 -15  16   -0.83    1.91
   4 -15 -15   27.26    3.55
  -4 -15  15   17.68    2.56
   4 -15 -14   69.88    5.27
   4 -15 -13  116.69    6.64
   4 -15 -12    9.92    2.50
  -4 -15  11  140.42    4.93
   4 -15 -11  133.72    7.02
  -4 -15  10   11.10    1.53
   4 -15 -10   13.70    2.66
   4 -15  -9    3.65    1.86
   4 -15  -8   14.28    2.48
   4 -15  -7   20.44    2.97
  -4 -15   6   22.07    2.18
   4 -15  -6   24.05    2.97
  -4 -15   5   -2.96    1.43
   4 -15  -5   -1.71    1.65
   4 -15  -4   12.10    2.35
  -4 -15   4   13.55    1.89
  -4 -15   3   17.61    2.16
   4 -15  -3   14.19    2.42
  -4 -15   2    2.68    1.36
   4 -15  -2    4.48    1.82
  -4 -15   1   82.78    4.43
   4 -15  -1   84.77    4.98
  -4 -15   0    1.82    1.35
   4 -15   1  317.97   10.11
  -4 -15  -1  298.47    9.14
   4 -15   2   50.30    3.78
  -4 -15  -2   45.37    3.55
   4 -15   3  105.26    5.47
  -4 -15  -3  110.33    5.47
   4 -15   4    3.52    1.56
  -4 -15  -4    5.24    1.72
   4 -15   5  119.76    5.81
  -4 -15  -5  117.25    5.88
   4 -15   6   15.52    2.37
  -4 -15  -6   19.47    2.76
   4 -15   7  169.24    7.01
  -4 -15  -7  160.67    7.20
   4 -15   8    4.86    1.63
  -4 -15  -8    6.29    1.95
   4 -15   9   78.94    4.82
   4 -15  10   67.29    4.47
   4 -15  11    2.01    1.59
   4 -15  12   36.12    3.42
  -4 -15 -13   44.41    3.63
   4 -15  13   42.01    3.75
  -4 -15 -14   22.77    2.85
   4 -15  14   22.21    2.94
  -4 -15 -15    2.70    1.42
  -4 -16  18    3.51    1.82
  -4 -16  17    1.49    1.94
  -4 -16  16   18.54    2.74
   4 -16 -15    5.96    2.32
  -4 -16  15    0.55    1.78
   4 -16 -14  116.99    6.96
   4 -16 -13    1.76    1.87
   4 -16 -12  352.88   12.31
   4 -16 -11    1.99    1.74
  -4 -16  10   15.60    1.94
   4 -16 -10   12.89    2.78
   4 -16  -9   17.33    2.84
   4 -16  -8   41.71    4.06
   4 -16  -7   -1.26    1.90
  -4 -16   6    1.83    1.30
   4 -16  -6    2.68    1.85
  -4 -16   5   39.52    2.96
   4 -16  -5   36.20    3.54
   4 -16  -4  199.80    8.19
  -4 -16   4  187.18    6.79
   4 -16  -3   15.26    2.50
  -4 -16   3   15.88    2.20
  -4 -16   2   16.49    2.23
   4 -16  -2   16.24    2.71
   4 -16  -1    0.17    1.55
  -4 -16   1    0.61    1.39
  -4 -16   0  645.10   15.46
   4 -16   1    1.72    1.78
  -4 -16  -1   -2.62    1.77
   4 -16   2  429.40   12.41
  -4 -16  -2  397.52   11.49
   4 -16   3   11.31    2.18
  -4 -16  -3   11.31    2.23
   4 -16   4  128.31    6.23
  -4 -16  -4  123.53    6.09
   4 -16   5   -0.41    1.57
  -4 -16  -5   -0.69    1.70
   4 -16   6  109.21    5.72
  -4 -16  -6  119.93    6.25
   4 -16   7    7.44    1.96
  -4 -16  -7    8.53    2.36
   4 -16   8   36.13    3.42
  -4 -16  -8   33.18    3.71
   4 -16   9   -3.16    1.70
  -4 -16  -9    2.94    1.84
  -4 -16 -10  198.41    8.75
   4 -16  10  210.28    8.24
  -4 -16 -11   44.95    4.24
   4 -16  11   46.05    3.86
   4 -16  12   13.98    2.50
  -4 -16 -13    0.67    1.50
   4 -16  13    2.83    1.77
  -4 -17  16    1.88    1.63
   4 -17 -14   12.58    2.94
   4 -17 -13  151.38    8.08
   4 -17 -12    1.11    1.89
   4 -17 -11  198.17    9.10
  -4 -17  10   13.78    1.83
   4 -17 -10   14.33    2.82
   4 -17  -9   81.79    5.54
   4 -17  -8   15.51    2.93
   4 -17  -7   71.27    5.27
   4 -17  -6    2.19    1.83
   4 -17  -5  115.09    6.35
  -4 -17   5  110.21    5.24
   4 -17  -4   38.07    3.77
  -4 -17   4   33.66    2.93
   4 -17  -3  205.59    8.57
  -4 -17   3  210.55    7.55
   4 -17  -2  160.14    7.44
  -4 -17   2  163.82    6.62
   4 -17  -1  127.03    6.52
  -4 -17   1  129.61    6.00
  -4 -17   0    3.51    2.12
   4 -17   1  446.78   13.08
  -4 -17  -1  423.45   12.23
   4 -17   2    7.69    2.07
  -4 -17  -2   13.42    2.41
   4 -17   3  172.05    7.53
  -4 -17  -3  172.27    7.32
   4 -17   4    0.35    1.53
  -4 -17  -4    2.79    1.75
   4 -17   5   69.11    4.72
  -4 -17  -5   64.34    4.62
   4 -17   6    2.49    1.69
  -4 -17  -6   -0.49    1.64
   4 -17   7    1.89    1.48
  -4 -17  -7    1.93    1.77
   4 -17   8   43.39    3.83
  -4 -17  -8   34.84    3.75
  -4 -17  -9  262.70   10.24
   4 -17   9  257.58    9.63
   4 -17  10    0.30    1.59
  -4 -17 -10    3.17    2.18
  -4 -17 -11   70.10    5.43
   4 -17  11   63.86    4.60
  -4 -17 -12   14.13    2.84
   4 -17  12   12.45    2.28
   4 -18 -11   14.98    2.93
   4 -18 -10    6.50    2.39
   4 -18  -9    5.10    1.99
   4 -18  -8   54.26    4.74
   4 -18  -7   -1.47    1.78
   4 -18  -6    2.17    1.82
  -4 -18   5   -3.26    1.75
   4 -18  -5    1.21    1.78
   4 -18  -4  134.44    7.00
  -4 -18   4  123.94    5.83
   4 -18  -3    3.38    2.08
  -4 -18   3    0.49    1.40
  -4 -18   2    6.01    1.80
   4 -18  -2    6.49    2.13
  -4 -18   1   59.40    4.21
  -4 -18   0  308.23   10.13
   4 -18   1    8.17    2.28
  -4 -18  -1    9.78    2.13
   4 -18   2  204.22    8.52
  -4 -18  -2  187.06    7.96
   4 -18   3    5.04    1.93
  -4 -18  -3    3.18    1.84
   4 -18   4   81.68    5.30
  -4 -18  -4   72.45    5.06
   4 -18   5    0.18    1.58
  -4 -18  -5   -0.45    1.71
   4 -18   6   32.99    3.39
  -4 -18  -6   22.16    2.88
   4 -18   7    3.19    1.80
  -4 -18  -7    4.13    2.00
   4 -18   8   22.93    3.00
  -4 -18  -8   20.37    3.06
   4 -18   9    3.67    1.94
  -4 -18  -9    4.13    2.06
  -4 -18 -10  212.33    9.66
   4 -18  10  184.09    8.09
   4 -18  11    4.29    1.75
   4 -18  12    2.16    1.65
   4 -19  -9    8.18    2.61
   4 -19  -8   13.89    2.68
   4 -19  -7    3.18    1.97
   4 -19  -6    8.89    2.64
  -4 -19   5    0.33    1.41
   4 -19  -5    3.78    2.20
   4 -19  -4   16.50    2.95
  -4 -19   4    7.20    1.85
   4 -19  -3   31.30    3.84
  -4 -19   3   26.23    3.08
   4 -19  -2    7.25    2.35
  -4 -19   2    7.09    2.03
  -4 -19   1   35.64    3.39
   4 -19   0   12.99    2.68
  -4 -19   0    6.50    2.12
   4 -19   1   76.90    5.40
  -4 -19  -1   72.99    4.95
   4 -19   2    4.45    2.16
  -4 -19  -2    2.52    1.90
   4 -19   3   13.91    2.62
  -4 -19  -3   19.26    3.03
   4 -19   4   11.56    2.40
  -4 -19  -4   10.98    2.60
   4 -19   5   11.16    2.49
  -4 -19  -5   10.18    2.56
   4 -19   6    5.70    2.09
  -4 -19  -6    7.07    2.41
   4 -19   7    6.30    2.00
  -4 -19  -7    4.06    1.81
   4 -19   8   44.37    4.07
  -4 -19  -8   35.23    3.85
  -4 -19  -9   54.21    4.87
   4 -19   9   48.21    4.38
   4 -19  10    7.35    2.35
   4 -19  11   -0.28    1.81
   4 -20  -6   69.82    5.45
   4 -20  -5    1.31    2.09
   4 -20  -4   -1.88    2.09
  -4 -20   4    4.36    1.83
   4 -20  -3    2.87    1.73
  -4 -20   3    2.95    1.68
  -4 -20   2    1.89    1.80
  -4 -20   1    4.79    2.03
   4 -20   0   26.01    3.50
  -4 -20   0   27.88    3.35
   4 -20   1   -0.55    2.05
  -4 -20  -1    0.75    1.81
   4 -20   2    5.22    2.18
  -4 -20  -2    2.78    1.78
   4 -20   3   16.31    2.94
  -4 -20  -3   10.60    2.48
   4 -20   4   -3.07    2.01
  -4 -20  -4    3.61    2.09
   4 -20   5    6.22    2.14
  -4 -20  -5   10.79    2.60
   4 -20   6   77.65    5.43
  -4 -20  -6   70.89    5.35
   4 -20   7    9.77    2.35
  -4 -20  -7   10.26    2.66
   4 -20   8    6.05    2.24
   4 -20   9    6.48    2.08
   4 -20  10    3.66    2.20
  -4 -21   4   10.45    2.24
  -4 -21   3    2.19    1.66
  -4 -21   2    6.83    2.16
   4 -21  -1    2.82    2.30
  -4 -21   1   -0.34    1.73
   4 -21   0    2.60    1.81
  -4 -21   0    4.72    2.06
   4 -21   1    2.80    1.97
  -4 -21  -1    0.04    1.88
   4 -21   2   11.34    2.73
  -4 -21  -2   10.09    2.54
   4 -21   3   56.54    4.93
  -4 -21  -3   54.66    4.81
   4 -21   4   22.57    3.44
  -4 -21  -4   16.19    2.98
   4 -21   5    6.11    2.31
  -4 -21  -5    1.39    2.10
   4 -21   6    1.41    1.89
   4 -21   7  108.18    6.66
   4 -21   8   12.18    2.63
   4 -21   9   18.55    3.29
  -4 -22   4   51.42    4.34
  -4 -22   3   -0.74    1.82
  -4 -22   2   -0.18    1.81
  -4 -22   1    2.65    2.07
  -4 -22   0    0.81    1.72
  -4 -22  -1    5.17    2.00
  -4 -22  -2   27.87    3.55
  -4 -23   2   -0.04    2.13
  -4 -23   1   -0.92    2.01
   5   0 -22    1.95    1.79
   5   0 -21   -5.04    2.37
   5   0 -20  121.27    4.70
   5   0 -20  125.41    6.95
   5   0 -19    3.01    0.95
   5   0 -19    3.46    1.92
   5   0 -18  366.23    7.12
   5   0 -18  355.27   11.76
   5   0 -18  379.04    8.98
   5   0 -17    1.11    0.62
   5   0 -17   -1.34    1.73
   5   0 -17    1.95    0.88
   5   0 -17    1.14    0.66
   5   0 -16   23.05    1.34
   5   0 -16   23.26    1.79
   5   0 -16   22.78    1.37
   5   0 -16   29.14    3.08
   5   0 -15    0.47    0.56
   5   0 -15    0.29    0.79
   5   0 -15   -0.66    1.35
   5   0 -14  825.21   14.28
   5   0 -14  865.58   15.53
   5   0 -14  823.60   18.50
   5   0 -14  854.33   18.19
   5   0 -13    4.43    0.74
   5   0 -13    3.91    0.95
   5   0 -13    5.38    1.43
   5   0 -13    6.38    1.74
   5   0 -12   50.50    1.87
   5   0 -12   56.81    3.32
   5   0 -12   53.40    2.26
   5   0 -12   55.19    3.52
   5   0 -11    6.48    0.76
   5   0 -11    6.75    0.95
   5   0 -11    5.26    1.30
   5   0 -11    7.26    1.41
   5   0 -10 1067.18   19.80
   5   0 -10 1016.57   17.24
   5   0 -10 1070.29   17.60
   5   0 -10 1038.86   20.18
   5   0  -9    7.33    0.84
   5   0  -9    7.45    1.22
   5   0  -9    5.74    0.82
   5   0  -9   10.12    1.47
   5   0  -8    0.99    0.77
   5   0  -8    0.54    0.50
   5   0  -8    1.06    0.60
   5   0  -8    0.47    0.84
   5   0  -7   -0.52    0.80
   5   0  -7    0.86    0.55
   5   0  -7   -0.65    0.83
   5   0  -7    0.22    0.53
   5   0  -6 1512.15   25.08
  -5   0   6 1486.32   23.85
   5   0  -6 1510.91   24.30
  -5   0   5    3.09    0.70
  -5   0   5    1.64    0.57
   5   0  -5    2.10    0.78
  -5   0   4  936.37   16.21
  -5   0   4  962.79   15.77
   5   0  -4  949.24   16.45
  -5   0   3    6.26    1.04
   5   0  -3    5.90    1.17
   5   0  -2  518.20   10.12
  -5   0   2  489.38    9.70
  -5   0   1    3.02    0.92
   5   0  -1    2.35    1.26
   5   0   0    5.78    1.44
  -5   0   0    4.80    1.08
  -5   0  -1    3.11    1.16
   5   0   1    3.73    1.37
   5   0   2 1132.39   20.65
  -5   0  -2 1218.16   21.16
  -5   0  -3   10.90    1.48
   5   0   3   11.29    1.72
   5   0   4 1896.03   32.49
  -5   0  -4 1972.00   32.80
   5   0   5    4.28    0.89
  -5   0  -5    3.04    1.12
   5   0   5    2.69    1.25
   5   0   6  718.93   13.67
   5   0   6  746.42   14.70
  -5   0  -6  735.41   14.87
   5   0   7    1.94    0.92
  -5   0  -7    4.29    1.25
   5   0   7    2.98    1.16
   5   0   8   65.56    3.31
   5   0   8   65.32    3.07
   5   0   8   64.46    3.39
  -5   0  -8   69.01    3.51
   5   0   9   -1.27    0.98
   5   0   9    0.10    1.23
  -5   0  -9    0.03    1.01
   5   0  10  596.65   13.57
   5   0  10  593.61   13.04
  -5   0 -10  603.05   13.62
   5   0  11    8.94    1.81
   5   0  11    9.47    1.58
  -5   0 -11    8.83    1.70
   5   0  12  887.45   18.27
   5   0  12  875.19   18.81
  -5   0 -12  875.73   18.58
   5   0  13    0.59    1.39
   5   0  13    2.68    1.40
  -5   0 -13    1.02    1.14
   5   0  14  110.29    5.63
  -5   0 -14  112.32    5.36
   5   0  15   -1.80    1.47
   5   0  16   59.14    4.53
   5   0  17    0.19    1.78
   5   0  18   26.44    3.49
   5   0  19    9.61    2.54
   5   0  20   15.93    2.97
   5   0  21    1.18    1.87
   5   1 -22   11.70    2.61
   5  -1 -22    9.49    2.31
   5  -1 -21   46.65    4.40
   5   1 -21   47.19    4.57
   5  -1 -21   54.06    3.30
   5  -1 -20   17.89    3.11
   5   1 -20   16.95    2.95
   5  -1 -20   15.95    1.88
   5   1 -20   15.64    1.62
   5   1 -19  582.11   16.18
   5  -1 -19  575.46   16.19
   5   1 -19  589.54   12.23
   5  -1 -19  580.74   12.96
   5   1 -18   17.57    2.53
   5  -1 -18   18.23    2.72
   5  -1 -18   17.75    1.44
   5  -1 -18   18.85    1.87
   5   1 -18   16.62    1.54
   5   1 -17  375.90   11.81
   5  -1 -17  386.96   12.00
   5   1 -17  381.03    8.65
   5  -1 -17  394.86    9.39
   5   1 -16    5.99    0.49
   5  -1 -16   10.00    2.14
   5   1 -16    7.14    1.75
   5  -1 -16    7.27    1.22
   5   1 -16    9.13    1.18
   5   1 -16    4.27    0.48
   5  -1 -15  106.29    5.53
   5   1 -15  119.49    5.75
   5  -1 -15  121.88    4.22
   5   1 -15  119.83    3.72
   5   1 -15  104.04    2.50
   5   1 -15  110.26    2.43
   5   1 -14    1.70    0.41
   5   1 -14    1.04    1.36
   5  -1 -14   -0.92    1.49
   5   1 -14    2.19    1.26
   5  -1 -14    2.27    0.94
   5   1 -14    0.63    0.70
   5   1 -14    1.19    0.41
   5  -1 -13   54.35    3.43
   5  -1 -13   49.82    3.56
   5   1 -13   49.57    3.23
   5   1 -13   54.72    3.65
   5  -1 -13   51.38    2.50
   5   1 -13   50.24    2.14
   5   1 -13   53.61    1.57
   5   1 -12   19.63    2.23
   5  -1 -12   21.44    2.19
   5  -1 -12   16.26    2.18
   5   1 -12   22.92    2.17
   5  -1 -12   18.21    1.54
   5   1 -12   19.66    1.32
   5   1 -12   20.75    0.97
   5  -1 -11  460.38   11.01
   5   1 -11  460.09   10.78
   5   1 -11  456.56   11.27
   5  -1 -11  445.53   11.25
   5   1 -11  455.09    8.48
   5  -1 -11  458.12    9.21
   5   1 -11  467.12    7.99
   5  -1 -10    0.42    0.57
   5  -1 -10    0.13    0.90
   5  -1 -10   -0.56    1.04
   5   1 -10   -0.06    0.78
   5   1 -10   -0.06    0.90
   5   1 -10    0.35    0.53
   5  -1 -10   -0.45    0.69
   5   1 -10    0.60    0.51
   5   1  -9  308.97    7.60
   5  -1  -9  301.49    6.40
   5  -1  -9  313.40    7.87
   5   1  -9  317.14    8.13
   5  -1  -9  314.07    8.25
   5   1  -9  299.36    5.70
   5  -1  -9  307.32    6.55
   5   1  -9  313.16    5.85
   5  -1  -8   77.54    2.58
   5   1  -8   82.01    3.20
   5  -1  -8   81.04    3.37
   5   1  -8   78.40    3.44
   5   1  -8   77.96    2.00
   5  -1  -8   73.94    2.50
   5   1  -8   76.47    2.24
   5  -1  -7 1605.41   26.94
   5  -1  -7 1546.51   25.71
   5   1  -7 1612.29   26.56
   5   1  -7 1617.66   27.22
   5  -1  -7 1566.27   25.59
   5   1  -7 1587.56   25.33
   5   1  -6    4.14    0.89
  -5  -1   6    3.92    0.66
   5  -1  -6    3.01    0.78
   5   1  -6    3.84    1.04
   5  -1  -6    5.54    0.82
  -5   1   6    4.72    0.85
  -5  -1   6    3.55    0.50
   5   1  -6    4.85    0.84
  -5  -1   5  809.89   13.99
   5   1  -5  845.28   14.33
   5   1  -5  866.65   15.04
  -5   1   5  823.65   14.15
  -5  -1   5  811.02   13.36
   5   1  -5  808.63   14.23
   5  -1  -5  841.85   14.52
   5   1  -4  121.10    3.16
  -5   1   4  125.50    3.57
  -5   1   4  126.33    3.38
   5  -1  -4  126.43    3.67
   5   1  -4  119.12    3.47
  -5  -1   4  126.03    3.40
  -5   1   3  551.57   10.21
  -5   1   3  545.19    9.84
   5   1  -3  520.86   10.02
   5  -1  -3  551.82   10.28
  -5  -1   3  483.93    9.87
  -5   1   2   27.22    1.75
  -5  -1   2   27.66    1.76
   5  -1  -2   30.07    1.87
   5   1  -2   24.89    1.70
  -5  -1   1  154.57    4.49
  -5   1   1  151.77    4.32
   5   1  -1  140.13    4.21
   5  -1  -1  156.48    4.57
   5   1   0    5.08    1.30
   5  -1   0    6.16    1.47
  -5  -1   0    5.49    1.10
  -5   1   0    4.21    1.01
   5   1   1    7.42    1.42
   5  -1   1    6.54    1.48
  -5   1  -1    8.47    1.34
  -5  -1  -1    3.57    1.04
   5   1   2   58.68    2.80
  -5   1  -2   53.80    2.75
   5  -1   2   51.49    2.83
  -5  -1  -2   58.49    2.79
   5   1   3 1696.99   28.76
   5  -1   3 1629.38   28.79
  -5  -1  -3 1742.90   28.86
  -5   1  -3 1702.42   29.05
   5   1   4   25.92    1.43
   5   1   4   25.75    2.09
  -5  -1  -4   25.23    1.92
  -5   1  -4   25.61    2.03
   5  -1   4   23.47    2.01
   5   1   5    1.21    0.65
   5   1   5    1.16    1.14
  -5  -1  -5    1.57    1.00
   5  -1   5   -0.31    1.16
  -5   1  -5    2.76    1.23
   5   1   6  101.58    3.74
   5   1   6  100.87    3.39
  -5  -1  -6  107.81    4.20
  -5   1  -6  113.06    4.47
   5  -1   6   96.71    4.03
   5   1   7  985.42   17.82
   5   1   7  995.70   18.57
   5  -1   7 1012.50   18.40
   5  -1   7  945.10   18.78
  -5   1  -7 1025.29   19.63
  -5  -1  -7 1022.01   19.14
   5   1   8  137.19    4.49
   5  -1   8  142.96    4.81
   5   1   8  139.37    4.94
   5  -1   8  133.64    4.96
  -5   1  -8  141.06    5.34
  -5  -1  -8  144.11    5.15
   5   1   9   12.76    1.77
   5   1   9   11.89    1.49
   5  -1   9   10.95    1.50
   5  -1   9   11.22    1.73
  -5   1  -9   13.38    1.83
  -5  -1  -9   12.89    1.75
   5   1  10   86.21    4.18
   5  -1  10   83.91    4.19
   5  -1  10   87.73    4.01
   5   1  10   78.31    3.66
   5  -1  10   82.69    3.90
  -5   1 -10   86.81    4.31
  -5  -1 -10   83.29    4.09
   5  -1  11 1240.15   24.37
   5  -1  11 1263.39   23.91
   5   1  11 1232.89   23.44
   5   1  11 1258.05   24.29
  -5   1 -11 1264.68   24.53
  -5  -1 -11 1282.52   24.24
   5  -1  12  113.83    5.06
   5  -1  12  101.55    5.04
   5   1  12  110.79    4.80
   5   1  12  114.10    5.25
  -5  -1 -12  120.40    5.19
  -5   1 -12  116.93    5.32
   5  -1  13 1253.02   24.89
   5   1  13 1271.56   24.71
   5  -1  13 1235.17   25.35
   5   1  13 1230.21   25.21
  -5  -1 -13 1291.74   25.03
  -5   1 -13 1322.86   25.58
   5  -1  14    2.66    1.76
   5   1  14    3.12    1.58
  -5  -1 -14    1.60    1.38
  -5   1 -14    1.99    1.24
   5  -1  15    7.51    1.97
   5   1  15    9.21    2.21
  -5   1 -15    9.35    1.94
   5   1  16   51.18    4.07
   5  -1  16   50.12    4.17
   5  -1  17   75.27    5.24
   5   1  17   76.68    5.17
   5  -1  18    4.67    2.07
   5   1  18    4.35    2.13
   5   1  19   43.86    4.13
   5  -1  19   43.96    4.40
   5  -1  20    4.53    2.31
   5   1  20    2.90    1.92
   5   1  21   56.99    5.14
   5  -1  21   53.69    5.05
   5   2 -22    0.81    2.15
   5  -2 -22    0.48    2.04
   5  -2 -21   19.07    2.21
   5   2 -21   22.41    3.61
   5  -2 -21   21.62    3.25
   5  -2 -20  129.86    5.35
   5  -2 -20  129.59    7.01
   5   2 -20  126.90    7.03
   5  -2 -19    9.00    1.55
   5   2 -19    7.03    1.13
   5  -2 -19    8.83    2.29
   5   2 -19   12.30    2.62
   5  -2 -18  266.96    7.72
   5   2 -18  259.25    6.46
   5  -2 -18  258.74    9.76
   5   2 -18  272.13    9.95
  -5  -2  17    1.68    1.40
   5  -2 -17    0.56    1.00
   5   2 -17    0.84    0.74
   5   2 -17    2.37    1.49
   5  -2 -17    3.13    1.72
  -5  -2  16   21.31    2.51
   5   2 -16   21.34    1.54
   5  -2 -16   24.76    2.16
   5  -2 -16   26.08    2.99
   5   2 -16   22.00    2.86
  -5  -2  15   15.62    2.18
   5  -2 -15   16.46    1.80
   5   2 -15   16.23    1.29
   5  -2 -15   17.81    2.46
   5   2 -15   20.23    2.58
  -5  -2  14   52.25    3.46
   5  -2 -14   56.16    2.96
   5   2 -14   54.68    2.13
   5   2 -14   52.89    3.77
   5  -2 -14   57.25    3.86
  -5  -2  13  173.43    6.18
   5  -2 -13  193.82    6.85
   5  -2 -13  186.21    5.48
   5   2 -13  193.51    4.32
   5  -2 -13  181.26    6.93
   5   2 -13  184.11    6.80
   5  -2 -12   39.23    2.88
  -5  -2  12   38.41    2.71
   5   2 -12   32.97    1.34
   5  -2 -12   40.72    2.37
   5   2 -12   36.85    2.95
   5  -2 -12   36.61    3.00
   5  -2 -11  447.72   10.82
  -5  -2  11  421.31   10.08
   5  -2 -11  428.63    9.21
   5   2 -11  439.92    7.63
   5   2 -11  434.25   10.25
   5   2 -11  434.33   10.87
   5  -2 -11  449.45   11.20
  -5  -2  10   19.70    1.78
   5  -2 -10   22.24    2.08
   5   2 -10   20.23    0.87
   5  -2 -10   20.81    1.58
   5   2 -10   20.90    2.05
   5   2 -10   21.92    1.79
  -5  -2   9  130.00    4.31
   5  -2  -9  140.82    4.90
   5   2  -9  130.43    4.34
   5   2  -9  134.60    4.82
   5   2  -9  133.42    2.63
   5  -2  -9  132.49    4.00
   5  -2  -8   22.11    1.84
   5  -2  -8   22.06    1.50
   5   2  -8   23.75    1.89
   5   2  -8   24.37    1.70
   5  -2  -8   20.71    1.52
   5   2  -8   20.02    0.85
   5  -2  -7   82.46    2.87
   5   2  -7   81.64    2.97
   5   2  -7   80.31    3.32
   5  -2  -7   82.65    2.84
   5   2  -7   79.59    2.17
   5   2  -6 1185.54   19.77
   5  -2  -6 1162.54   19.97
  -5  -2   6 1159.96   18.98
   5   2  -6 1214.32   20.60
   5  -2  -6 1192.52   19.87
  -5   2   6 1220.21   19.99
   5   2  -6 1146.15   19.02
   5   2  -5  109.08    3.02
   5  -2  -5  109.08    3.41
   5   2  -5  110.70    3.48
  -5   2   5  107.31    3.25
   5  -2  -5  107.42    3.25
  -5  -2   5  113.83    2.28
  -5  -2   5  100.81    2.86
   5   2  -5  105.17    2.94
   5   2  -4  965.20   15.75
   5  -2  -4  973.76   16.83
   5   2  -4  982.53   16.47
  -5   2   4  962.82   16.56
   5   2  -4  953.44   16.22
  -5  -2   4  926.66   16.29
   5   2  -3   18.70    0.94
   5  -2  -3   20.52    1.62
  -5   2   3   23.67    1.59
   5   2  -3   20.67    1.26
  -5   2   3   22.53    1.50
  -5  -2   3   20.90    1.46
   5   2  -3   20.64    1.44
   5   2  -2   13.07    0.94
  -5   2   2   11.35    1.23
   5  -2  -2   12.54    1.49
   5   2  -2   12.80    1.32
  -5  -2   2   12.36    1.24
  -5   2   1   16.70    1.44
  -5  -2   1   15.54    1.42
   5  -2  -1   15.90    1.65
   5   2  -1   14.68    1.52
   5   2   0  314.30    7.14
  -5  -2   0  315.54    7.12
  -5   2   0  310.84    7.27
   5  -2   0  329.65    7.44
  -5   2  -1    8.41    1.23
  -5  -2  -1    8.71    1.26
   5  -2   1   12.15    1.75
   5   2   1   10.62    1.56
   5   2   2   22.31    0.88
   5   2   2   26.58    2.09
   5  -2   2   26.14    2.32
  -5   2  -2   23.13    1.85
  -5  -2  -2   25.16    1.82
   5   2   3    3.49    0.57
   5   2   3    4.30    0.88
  -5  -2  -3    4.48    1.01
  -5   2  -3    3.78    1.14
   5  -2   3    1.96    1.34
   5   2   4  312.01    6.19
   5   2   4  319.55    6.88
  -5  -2  -4  329.91    7.85
   5  -2   4  306.51    7.86
  -5   2  -4  304.81    7.78
   5   2   5    7.19    1.15
   5   2   5    9.76    0.97
  -5  -2  -5   11.19    1.54
   5  -2   5   11.16    1.65
  -5   2  -5    6.00    1.20
   5   2   6  165.92    4.41
   5   2   6  171.15    4.98
  -5  -2  -6  169.57    5.48
   5  -2   6  162.35    5.41
  -5   2  -6  162.47    5.46
   5   2   7   53.86    2.45
   5   2   7   59.07    2.92
   5  -2   7   52.96    3.08
  -5  -2  -7   59.60    3.13
  -5   2  -7   59.02    3.23
   5  -2   8  260.74    7.19
   5   2   8  251.28    6.50
   5   2   8  261.96    7.19
  -5   2  -8  267.29    7.62
  -5  -2  -8  265.20    7.48
   5  -2   8  239.07    7.13
   5   2   9    2.10    0.97
   5  -2   9    3.72    1.23
   5   2   9    4.25    1.27
   5  -2   9    4.33    1.28
  -5   2  -9    4.76    1.42
  -5  -2  -9    4.93    1.33
   5   2  10  168.91    6.03
   5  -2  10  174.89    6.00
   5   2  10  174.76    5.63
   5  -2  10  163.01    5.78
  -5  -2 -10  173.33    6.10
  -5   2 -10  169.47    6.15
   5   2  11  115.66    5.06
   5  -2  11  115.83    5.16
   5   2  11  107.97    4.51
   5  -2  11  112.54    4.87
   5  -2  11  108.94    4.68
  -5  -2 -11  118.29    5.05
  -5   2 -11  108.15    4.87
   5   2  12  410.87   10.54
   5  -2  12  422.82   11.50
   5  -2  12  421.71   11.18
   5   2  12  421.67   11.29
  -5  -2 -12  433.88   11.21
  -5   2 -12  427.72   11.22
   5  -2  13   87.00    4.90
   5   2  13   91.95    4.87
  -5   2 -13   96.08    4.81
  -5  -2 -13   96.31    4.79
   5   2  14   77.08    4.61
   5  -2  14   77.37    4.79
  -5   2 -14   80.04    4.54
   5  -2  15   21.95    2.71
   5   2  15   28.16    2.99
  -5   2 -15   28.08    2.88
   5   2  16   13.68    2.41
   5  -2  16   10.45    2.27
   5   2  17   13.95    2.52
   5  -2  17   14.04    2.65
   5   2  18  109.53    6.31
   5  -2  18  115.70    6.71
   5   2  19   53.24    4.67
   5  -2  19   62.67    5.23
   5  -2  20    1.75    2.28
   5   2  20    3.14    1.95
   5  -2  21   14.35    3.16
   5   2  21   20.10    3.29
   5  -3 -22   10.84    2.65
   5  -3 -21   32.59    3.07
   5  -3 -21   30.87    3.81
  -5  -3  20   58.81    4.55
   5  -3 -20   64.67    3.94
   5  -3 -20   64.33    4.99
   5   3 -20   63.40    5.07
  -5  -3  19  174.79    7.61
   5  -3 -19  185.42    6.64
   5  -3 -19  175.28    8.14
   5   3 -19  169.82    8.04
  -5  -3  18   90.04    5.22
   5   3 -18   86.48    3.05
   5  -3 -18   93.61    4.49
   5   3 -18  101.78    5.93
   5  -3 -18   91.34    5.76
  -5  -3  17   21.43    2.66
   5   3 -17   22.22    1.49
   5  -3 -17   25.08    2.44
   5   3 -17   22.08    2.83
   5  -3 -17   20.34    2.84
  -5  -3  16   20.88    2.49
   5   3 -16   24.22    1.44
   5  -3 -16   27.63    2.51
   5  -3 -16   24.29    2.85
   5   3 -16   24.36    2.86
  -5  -3  15   38.28    3.11
   5  -3 -15   42.15    2.80
   5   3 -15   40.53    1.73
   5   3 -15   41.70    3.44
   5  -3 -15   32.57    3.21
  -5  -3  14    1.02    1.15
   5  -3 -14    1.94    1.05
   5   3 -14    1.68    0.59
   5   3 -14    3.18    1.58
   5  -3 -14    2.77    1.40
   5  -3 -13  352.52    9.94
  -5  -3  13  331.16    9.13
   5   3 -13  339.84    6.20
   5  -3 -13  346.82    8.44
   5   3 -13  333.13    9.73
   5  -3 -13  341.25   10.15
  -5  -3  12   15.84    1.82
   5  -3 -12   20.69    2.14
   5  -3 -12   16.85    1.69
   5   3 -12   16.78    0.79
   5   3 -12   15.81    1.99
   5  -3 -12   18.42    2.30
  -5  -3  11  141.78    5.04
   5  -3 -11  146.32    5.55
   5  -3 -11  151.72    4.77
   5   3 -11  150.51    5.62
   5  -3 -10   19.17    2.01
  -5  -3  10   15.10    1.63
   5  -3 -10   18.70    1.72
   5   3 -10   15.29    1.75
   5  -3  -9   56.33    3.12
  -5  -3   9   50.95    2.59
   5  -3  -9   51.54    2.57
   5   3  -9   54.31    3.02
  -5  -3   8   50.78    2.42
   5  -3  -8   53.91    2.56
   5   3  -8   54.64    2.87
  -5  -3   7  730.79   13.38
  -5  -3   7  739.50   12.05
   5   3  -7  743.42   14.24
   5  -3  -7  749.08   13.76
  -5  -3   6   55.99    2.13
   5  -3  -6   56.13    2.50
   5   3  -6   55.59    2.55
   5  -3  -6   58.80    2.53
  -5   3   6   55.44    2.43
  -5  -3   6   51.70    1.78
   5  -3  -5  162.29    4.52
   5   3  -5  155.08    4.26
  -5   3   5  153.52    4.33
   5  -3  -5  158.76    4.41
  -5  -3   5  157.75    3.90
   5  -3  -4   72.77    2.88
   5   3  -4   72.29    2.47
  -5   3   4   69.13    2.72
  -5  -3   4   68.69    2.44
   5  -3  -3  648.02   12.29
   5   3  -3  644.88   11.21
  -5   3   3  651.22   12.22
  -5  -3   3  641.59   11.76
   5  -3  -2   57.24    2.68
  -5   3   2   61.08    2.64
   5   3  -2   60.37    1.79
  -5   3   2   64.73    2.63
  -5  -3   2   60.82    2.44
   5   3  -1  226.49    4.10
  -5   3   1  238.51    5.91
   5  -3  -1  236.42    5.99
  -5  -3   1  238.12    5.65
   5  -3   0   27.23    2.06
  -5   3   0   29.00    1.89
  -5  -3   0   26.17    1.79
   5   3   1  394.56    7.00
  -5   3  -1  408.30    8.87
  -5  -3  -1  405.84    8.73
   5  -3   1  422.92    9.06
   5   3   2   87.70    2.49
  -5  -3  -2   90.67    3.44
  -5   3  -2   93.05    3.55
   5  -3   2   87.28    3.64
   5   3   3   92.60    2.83
  -5  -3  -3   95.53    3.69
  -5   3  -3   90.71    3.64
   5  -3   3   92.92    3.89
   5   3   4  176.87    4.51
  -5  -3  -4  175.69    5.34
   5  -3   4  169.26    5.60
  -5   3  -4  157.79    5.19
  -5   3  -5   20.44    1.88
   5   3   5   22.73    1.69
   5  -3   5   17.78    1.93
  -5  -3  -5   21.82    1.91
   5   3   6    7.08    1.19
   5  -3   6    6.85    1.54
  -5   3  -6    7.66    1.35
  -5  -3  -6    7.14    1.29
   5   3   7  343.89    8.18
  -5  -3  -7  344.86    8.66
   5  -3   7  314.57    8.41
  -5   3  -7  313.56    8.41
   5   3   8    4.27    1.30
   5  -3   8    4.93    1.45
  -5  -3  -8    4.71    1.26
  -5   3  -8    3.63    1.20
   5   3   9   52.65    3.14
   5  -3   9   49.70    3.09
  -5  -3  -9   50.55    3.10
  -5   3  -9   46.22    3.07
   5  -3   9   45.65    2.99
   5   3  10   70.22    3.77
   5  -3  10   77.23    3.97
   5  -3  10   66.63    3.58
  -5  -3 -10   70.40    3.80
  -5   3 -10   72.71    3.84
   5  -3  11   21.53    2.21
   5   3  11   18.50    2.15
  -5   3 -11   21.61    2.23
  -5  -3 -11   18.46    2.08
   5  -3  11   19.54    2.14
   5   3  12  129.13    5.59
   5  -3  12  130.29    5.58
   5  -3  12  117.75    5.07
  -5   3 -12  127.83    5.36
  -5  -3 -12  129.98    5.55
   5  -3  13    9.76    2.08
   5   3  13    5.29    1.51
  -5   3 -13    8.40    1.66
   5  -3  14    9.70    2.04
   5   3  14    6.77    1.92
  -5   3 -14    8.35    1.71
   5  -3  15    3.11    1.88
   5   3  15    4.63    1.77
  -5   3 -15    5.94    1.46
   5   3  16   11.26    2.52
   5  -3  16   10.10    2.23
   5   3  17    4.72    2.14
   5  -3  17    3.82    2.00
   5   3  18   46.69    4.22
   5  -3  18   52.77    4.70
   5  -3  19  219.86    9.72
   5   3  19  220.54    9.49
   5   3  20   70.69    5.45
   5  -3  20   77.10    5.90
   5  -3  21    8.25    2.81
   5   3  21    9.97    3.00
  -5  -4  22    1.21    1.79
   5  -4 -22    1.05    1.36
   5  -4 -22   -0.76    1.93
  -5  -4  21   27.45    3.46
   5  -4 -21   32.68    2.93
   5  -4 -21   29.92    3.81
  -5  -4  20    5.25    2.07
   5  -4 -20    7.06    1.97
   5  -4 -20    6.92    2.20
  -5  -4  19   45.13    3.92
   5  -4 -19   46.50    3.54
   5  -4 -19   54.34    4.65
  -5  -4  18   24.06    2.89
   5   4 -18   23.75    1.43
   5  -4 -18   27.23    2.74
   5  -4 -18   26.46    3.27
  -5  -4  17  140.95    6.43
   5   4 -17  154.98    3.79
   5  -4 -17  153.14    5.99
   5  -4 -17  147.42    7.05
  -5  -4  16   16.57    2.30
   5  -4 -16   14.28    1.91
   5   4 -16   14.68    1.02
   5  -4 -16   17.57    2.61
   5   4 -16   18.07    2.75
  -5  -4  15   25.98    2.68
   5  -4 -15   26.14    2.42
   5   4 -15   28.13    1.20
   5  -4 -15   26.13    2.93
   5   4 -15   31.59    3.17
  -5  -4  14   17.08    2.01
   5  -4 -14   16.09    1.89
   5   4 -14   17.92    0.84
   5  -4 -14   20.78    2.61
   5   4 -14   23.13    2.66
  -5  -4  13    9.30    1.62
   5  -4 -13    9.59    1.51
   5   4 -13    9.30    1.80
   5  -4 -13    6.62    1.62
  -5  -4  12 1216.82   22.86
   5  -4 -12 1279.09   24.22
   5  -4 -12 1163.52   21.95
  -5  -4  12 1267.94   23.89
   5   4 -12 1254.90   24.02
   5  -4 -11    9.25    1.68
  -5  -4  11   10.31    1.53
   5  -4 -11    7.95    1.43
  -5  -4  11    8.40    1.60
   5   4 -11    8.48    1.58
   5  -4 -10 1252.71   23.35
  -5  -4  10 1195.14   21.93
   5  -4 -10 1247.30   22.13
   5   4 -10 1216.88   22.97
  -5  -4  10 1233.25   22.97
  -5  -4   9   14.02    1.49
   5  -4  -9   14.82    1.69
  -5  -4   9   17.12    1.83
   5   4  -9   14.22    1.68
  -5  -4   8    0.96    0.79
  -5  -4   8    2.78    0.97
   5   4  -8    3.28    0.94
   5  -4  -8    4.39    1.24
  -5  -4   7   30.39    1.73
   5   4  -7   30.01    2.07
  -5  -4   7   34.78    2.11
   5  -4  -7   31.64    2.08
  -5  -4   7   30.26    1.21
  -5  -4   6  189.36    4.45
  -5  -4   6  188.85    5.10
   5   4  -6  193.89    5.19
   5  -4  -6  189.41    5.27
  -5   4   6  185.76    5.17
  -5  -4   6  181.54    4.15
  -5  -4   5   18.32    1.08
   5  -4  -5   21.36    1.74
   5   4  -5   21.29    1.53
  -5  -4   5   19.53    1.41
  -5   4   5   17.25    1.44
   5  -4  -5   22.98    1.74
  -5  -4   5   19.67    1.24
  -5  -4   4  175.01    3.59
   5  -4  -4  178.05    5.06
  -5  -4   4  174.21    4.32
  -5   4   4  178.04    4.97
   5  -4  -4  182.78    5.04
  -5  -4   4  185.47    4.38
   5  -4  -3  225.23    5.85
  -5  -4   3  222.67    5.18
  -5   4   3  217.07    5.68
  -5  -4   3  217.04    4.70
   5  -4  -2 1046.62   18.52
  -5  -4   2 1006.28   16.58
  -5  -4   2 1054.99   17.91
  -5   4   2 1056.28   18.49
   5  -4  -1    1.50    1.13
  -5   4   1    3.33    1.04
  -5   4   1    1.19    0.85
  -5  -4   1    2.80    0.88
  -5   4   0  992.31   17.94
  -5  -4   0  980.24   17.58
   5  -4   0  996.67   18.08
  -5   4  -1   18.38    1.72
   5  -4   1   15.02    1.78
  -5  -4  -1   15.87    1.53
   5   4   2  590.63   10.31
  -5   4  -2  596.40   12.12
  -5  -4  -2  590.75   11.98
   5  -4   2  612.79   12.32
   5   4   3    8.75    0.98
  -5   4  -3    9.30    1.32
   5  -4   3   10.81    1.57
  -5  -4  -3   11.06    1.44
  -5   4  -4  790.16   15.49
   5   4   4  794.99   14.25
  -5  -4  -4  790.89   13.13
  -5  -4  -4  801.30   15.56
   5  -4   4  810.27   15.90
   5   4   5   33.11    1.97
  -5  -4  -5   35.44    1.55
  -5  -4  -5   37.72    2.49
   5  -4   5   33.58    2.66
  -5   4  -5   32.94    2.36
   5   4   6 1506.04   25.65
  -5  -4  -6 1489.59   24.52
  -5  -4  -6 1531.62   26.81
  -5   4  -6 1481.90   26.61
   5  -4   6 1472.10   26.87
  -5  -4  -7   19.53    1.48
  -5   4  -7   15.33    1.75
   5   4   7   14.90    1.57
   5  -4   7   16.47    1.92
  -5  -4  -7   17.65    1.89
  -5  -4  -8    5.52    1.01
   5   4   8    6.46    1.35
  -5   4  -8    4.31    1.20
   5  -4   8    6.96    1.56
  -5  -4  -8    8.02    1.56
   5   4   9   73.72    3.60
  -5  -4  -9   76.06    3.18
  -5  -4  -9   77.64    3.94
  -5   4  -9   70.69    3.62
   5  -4   9   66.42    3.59
   5   4  10  211.29    6.76
   5  -4  10  205.88    6.99
  -5  -4 -10  203.94    5.93
  -5  -4 -10  211.14    6.95
   5  -4  10  184.40    6.39
  -5   4 -10  185.89    6.40
  -5  -4 -11    6.94    1.27
   5  -4  11    9.92    1.84
   5   4  11    5.62    1.46
  -5   4 -11    7.66    1.44
  -5  -4 -11    7.23    1.43
   5  -4  11    8.21    1.74
  -5  -4 -12   -1.28    0.98
   5   4  12   -0.48    1.21
  -5   4 -12   -0.59    1.05
   5  -4  12   -0.27    1.18
   5   4  13   37.07    3.13
  -5  -4 -13   34.26    2.71
   5  -4  13   35.42    2.82
  -5   4 -13   32.22    2.75
  -5   4 -14   17.54    2.18
   5   4  14   18.62    2.51
   5  -4  14   14.65    2.00
   5  -4  14   16.82    2.59
  -5  -4 -14   16.55    2.03
  -5   4 -15   11.40    1.82
   5   4  15   12.98    2.33
   5  -4  15   13.27    2.69
  -5   4 -16    3.16    1.45
   5   4  16    4.13    1.96
   5  -4  16    5.17    1.93
   5  -4  17   51.56    4.48
   5   4  17   48.95    4.24
   5  -4  18  304.22   11.31
   5   4  18  305.89   11.14
   5   4  19   33.24    3.87
   5  -4  19   29.85    3.74
   5  -4  20  191.12    9.34
   5   4  20  188.95    8.96
   5   4  21   24.84    3.72
   5  -4  21   25.28    3.76
  -5  -5  23    8.16    2.60
  -5  -5  22    5.57    2.11
   5  -5 -22    6.08    1.87
   5  -5 -22    4.34    1.97
  -5  -5  21   96.87    6.02
   5  -5 -21  100.80    5.28
   5  -5 -21  104.95    6.67
  -5  -5  20   -2.50    1.99
   5  -5 -20    2.63    1.66
   5  -5 -20   -0.81    1.87
  -5  -5  19   14.92    2.52
   5  -5 -19   13.71    2.13
   5  -5 -19   18.27    3.09
  -5  -5  18  110.46    5.84
   5  -5 -18  111.86    5.30
   5  -5 -18  124.10    6.68
  -5  -5  17  100.89    5.37
   5  -5 -17  105.47    4.99
   5   5 -17  101.12    2.52
   5  -5 -17  115.39    6.15
  -5  -5  16   25.65    2.68
   5  -5 -16   27.44    2.56
   5   5 -16   23.22    0.95
   5  -5 -16   28.88    3.07
  -5  -5  15   37.57    3.12
   5  -5 -15   38.12    2.91
   5  -5 -15   42.17    3.61
  -5  -5  14   97.89    4.69
   5  -5 -14  108.81    4.66
   5  -5 -14  105.27    5.42
  -5  -5  13  854.31   17.58
   5  -5 -13  853.83   17.11
  -5  -5  12   10.96    1.48
   5  -5 -12   12.88    1.68
  -5  -5  12   15.55    1.91
  -5  -5  11 1001.65   19.40
   5  -5 -11 1045.94   20.85
   5  -5 -11 1038.50   19.74
  -5  -5  11 1043.64   20.48
   5  -5 -10   55.14    3.32
  -5  -5  10   47.60    2.68
   5  -5 -10   53.11    3.04
  -5  -5  10   53.98    3.17
  -5  -5   9  107.07    3.83
  -5  -5   9  102.30    4.23
   5  -5  -9  112.26    4.31
  -5  -5   8  177.05    4.82
  -5  -5   8  185.96    5.46
   5  -5  -8  181.21    5.46
  -5  -5   8  163.05    3.28
  -5  -5   7   69.27    2.62
  -5  -5   7   67.29    3.03
   5  -5  -7   71.37    3.23
  -5  -5   7   71.11    2.09
  -5  -5   6    7.63    0.90
  -5  -5   6    6.86    1.05
  -5   5   6    8.15    1.34
   5  -5  -6    8.55    1.41
  -5  -5   6    7.80    0.80
  -5  -5   5   22.11    1.21
  -5  -5   5   22.15    1.52
  -5  -5   5   24.71    1.36
  -5   5   5   24.17    1.82
  -5  -5   5   23.94    0.99
   5  -5  -5   25.18    2.00
   5  -5  -4    3.02    1.16
  -5  -5   4    1.72    0.52
  -5  -5   4    1.23    0.59
   5  -5  -4    1.06    1.03
  -5   5   4    0.02    0.92
  -5  -5   4    2.85    0.74
  -5  -5   3 1582.32   24.58
   5  -5  -3 1640.31   27.45
  -5  -5   3 1604.64   26.34
  -5   5   3 1638.47   27.40
  -5  -5   3 1606.10   25.71
   5  -5  -2  278.87    6.94
  -5  -5   2  277.54    6.31
  -5   5   2  275.75    6.87
  -5  -5   2  264.78    5.26
   5  -5  -1   22.19    1.86
  -5   5   1   22.66    1.85
  -5  -5   1   19.80    0.89
  -5  -5   0   43.45    1.16
   5  -5   0   44.48    2.60
  -5   5   0   49.84    2.59
  -5   5  -1  621.32   12.35
  -5  -5  -1  588.70    9.98
   5  -5   1  611.23   12.36
  -5  -5  -2   50.87    1.80
  -5   5  -2   56.73    2.81
   5  -5   2   50.54    2.82
  -5  -5  -3  610.84   10.12
  -5  -5  -3  616.98   11.09
  -5   5  -3  635.36   12.85
   5  -5   3  650.07   12.96
  -5  -5  -4   38.11    1.89
  -5  -5  -4   37.47    1.42
  -5   5  -4   37.75    2.43
   5  -5   4   41.16    2.70
  -5  -5  -5 1323.17   22.66
  -5  -5  -5 1326.07   21.65
  -5   5  -5 1335.79   23.96
   5  -5   5 1356.06   24.36
   5   5   6    6.13    1.13
  -5   5  -6    5.43    1.21
  -5  -5  -6    5.23    0.79
  -5  -5  -6    6.57    1.07
  -5  -5  -6    7.09    1.42
   5  -5   6    7.43    1.62
   5   5   7 1028.67   18.99
  -5   5  -7 1034.32   19.60
  -5  -5  -7 1005.58   18.72
  -5  -5  -7 1018.47   17.76
  -5  -5  -7 1044.01   19.99
   5  -5   7  993.80   19.97
  -5   5  -8   80.29    3.80
   5   5   8   83.23    3.72
  -5  -5  -8   84.74    3.15
  -5  -5  -8   85.05    4.08
   5  -5   8   79.26    3.98
   5   5   9  657.44   13.95
  -5  -5  -9  642.07   12.78
  -5  -5  -9  647.40   14.44
  -5   5  -9  637.05   13.94
   5  -5   9  621.69   14.08
  -5  -5 -10   20.55    1.80
  -5   5 -10   23.81    2.22
   5   5  10   22.30    2.32
  -5  -5 -10   19.45    2.11
   5  -5  10   18.72    2.12
   5   5  11  328.82    9.21
  -5  -5 -11  314.09    8.14
  -5  -5 -11  319.85    9.34
  -5   5 -11  311.51    8.80
   5  -5  11  285.59    8.57
  -5  -5 -12    9.49    1.52
  -5   5 -12    7.18    1.54
   5   5  12    8.71    1.86
   5  -5  12    9.91    1.75
   5   5  13   37.93    3.22
  -5  -5 -13   45.28    3.04
   5  -5  13   38.81    2.97
  -5   5 -13   40.66    3.02
  -5  -5 -14   24.49    2.41
  -5   5 -14   22.96    2.42
   5   5  14   27.01    2.91
   5  -5  14   26.64    2.57
   5   5  15   46.69    3.82
  -5  -5 -15   48.58    3.44
   5  -5  15   45.03    3.96
   5  -5  15   48.45    3.37
  -5   5 -15   46.43    3.34
   5   5  16    7.24    2.12
  -5   5 -16    4.88    1.54
   5  -5  16    3.93    1.96
  -5  -5 -16    4.69    1.55
   5   5  17  155.99    7.38
   5  -5  17  149.74    7.61
   5  -5  18   17.26    3.14
   5  -5  19  542.55   16.50
   5  -5  20   10.39    2.92
  -5  -6  23   15.31    3.34
  -5  -6  22    1.71    1.69
   5  -6 -22    6.26    1.73
   5  -6 -22    4.06    2.16
  -5  -6  21    2.52    1.79
   5  -6 -21    2.70    1.78
   5  -6 -21    4.41    2.35
  -5  -6  20   33.20    3.51
   5  -6 -20   30.00    3.01
   5  -6 -20   26.48    3.48
  -5  -6  19    5.27    1.92
   5  -6 -19    7.34    1.87
   5  -6 -19   11.13    2.68
  -5  -6  18   77.43    4.85
   5  -6 -18   75.39    4.46
   5  -6 -18   73.68    5.20
  -5  -6  17    1.43    1.46
   5  -6 -17    6.27    1.78
   5  -6 -17    7.03    2.19
  -5  -6  16   53.36    3.81
   5  -6 -16   55.15    3.63
   5  -6 -16   55.00    4.34
  -5  -6  15   23.29    2.47
   5  -6 -15   22.89    2.36
   5  -6 -15   22.62    2.80
  -5  -6  14   31.88    2.73
   5  -6 -14   32.39    2.65
  -5  -6  13    6.09    1.47
   5  -6 -13    6.00    1.57
  -5  -6  12 1322.89   24.80
   5  -6 -12 1359.20   25.22
  -5  -6  12 1370.59   25.94
  -5  -6  11   50.40    2.89
   5  -6 -11   56.73    3.65
   5  -6 -11   54.15    3.21
  -5  -6  11   53.30    3.30
  -5  -6  10 1026.66   19.41
  -5  -6  10 1060.59   20.50
   5  -6 -10 1085.22   20.41
  -5  -6   9   14.62    1.47
  -5  -6   9   15.19    1.69
   5  -6  -9   15.97    1.90
  -5  -6   8   35.24    2.08
  -5  -6   8   36.96    2.39
   5  -6  -8   38.18    2.62
  -5  -6   8   37.67    1.36
  -5  -6   7   37.65    1.93
   5  -6  -7   35.87    2.54
  -5  -6   7   37.45    1.54
  -5  -6   7   35.43    2.29
  -5   6   6  226.41    6.38
  -5  -6   6  222.83    4.22
   5  -6  -6  235.30    6.51
  -5  -6   6  222.06    4.97
  -5  -6   6  226.99    5.15
  -5  -6   6  225.68    5.90
  -5  -6   5   33.88    1.68
  -5  -6   5   31.47    1.23
  -5   6   5   35.33    2.29
   5  -6  -5   34.25    2.41
  -5  -6   5   32.32    1.46
  -5  -6   5   33.41    1.91
  -5   6   4 1915.20   32.39
   5  -6  -4 1920.81   32.38
  -5  -6   4 1895.33   30.91
   5  -6  -3    0.35    1.08
  -5   6   3    1.51    1.00
   5  -6  -3   -0.43    1.19
  -5  -6   3    0.69    0.55
   5  -6  -2  399.01    9.23
  -5   6   2  407.43    9.23
  -5  -6   2  385.32    7.33
   5  -6  -1    4.58    1.22
  -5   6   1    5.39    1.27
  -5  -6   1    3.09    0.53
  -5  -6   0    5.91    0.55
   5  -6   0    8.08    1.57
  -5   6   0    5.17    1.19
  -5  -6  -1   22.24    1.09
   5  -6   1   23.46    2.06
  -5   6  -1   23.24    1.94
  -5  -6  -2  764.11   13.14
   5  -6   2  783.12   15.36
  -5  -6  -3   23.04    1.36
   5  -6   3   25.48    2.09
  -5   6  -3   25.37    2.14
  -5  -6  -4 1295.18   21.08
  -5  -6  -4 1303.48   22.07
  -5   6  -4 1332.92   23.74
   5  -6   4 1364.24   23.96
  -5  -6  -5   17.37    1.43
  -5  -6  -5   19.36    1.19
  -5   6  -5   19.24    1.87
   5  -6   5   19.07    2.00
  -5  -6  -6 1215.68   20.67
  -5  -6  -6 1242.51   21.80
  -5   6  -6 1257.59   22.88
   5  -6   6 1258.09   23.23
  -5  -6  -7    8.20    1.25
  -5  -6  -7    8.21    1.00
  -5   6  -7   10.49    1.60
   5  -6   7   10.86    1.80
  -5  -6  -8   51.33    2.88
  -5  -6  -8   51.04    2.43
  -5   6  -8   50.26    3.06
   5  -6   8   44.54    3.06
  -5  -6  -9    0.43    0.74
  -5  -6  -9    1.38    0.83
  -5   6  -9    0.96    1.03
   5  -6   9    0.93    1.17
  -5   6 -10  448.48   10.96
  -5  -6 -10  453.54   11.03
  -5  -6 -10  449.93   10.10
  -5  -6 -10  455.73   11.66
   5  -6  10  430.88   11.17
  -5  -6 -11    6.42    1.19
  -5   6 -11    5.94    1.43
   5  -6  11    3.79    1.43
  -5  -6 -12  194.11    6.26
  -5   6 -12  191.76    6.61
   5  -6  12  176.60    6.49
  -5  -6 -13    4.50    1.37
  -5   6 -13    6.05    1.49
   5  -6  13    3.54    1.31
  -5   6 -14  328.17    9.50
  -5  -6 -14  334.87    9.45
   5  -6  14  326.18    9.51
  -5  -6 -15   24.12    2.43
  -5   6 -15   27.87    2.65
   5  -6  15   24.08    2.53
   5  -6  16    2.48    1.36
  -5  -6 -16    3.79    1.58
   5  -6  16    0.57    1.79
   5  -6  17   14.06    2.55
  -5  -6 -17   16.82    2.46
   5  -6  18  362.54   12.68
  -5  -6 -18  351.15   11.11
   5  -6  19    8.90    2.60
   5  -6  20   99.88    6.77
  -5  -7  23   16.87    2.99
   5  -7 -23   19.15    2.79
  -5  -7  22    5.77    2.29
   5  -7 -22    2.85    1.57
  -5  -7  21   40.86    4.05
   5  -7 -21   37.87    3.55
   5  -7 -21   42.71    4.54
  -5  -7  20   15.59    2.66
   5  -7 -20   18.75    2.72
   5  -7 -20   14.39    2.83
  -5  -7  19    2.66    1.85
   5  -7 -19   -0.05    1.44
   5  -7 -19    2.49    1.88
  -5  -7  18   23.87    2.96
   5  -7 -18   22.33    2.70
   5  -7 -18   19.96    3.03
  -5  -7  17   30.82    3.22
   5  -7 -17   26.93    2.79
   5  -7 -17   32.11    3.48
  -5  -7  16   14.51    2.19
   5  -7 -16   13.12    2.20
   5  -7 -16   11.20    2.34
  -5  -7  15    5.99    1.65
   5  -7 -15    6.56    1.74
  -5  -7  14    0.44    1.24
   5  -7 -14    1.66    1.26
  -5  -7  13  681.94   15.12
   5  -7 -13  714.43   15.70
   5  -7 -12    5.57    1.58
  -5  -7  12    3.36    1.20
  -5  -7  12    3.26    1.14
  -5  -7  11  815.97   16.46
  -5  -7  11  836.78   17.57
   5  -7 -11  836.78   17.38
  -5  -7  10    8.58    1.31
  -5  -7  10   12.03    1.71
   5  -7 -10   10.45    1.81
  -5  -7   9  131.68    4.38
  -5  -7   9  135.67    5.07
   5  -7  -9  132.37    5.13
  -5  -7   9  134.05    2.95
  -5  -7   8    5.86    1.27
  -5  -7   8    4.88    1.01
   5  -7  -8    7.00    1.61
  -5  -7   8    4.42    0.65
   5  -7  -7  947.95   18.32
  -5  -7   7  918.71   16.45
  -5  -7   7  933.80   17.61
  -5  -7   6   34.66    1.45
  -5   7   6   36.07    2.53
   5  -7  -6   38.08    2.68
  -5  -7   6   39.80    2.33
  -5  -7   5  249.59    5.23
   5  -7  -5  257.80    7.19
  -5   7   5  270.41    7.48
  -5  -7   5  249.61    6.20
  -5   7   4    0.31    1.00
   5  -7  -4    1.21    1.15
  -5  -7   4    2.34    0.73
  -5  -7   4    1.59    0.68
   5  -7  -3  961.74   18.13
  -5   7   3  944.56   18.00
   5  -7  -3  937.37   17.96
  -5  -7   3  916.45   16.16
   5  -7  -2  175.65    5.67
  -5   7   2  178.74    5.61
   5  -7  -1  450.27   10.48
  -5   7   1  473.19   10.59
   5  -7   0  110.91    4.35
  -5   7   0  115.22    4.45
  -5  -7  -1  379.32    7.20
   5  -7   1  386.25    9.29
  -5   7  -1  391.93    9.39
   5  -7   2   34.61    2.52
  -5  -7  -2   33.50    1.60
  -5   7  -2   33.96    2.47
  -5  -7  -3  572.48   10.82
  -5   7  -3  590.72   12.71
   5  -7   3  580.98   12.61
  -5  -7  -4   25.26    1.61
   5  -7   4   25.41    2.17
  -5  -7  -5 1011.89   17.26
  -5  -7  -5 1018.82   18.31
  -5   7  -5 1051.34   19.67
   5  -7   5 1029.53   19.80
  -5  -7  -6    1.20    0.68
  -5  -7  -6   -0.27    0.78
  -5   7  -6    0.61    1.08
   5  -7   6   -1.20    1.21
  -5  -7  -7  757.89   13.97
  -5  -7  -7  752.18   15.01
  -5   7  -7  768.57   15.73
   5  -7   7  764.72   16.14
  -5  -7  -8   98.76    3.52
  -5  -7  -8   94.67    4.00
  -5   7  -8   93.42    4.21
   5  -7   8   95.62    4.55
  -5  -7  -9   96.06    3.69
  -5  -7  -9   95.37    4.20
  -5   7  -9   95.83    4.30
   5  -7   9   86.96    4.52
  -5  -7 -10    3.96    1.06
  -5  -7 -10    2.34    1.15
  -5   7 -10    2.31    1.05
   5  -7  10    0.61    1.26
  -5  -7 -11    5.32    1.21
  -5  -7 -11    6.84    1.50
  -5   7 -11    5.82    1.37
   5  -7  11    6.32    1.62
  -5  -7 -12    3.29    1.21
  -5   7 -12    3.57    1.24
   5  -7  12    3.08    1.32
  -5  -7 -13   15.98    1.92
  -5   7 -13   17.49    2.06
   5  -7  13   15.50    2.17
  -5   7 -14   60.48    3.75
  -5  -7 -14   62.63    3.74
   5  -7  14   51.18    3.45
  -5  -7 -15   10.26    1.80
  -5   7 -15    8.55    1.73
   5  -7  15   10.97    1.92
  -5  -7 -16   13.04    2.04
   5  -7  16   13.23    2.01
  -5  -7 -17  114.07    5.72
   5  -7  17  114.07    6.73
  -5  -7 -18   24.58    2.85
   5  -7  18   27.75    3.66
   5  -7  19  446.82   14.91
  -5  -7 -19  440.46   13.11
   5  -7  20    0.09    2.01
  -5  -8  23    7.45    2.52
   5  -8 -23    7.35    2.23
  -5  -8  22    1.62    1.78
   5  -8 -22   -1.36    1.53
  -5  -8  21   12.33    2.55
   5  -8 -21   12.75    2.24
   5  -8 -21   12.47    2.80
  -5  -8  20    1.49    1.70
   5  -8 -20    0.46    1.48
   5  -8 -20   -1.26    1.83
  -5  -8  19  272.79    9.85
   5  -8 -19  253.91    9.05
   5  -8 -19  283.48   10.88
  -5  -8  18    9.19    2.15
   5  -8 -18   10.19    2.18
   5  -8 -18    9.53    2.36
  -5  -8  17   71.21    4.58
   5  -8 -17   68.09    4.22
   5  -8 -17   73.11    5.24
  -5  -8  16    6.54    1.71
   5  -8 -16    7.21    1.83
  -5  -8  15   14.30    2.02
   5  -8 -15   20.05    2.64
   5  -8 -14    7.07    1.90
  -5  -8  14    9.02    1.82
   5  -8 -13    6.86    1.74
  -5  -8  13    8.08    1.64
  -5  -8  12  331.87    8.96
   5  -8 -12  345.55    9.79
  -5  -8  11    1.95    1.08
  -5  -8  11    5.73    1.43
   5  -8 -11    3.25    1.46
  -5  -8  10   30.01    1.08
  -5  -8  10   27.71    2.12
  -5  -8  10   31.21    2.68
   5  -8 -10   31.57    2.75
  -5  -8  10   32.20    1.15
  -5  -8   9   43.01    1.63
   5  -8  -9   47.27    3.22
  -5  -8   9   43.39    2.47
  -5  -8   9   42.70    2.84
   5  -8  -8  171.87    6.08
  -5  -8   8  166.02    4.86
  -5  -8   8  169.72    5.65
   5  -8  -7   33.59    2.67
  -5  -8   7   32.87    2.25
  -5   8   6  221.59    6.81
  -5  -8   6  220.31    4.94
   5  -8  -6  234.63    7.03
  -5  -8   6  231.45    6.24
  -5  -8   5   56.55    2.17
   5  -8  -5   58.46    3.36
  -5   8   5   57.88    3.26
  -5  -8   5   56.06    2.63
  -5  -8   4    7.92    1.03
  -5   8   4    7.28    1.36
   5  -8  -4    8.60    1.51
  -5  -8   4    9.33    1.11
  -5  -8   3    5.53    0.94
   5  -8  -3    5.16    1.47
  -5   8   3    5.47    1.26
   5  -8  -2    4.12    1.25
  -5   8   2    2.88    1.19
   5  -8  -2    1.19    1.20
   5  -8  -1  105.98    4.44
  -5   8   1  117.67    4.58
   5  -8   0  453.02   10.67
  -5   8   0  451.81   10.71
   5  -8   1   50.58    3.05
  -5   8  -1   51.61    3.11
   5  -8   2   36.95    2.68
  -5  -8  -2   38.99    1.82
  -5   8  -2   41.63    2.79
   5  -8   3   81.59    3.86
  -5  -8  -3   82.97    2.93
  -5   8  -3   88.43    4.07
  -5  -8  -4   37.94    2.04
  -5   8  -4   42.33    2.86
   5  -8   4   38.13    2.74
  -5  -8  -5   46.36    2.42
   5  -8   5   41.88    2.91
  -5  -8  -6  654.84   13.35
   5  -8   6  676.34   14.61
  -5  -8  -7   20.46    1.56
  -5  -8  -7   19.29    1.78
   5  -8   7   17.94    2.08
  -5  -8  -8   68.08    2.91
  -5  -8  -8   65.78    3.35
  -5   8  -8   62.70    3.49
   5  -8   8   70.89    3.92
  -5  -8  -9    8.64    1.30
  -5  -8  -9    5.72    1.34
  -5   8  -9    6.69    1.44
   5  -8   9    6.18    1.65
  -5  -8 -10  249.57    6.88
  -5  -8 -10  250.14    7.74
  -5   8 -10  250.78    7.69
   5  -8  10  239.98    8.09
  -5  -8 -11  104.27    4.28
  -5  -8 -11  101.06    4.81
  -5   8 -11  106.79    4.79
   5  -8  11  101.00    4.96
  -5  -8 -12   90.48    4.17
  -5   8 -12   92.21    4.48
   5  -8  12   86.37    4.57
  -5  -8 -13    1.24    1.01
  -5   8 -13    6.08    1.41
   5  -8  13    4.27    1.58
  -5  -8 -14    1.65    1.11
  -5   8 -14    4.42    1.48
   5  -8  14    4.00    1.58
  -5  -8 -15   12.73    1.88
   5  -8  15   11.49    1.90
  -5  -8 -16    6.99    1.75
   5  -8  16    6.26    1.92
   5  -8  17   50.99    3.62
  -5  -8 -17   46.91    3.73
   5  -8  17   46.15    4.37
  -5  -8 -18   58.57    4.28
   5  -8  18   55.85    5.00
  -5  -8 -19   33.58    3.56
   5  -8  19   33.19    3.89
  -5  -8 -20   14.57    2.54
  -5  -9  23   13.97    2.86
   5  -9 -23    3.54    2.04
  -5  -9  22   -0.04    1.82
   5  -9 -22   -1.56    1.73
  -5  -9  21   25.47    3.28
   5  -9 -21   27.43    3.38
  -5  -9  20   30.25    3.47
   5  -9 -20   30.87    3.43
   5  -9 -20   33.38    4.01
  -5  -9  19  172.10    7.70
   5  -9 -19  173.03    7.63
   5  -9 -19  185.29    8.85
  -5  -9  18    2.06    1.72
   5  -9 -18    5.49    1.96
   5  -9 -18    2.44    1.92
  -5  -9  17   77.03    4.81
   5  -9 -17   80.91    5.06
   5  -9 -17   77.54    5.38
  -5  -9  16    0.32    1.35
   5  -9 -16    3.63    1.85
   5  -9 -15    5.19    1.63
  -5  -9  15    3.75    1.55
   5  -9 -14   15.27    2.39
  -5  -9  14   12.16    1.93
  -5  -9  13  125.61    5.26
   5  -9 -13  130.36    5.89
  -5  -9  12   85.11    4.11
   5  -9 -12   90.67    4.83
  -5  -9  11   57.36    3.19
  -5  -9  11   56.63    3.60
   5  -9 -11   58.83    3.85
  -5  -9  11   54.77    1.51
  -5  -9  11   48.99    1.47
  -5  -9  10  130.49    3.23
   5  -9 -10  138.81    5.81
  -5  -9  10  129.38    4.74
  -5  -9  10  140.72    5.55
   5  -9  -9   69.83    3.98
  -5  -9   9   67.11    3.09
  -5  -9   9   65.74    3.59
   5  -9  -8    3.54    1.63
  -5  -9   8    1.20    0.96
   5  -9  -7  495.40   12.04
  -5  -9   7  493.03   11.13
  -5  -9   6   20.26    1.38
   5  -9  -6   16.38    2.15
  -5  -9   6   17.46    1.67
  -5   9   5  397.99    9.96
   5  -9  -5  377.44    9.85
  -5  -9   5  372.94    7.81
  -5  -9   5  366.38    8.65
  -5  -9   4   58.28    2.41
   5  -9  -4   64.14    3.59
  -5   9   4   60.96    3.62
  -5   9   3   25.58    2.29
   5  -9  -3   20.45    2.17
  -5  -9   3   25.44    1.74
   5  -9  -2    8.35    1.66
   5  -9  -2   10.42    1.75
  -5   9   2   10.87    1.69
   5  -9  -1  191.75    6.46
  -5   9   1  206.73    6.60
   5  -9   0   14.85    1.85
  -5   9   0   18.36    1.99
   5  -9   1  390.94    9.99
  -5   9  -1  401.81   10.06
   5  -9   2   75.18    3.87
  -5   9  -2   83.23    4.01
   5  -9   3  148.10    5.53
  -5  -9  -3  148.97    4.37
  -5   9  -3  154.21    5.67
  -5  -9  -4   43.45    2.31
  -5   9  -4   50.48    3.17
   5  -9   4   49.15    3.15
  -5  -9  -5   33.29    2.12
  -5   9  -5   37.21    2.78
   5  -9   5   36.57    2.82
  -5  -9  -6   42.54    2.50
  -5   9  -6   45.56    3.12
   5  -9   6   38.94    2.94
  -5  -9  -7  289.67    7.75
   5  -9   7  286.00    8.51
  -5  -9  -8   27.33    1.91
  -5  -9  -8   27.13    2.25
   5  -9   8   25.93    2.53
  -5  -9  -9  153.26    4.99
  -5  -9  -9  150.34    5.61
   5  -9   9  146.29    6.07
  -5  -9 -10   10.69    1.48
  -5  -9 -10    9.34    1.58
   5  -9  10    8.09    1.88
  -5  -9 -11   72.09    3.58
   5  -9  11   68.24    4.14
  -5  -9 -12   28.36    2.41
   5  -9  12   26.05    2.70
  -5  -9 -13  122.91    5.20
   5  -9  13  124.72    5.68
  -5  -9 -14  105.30    4.95
   5  -9  14  107.93    5.30
  -5  -9 -15   18.32    2.27
   5  -9  15   17.34    2.25
  -5  -9 -16   11.83    1.96
   5  -9  16   11.20    1.92
  -5  -9 -17    5.01    1.74
   5  -9  17    3.46    1.50
  -5  -9 -18   60.35    4.26
   5  -9  18   50.77    4.91
  -5  -9 -19   15.82    2.55
   5  -9  19   12.57    2.80
  -5  -9 -20    2.28    1.98
  -5  -9 -21    7.73    2.89
   5 -10 -23    3.41    2.29
  -5 -10  22    6.73    2.14
   5 -10 -22    4.29    1.92
  -5 -10  21    0.70    1.66
   5 -10 -21    2.49    2.10
  -5 -10  20   78.56    5.37
   5 -10 -20   76.05    5.33
   5 -10 -20   80.85    5.84
  -5 -10  19   39.42    3.80
   5 -10 -19   39.88    4.03
   5 -10 -19   40.19    4.46
  -5 -10  18  397.14   12.34
   5 -10 -18  423.02   12.90
   5 -10 -18  420.86   13.79
  -5 -10  17    4.50    1.63
   5 -10 -17    4.97    2.03
   5 -10 -16   40.51    3.71
  -5 -10  16   37.08    3.30
   5 -10 -15    5.69    1.91
  -5 -10  15    4.45    1.70
   5 -10 -14    8.37    2.09
  -5 -10  14    9.35    1.72
   5 -10 -13    0.88    1.50
  -5 -10  13   -0.73    1.24
   5 -10 -12    7.95    1.83
  -5 -10  12    8.65    1.65
  -5 -10  11  122.32    3.08
   5 -10 -11  118.12    5.64
  -5 -10  11  117.55    3.00
  -5 -10  11  115.42    4.72
   5 -10 -10  115.62    5.46
  -5 -10  10  106.26    4.89
   5 -10  -9   33.56    2.96
  -5 -10   9   35.29    2.72
   5 -10  -8  117.01    5.35
  -5 -10   8  120.87    4.87
   5 -10  -7   28.42    2.67
  -5 -10   7   29.40    2.30
  -5 -10   6 1327.24   22.41
   5 -10  -6 1343.77   25.43
  -5 -10   6 1292.01   23.83
  -5  10   5   19.63    2.11
   5 -10  -5   18.80    2.28
  -5 -10   5   20.58    1.59
  -5 -10   4  961.36   17.65
   5 -10  -4  986.32   19.94
  -5  10   4 1020.64   20.15
   5 -10  -3   35.51    2.90
  -5 -10   3   36.96    2.20
  -5  10   3   35.55    2.71
  -5 -10   2  237.32    6.38
   5 -10  -2  230.02    7.40
  -5  10   2  245.05    7.46
   5 -10  -1    5.32    1.53
  -5  10   1    2.33    1.21
   5 -10   0  275.91    8.21
  -5  10   0  289.53    8.34
   5 -10   1   -1.20    1.28
  -5  10  -1    2.61    1.25
   5 -10   2    0.97    1.14
  -5  10  -2    1.77    1.24
   5 -10   3   33.32    2.66
  -5 -10  -3   31.44    1.94
  -5  10  -3   34.68    2.66
   5 -10   4  491.06   12.09
  -5 -10  -4  500.64   10.67
  -5  10  -4  511.12   12.31
  -5 -10  -5   11.68    1.40
   5 -10   5   11.03    1.83
  -5  10  -5   12.99    1.87
   5 -10   6   23.70    2.45
  -5 -10  -6   24.30    1.97
  -5  10  -6   26.63    2.52
  -5 -10  -7    2.02    1.36
   5 -10   7    1.87    1.37
  -5 -10  -8    7.30    1.41
   5 -10   8    6.70    1.68
  -5 -10  -9    2.19    0.90
  -5 -10  -9    2.84    1.11
   5 -10   9    3.30    1.55
  -5 -10 -10  396.50    9.61
  -5 -10 -10  389.33   10.57
   5 -10  10  384.13   11.03
  -5 -10 -11   29.55    2.38
   5 -10  11   26.73    2.91
  -5 -10 -12  756.12   16.07
   5 -10  12  742.44   17.32
  -5 -10 -13    1.91    1.11
   5 -10  13    1.88    1.39
  -5 -10 -14  136.93    5.78
   5 -10  14  136.84    6.03
  -5 -10 -15   23.19    2.46
   5 -10  15   19.59    2.53
  -5 -10 -16    2.30    1.38
   5 -10  16    1.58    1.41
  -5 -10 -17    1.88    1.46
   5 -10  17    1.00    1.24
  -5 -10 -18    2.55    1.53
   5 -10  18   -0.25    1.84
  -5 -10 -19   18.79    2.70
  -5 -10 -20    0.47    1.71
  -5 -11  22    3.26    1.89
   5 -11 -22    2.12    1.97
  -5 -11  21   28.59    3.61
   5 -11 -21   23.72    3.43
  -5 -11  20    1.29    1.74
   5 -11 -20    3.42    1.93
  -5 -11  19  286.04   10.46
   5 -11 -19  304.54   11.02
   5 -11 -19  310.45   11.98
  -5 -11  18    6.01    2.09
   5 -11 -18    6.38    3.23
   5 -11 -18    3.89    2.11
  -5 -11  17  178.52    7.53
   5 -11 -17  180.25    8.06
   5 -11 -16   -0.47    1.71
  -5 -11  16   -1.33    1.58
  -5 -11  15   55.08    3.78
   5 -11 -15   69.14    4.70
  -5 -11  14    4.26    1.45
   5 -11 -14    0.70    1.73
  -5 -11  13   13.18    2.06
   5 -11 -13   11.14    2.28
  -5 -11  12   37.98    2.84
   5 -11 -12   42.50    3.68
  -5 -11  12   40.31    1.55
  -5 -11  12   41.82    1.60
  -5 -11  11  191.46    4.57
   5 -11 -11  183.44    7.45
  -5 -11  11  175.43    6.10
   5 -11 -10   63.54    4.16
   5 -11  -9  174.48    6.95
  -5 -11   9  161.19    6.12
   5 -11  -8   52.88    3.70
  -5 -11   8   49.55    3.14
  -5 -11   7   46.02    2.28
   5 -11  -7   47.05    3.50
  -5 -11   7   43.94    2.89
  -5 -11   6   33.20    2.01
   5 -11  -6   33.84    3.02
  -5 -11   6   35.81    2.51
   5 -11  -5 1048.19   21.49
  -5 -11   5 1056.55   19.01
  -5 -11   4   35.13    2.21
   5 -11  -4   35.88    3.01
   5 -11  -3  444.61   11.23
  -5 -11   3  396.39    9.10
  -5  11   2   36.80    2.84
  -5 -11   2   36.22    2.45
   5 -11  -2   37.20    3.02
   5 -11  -1  182.30    6.62
  -5 -11   1  185.75    5.83
  -5  11   1  191.45    6.71
   5 -11   0    4.37    1.59
  -5  11   0    5.56    1.39
   5 -11   1   53.93    3.53
  -5  11  -1   50.02    3.34
   5 -11   2    6.82    1.66
  -5  11  -2    5.23    1.39
   5 -11   3  994.18   20.26
   5 -11   4   76.45    4.14
  -5 -11  -4   76.58    3.35
   5 -11   5  206.25    7.17
  -5 -11  -5  214.51    6.30
  -5 -11  -6    0.86    0.83
   5 -11   6   -0.95    1.29
  -5 -11  -7    0.81    0.86
   5 -11   7    1.15    1.35
  -5 -11  -8   26.97    2.38
   5 -11   8   26.11    2.70
  -5 -11  -9   14.94    1.66
  -5 -11  -9   14.59    1.91
   5 -11   9   15.95    2.24
  -5 -11 -10    8.52    1.49
   5 -11  10   10.90    2.06
  -5 -11 -11  351.43    9.32
   5 -11  11  356.41   10.80
  -5 -11 -12    8.43    1.57
   5 -11  12    8.61    2.06
  -5 -11 -13  287.96    8.68
   5 -11  13  285.82    9.43
  -5 -11 -14    6.45    1.48
   5 -11  14    7.77    1.95
  -5 -11 -15    2.91    1.41
   5 -11  15    1.86    1.53
  -5 -11 -16    6.06    1.67
   5 -11  16    7.22    1.96
  -5 -11 -17   32.15    3.08
  -5 -11 -18    5.70    2.08
  -5 -11 -19    3.90    1.71
  -5 -12  22    4.02    2.44
  -5 -12  21   -1.57    1.88
   5 -12 -21    1.97    2.57
  -5 -12  20   34.52    3.70
   5 -12 -20   37.09    4.17
  -5 -12  19   -0.16    1.63
   5 -12 -19    4.11    2.25
   5 -12 -19    0.55    1.92
  -5 -12  18  294.62   10.41
   5 -12 -18  309.44   11.33
  -5 -12  17   49.86    3.89
   5 -12 -17   54.55    4.57
  -5 -12  16   47.03    3.72
   5 -12 -16   59.46    4.86
   5 -12 -15   24.63    3.14
  -5 -12  15   24.71    2.76
   5 -12 -14   34.55    3.54
  -5 -12  14   38.60    3.24
   5 -12 -13    2.38    1.83
  -5 -12  13    2.76    1.33
  -5 -12  12    4.29    0.76
   5 -12 -12    4.45    1.89
  -5 -12  12    5.28    1.46
  -5 -12  11    3.71    0.84
   5 -12 -11    1.78    1.62
   5 -12 -10  353.48   10.89
   5 -12  -9   21.03    2.77
  -5 -12   9   14.56    2.03
   5 -12  -8   43.49    3.60
  -5 -12   8   43.17    3.03
  -5 -12   7   11.81    1.32
   5 -12  -7   10.95    2.28
  -5 -12   7   10.21    1.60
  -5 -12   6  174.33    5.23
   5 -12  -6  175.55    6.97
  -5 -12   5    3.00    0.98
   5 -12  -5    0.77    1.43
   5 -12  -4  536.45   13.52
  -5 -12   4  539.74   11.58
   5 -12  -3   22.72    2.58
  -5 -12   3   22.57    1.94
   5 -12  -2  195.61    7.11
  -5 -12   2  196.41    6.07
   5 -12  -1   -0.60    1.30
  -5 -12   1    1.17    1.15
   5 -12   0  215.66    7.61
  -5 -12   0  219.31    6.82
   5 -12   1   11.49    2.03
   5 -12   2  178.56    6.73
   5 -12   3   12.51    1.95
  -5 -12  -4  844.91   16.48
   5 -12   4  832.73   18.15
   5 -12   5    0.96    1.29
  -5 -12  -5    0.92    0.88
  -5 -12  -6   24.07    2.18
   5 -12   6   19.85    2.45
   5 -12   7    1.17    1.41
  -5 -12  -7   -0.28    1.04
  -5 -12  -8   24.12    2.31
   5 -12   8   22.37    2.55
  -5 -12  -9   21.15    2.28
   5 -12   9   18.39    2.49
  -5 -12 -10   46.31    2.93
   5 -12  10   40.87    3.44
  -5 -12 -11   12.16    1.70
   5 -12  11   12.84    2.37
  -5 -12 -12  548.47   13.01
   5 -12  12  541.85   14.66
  -5 -12 -13    1.04    1.16
   5 -12  13    0.84    1.51
  -5 -12 -14   78.30    4.39
   5 -12  14   76.24    4.77
  -5 -12 -15    6.29    1.62
   5 -12  15    9.44    2.04
  -5 -12 -16    9.51    2.15
   5 -12  16   11.29    2.22
  -5 -12 -17    0.37    1.46
  -5 -13  21    3.60    2.00
  -5 -13  20    2.10    2.09
   5 -13 -20    2.68    2.17
  -5 -13  19   74.57    5.15
   5 -13 -19   80.99    5.93
   5 -13 -18   32.80    3.76
  -5 -13  18   32.14    3.71
  -5 -13  17   77.53    5.05
   5 -13 -17   82.65    5.72
   5 -13 -16    7.29    2.47
  -5 -13  16    7.52    1.91
   5 -13 -15   21.68    3.23
  -5 -13  15   26.40    2.77
   5 -13 -14   15.24    2.59
  -5 -13  14   14.60    2.21
   5 -13 -13    0.30    1.62
  -5 -13  13    1.74    1.41
  -5 -13  12   40.57    2.10
   5 -13 -12   40.57    3.82
  -5 -13  11    9.54    1.22
   5 -13 -11    7.34    2.07
   5 -13 -10    7.80    2.08
   5 -13  -9  106.60    5.67
   5 -13  -8  236.75    8.64
  -5 -13   8  231.12    7.67
  -5 -13   7  394.53    9.14
   5 -13  -7  405.19   11.71
  -5 -13   7  385.66   10.35
  -5 -13   6   78.31    3.49
   5 -13  -6   78.34    4.73
   5 -13  -5  154.77    6.58
  -5 -13   5  145.97    5.05
  -5 -13   4    0.70    1.11
   5 -13  -4   -0.20    1.53
  -5 -13   3   69.42    3.56
   5 -13  -3   74.08    4.45
   5 -13  -2    8.51    2.01
  -5 -13   2   11.67    1.67
   5 -13  -1  151.79    6.40
  -5 -13   1  150.32    5.54
   5 -13   0    2.36    1.39
  -5 -13   0    7.55    1.62
   5 -13   1   36.24    3.18
  -5 -13  -1   33.68    2.78
   5 -13   2   26.34    2.69
  -5 -13  -2   24.39    2.52
   5 -13   3  173.52    6.83
   5 -13   4   22.34    2.57
   5 -13   5    0.82    1.48
  -5 -13  -5    0.68    0.88
  -5 -13  -6   10.02    1.60
   5 -13   6   13.03    2.21
  -5 -13  -7  234.11    7.46
   5 -13   7  228.81    8.17
  -5 -13  -8   99.60    4.79
   5 -13   8   93.45    5.09
   5 -13   9   33.09    3.14
   5 -13  10   62.88    4.28
  -5 -13 -11  301.85    8.81
   5 -13  11  301.52   10.11
  -5 -13 -12    7.07    1.63
   5 -13  12    5.33    1.91
  -5 -13 -13  257.56    8.21
   5 -13  13  230.65    9.00
  -5 -13 -14   -0.88    1.17
   5 -13  14    1.72    1.45
  -5 -13 -15   12.78    2.22
   5 -13  15    9.26    2.14
  -5 -13 -16    1.28    1.59
  -5 -14  20    3.31    2.21
  -5 -14  19    7.92    2.40
   5 -14 -18   26.12    3.73
  -5 -14  18   24.79    3.23
   5 -14 -17   26.01    3.62
  -5 -14  17   23.62    3.03
   5 -14 -16   14.30    2.90
  -5 -14  16   13.11    2.21
   5 -14 -15    0.56    1.98
  -5 -14  15    1.15    1.45
   5 -14 -14    1.94    2.32
  -5 -14  14    1.79    1.30
   5 -14 -13   96.10    5.86
  -5 -14  13   93.32    4.85
   5 -14 -12  118.33    6.55
  -5 -14  11    9.33    1.24
   5 -14 -11   11.31    2.60
   5 -14 -10   15.98    2.65
   5 -14  -9    3.68    1.83
   5 -14  -8    4.39    1.96
   5 -14  -7   33.59    3.33
   5 -14  -6  243.10    8.86
  -5 -14   6  240.86    6.98
  -5 -14   5   30.19    2.36
   5 -14  -5   31.47    3.16
  -5 -14   4   22.24    2.19
   5 -14  -4   20.56    2.69
  -5 -14   3    2.26    1.24
   5 -14  -3    1.53    1.54
   5 -14  -2    6.43    1.91
  -5 -14   2    4.03    1.38
   5 -14  -1    2.55    1.62
  -5 -14   1    0.12    1.12
   5 -14   0   39.19    3.36
  -5 -14   0   36.98    2.94
   5 -14   1   -0.76    1.47
  -5 -14  -1   -0.96    1.46
   5 -14   2    1.09    1.40
  -5 -14  -2   -0.54    1.57
   5 -14   3    9.67    2.00
  -5 -14  -3    5.33    1.79
   5 -14   4    4.47    1.65
  -5 -14  -5    7.78    1.40
   5 -14   5    6.12    1.85
   5 -14   6  247.94    8.69
  -5 -14  -6  255.53    7.89
  -5 -14  -7    2.97    1.26
   5 -14   7    6.70    1.92
   5 -14   8    5.44    1.73
   5 -14   9    3.82    1.62
   5 -14  10    3.61    1.68
  -5 -14 -11   20.04    2.25
   5 -14  11   20.47    2.85
  -5 -14 -12   46.04    3.29
   5 -14  12   43.07    3.85
  -5 -14 -13    1.68    1.22
   5 -14  13    1.43    1.61
  -5 -14 -14    2.61    1.37
   5 -14  14    2.14    1.55
   5 -14  15    1.55    1.69
  -5 -15  18   23.00    3.13
   5 -15 -17   -0.73    1.86
  -5 -15  17    1.81    1.79
   5 -15 -16    8.01    2.46
  -5 -15  16    7.74    1.90
   5 -15 -15    4.95    2.14
  -5 -15  15    4.74    1.74
   5 -15 -14   14.80    3.00
  -5 -15  14   14.84    2.40
   5 -15 -13  108.76    6.54
   5 -15 -12    3.42    1.97
   5 -15 -11  243.56    9.69
   5 -15 -10    5.29    2.12
   5 -15  -9    0.59    1.65
   5 -15  -8    5.21    2.08
   5 -15  -7   80.97    5.17
  -5 -15   6    6.29    1.39
   5 -15  -6    4.48    1.84
   5 -15  -5   21.15    2.95
  -5 -15   5   18.11    2.04
  -5 -15   4  115.79    4.92
   5 -15  -4  118.55    6.14
   5 -15  -3  156.94    7.00
  -5 -15   3  150.39    5.78
  -5 -15   2    6.91    1.62
   5 -15  -2    7.61    2.08
   5 -15  -1   -0.40    1.58
  -5 -15   1    1.38    1.19
   5 -15   0    3.69    1.66
  -5 -15   0    1.46    1.42
   5 -15   1  119.34    5.98
  -5 -15  -1  115.38    5.40
   5 -15   2   20.21    2.71
  -5 -15  -2   16.04    2.33
   5 -15   3   75.51    4.72
  -5 -15  -3   72.41    4.45
   5 -15   4    2.78    1.66
  -5 -15  -4    2.67    1.55
  -5 -15  -5  152.15    5.86
   5 -15   5  155.79    6.83
  -5 -15  -5  152.54    6.73
   5 -15   6    7.76    1.94
  -5 -15  -6   11.60    1.91
   5 -15   7  187.03    7.67
   5 -15   8   35.45    3.37
   5 -15   9   41.93    3.68
   5 -15  10   39.38    3.54
   5 -15  11    0.40    1.55
  -5 -15 -12   41.28    3.18
   5 -15  12   51.31    4.24
  -5 -15 -13    1.63    1.49
   5 -15  13    0.37    1.72
   5 -15  14   22.76    3.02
   5 -16 -15    0.47    1.86
  -5 -16  15    4.73    1.69
   5 -16 -14    1.98    2.17
  -5 -16  14    1.76    1.65
   5 -16 -13   11.57    2.67
   5 -16 -12  490.34   15.04
   5 -16 -11    5.98    2.23
   5 -16 -10  143.46    7.46
   5 -16  -9   -0.70    2.10
   5 -16  -8   19.94    3.04
   5 -16  -7    0.48    1.71
  -5 -16   6   18.09    2.09
   5 -16  -6   20.38    2.95
   5 -16  -5    6.65    2.03
  -5 -16   5    5.06    1.36
   5 -16  -4  246.62    9.33
  -5 -16   4  245.12    7.89
  -5 -16   3    0.83    1.38
   5 -16  -3   -1.91    1.94
   5 -16  -2  142.57    6.81
  -5 -16   2  137.96    5.84
   5 -16  -1   -3.00    1.79
  -5 -16   1    0.81    1.29
   5 -16   0   35.79    3.55
  -5 -16   0   37.31    3.20
   5 -16   1    5.41    2.02
  -5 -16  -1    4.02    1.67
   5 -16   2  113.75    6.00
  -5 -16  -2  109.91    5.60
   5 -16   3   10.13    2.22
  -5 -16  -3   12.66    2.25
   5 -16   4  147.03    6.88
  -5 -16  -4  146.49    6.83
   5 -16   5    4.68    1.68
  -5 -16  -5    5.22    2.01
   5 -16   6  498.82   13.97
  -5 -16  -6  493.54   14.05
   5 -16   7    1.86    1.61
  -5 -16  -7   -1.79    1.85
   5 -16   8   20.59    2.82
  -5 -16  -8   27.52    3.28
   5 -16   9    2.42    1.68
   5 -16  10  133.18    6.79
   5 -16  11   11.85    2.36
   5 -16  12    1.30    1.62
   5 -16  13    0.64    1.84
   5 -17 -13   64.42    5.38
   5 -17 -12    4.89    2.14
   5 -17 -11  279.14   10.91
   5 -17 -10   25.45    3.52
   5 -17  -9   16.53    2.88
   5 -17  -8    0.02    2.08
   5 -17  -7   11.38    2.64
  -5 -17   6    7.70    1.60
   5 -17  -6    7.96    2.33
  -5 -17   5   38.44    3.13
   5 -17  -5   39.13    3.88
   5 -17  -4    6.39    2.13
  -5 -17   4    7.77    1.76
   5 -17  -3  588.29   15.90
  -5 -17   3  558.50   13.96
  -5 -17   2   59.10    4.00
   5 -17  -1    9.62    2.48
  -5 -17   1    2.68    1.62
   5 -17   0    0.42    1.66
  -5 -17   0   -2.23    1.64
   5 -17   1   60.99    4.58
  -5 -17  -1   59.83    4.15
   5 -17   2   14.22    2.67
  -5 -17  -2   19.74    2.65
   5 -17   3   84.68    5.30
  -5 -17  -3   79.35    4.95
   5 -17   4    2.50    1.91
  -5 -17  -4    3.36    1.90
   5 -17   5  192.32    8.15
  -5 -17  -5  201.94    8.59
   5 -17   6    1.02    1.62
  -5 -17  -6    0.63    1.63
  -5 -17  -7   77.36    5.28
   5 -17   7   73.92    5.01
   5 -17   8   30.38    3.40
  -5 -17  -8   27.31    3.40
  -5 -17  -9   79.58    5.60
   5 -17   9   88.68    5.53
  -5 -17 -10    1.17    1.98
   5 -17  10    5.02    1.99
  -5 -17 -11  182.25    8.79
   5 -17  11  190.78    8.39
   5 -17  12    2.30    1.75
   5 -18 -11    7.02    2.19
   5 -18 -10  103.71    6.62
   5 -18  -9   15.88    2.83
   5 -18  -8    7.49    2.33
   5 -18  -7    6.51    2.29
  -5 -18   6    2.04    1.27
   5 -18  -6    6.36    2.09
   5 -18  -5    4.21    2.08
  -5 -18   5    1.03    1.43
  -5 -18   4   86.00    4.81
   5 -18  -4   86.72    5.74
   5 -18  -3    1.31    1.73
  -5 -18   3    5.74    1.89
  -5 -18   2  137.60    6.23
   5 -18  -1   44.00    4.09
  -5 -18   1   40.12    3.49
   5 -18   0   29.68    3.50
  -5 -18   0   26.57    3.00
   5 -18   1    6.69    2.20
  -5 -18  -1    2.83    1.76
   5 -18   2   49.62    4.34
  -5 -18  -2   42.65    3.81
   5 -18   3   -1.02    1.77
  -5 -18  -3    3.97    1.98
   5 -18   4   74.45    5.15
  -5 -18  -4   64.20    4.63
   5 -18   5    6.63    2.04
  -5 -18  -5    5.50    2.18
   5 -18   6  194.21    8.46
  -5 -18  -6  193.87    8.51
   5 -18   7    0.41    1.70
  -5 -18  -7    4.08    2.23
   5 -18   8    8.78    2.45
  -5 -18  -8    7.54    2.37
   5 -18   9   12.61    2.69
  -5 -18  -9    6.91    2.30
  -5 -18 -10   79.62    5.84
   5 -18  10   76.85    5.27
   5 -18  11   -0.83    1.82
   5 -18  12   -2.78    1.73
   5 -19  -9    5.26    2.35
   5 -19  -8   15.32    3.08
   5 -19  -7   21.02    3.30
   5 -19  -6    2.32    2.20
   5 -19  -5    5.67    2.23
  -5 -19   5    5.92    1.80
   5 -19  -4    8.37    2.58
  -5 -19   4    5.51    1.69
  -5 -19   3   72.67    4.62
   5 -19  -2   22.34    3.24
  -5 -19   2   13.93    2.32
   5 -19  -1    1.39    1.76
  -5 -19   1    3.11    1.80
   5 -19   0    4.04    1.95
  -5 -19   0    4.32    1.80
   5 -19   1   39.48    4.08
  -5 -19  -1   35.79    3.56
   5 -19   2    2.98    1.78
  -5 -19  -2    9.90    2.44
   5 -19   3   39.25    3.95
  -5 -19  -3   44.39    4.05
   5 -19   4   26.63    3.47
  -5 -19  -4   22.29    3.21
   5 -19   5   69.50    5.16
  -5 -19  -5   66.87    4.97
   5 -19   6    1.77    1.83
  -5 -19  -6    3.09    2.56
  -5 -19  -7   85.42    5.92
   5 -19   7   78.53    5.46
   5 -19   8   13.79    2.74
  -5 -19  -8   12.93    2.77
   5 -19   9   14.57    2.69
   5 -19  10   -2.15    2.01
   5 -19  11    1.11    1.97
  -5 -20   5    2.70    1.71
   5 -20  -5    2.55    2.18
   5 -20  -4    1.85    1.91
  -5 -20   4    0.01    1.51
  -5 -20   3    2.72    1.63
   5 -20  -2   10.20    2.77
  -5 -20   2    9.93    2.37
   5 -20  -1    2.67    1.83
  -5 -20   1    4.95    1.98
   5 -20   0   51.55    4.73
  -5 -20   0   49.06    4.18
   5 -20   1    3.63    2.05
  -5 -20  -1    1.35    1.63
   5 -20   2    7.79    2.48
  -5 -20  -2   12.22    2.52
   5 -20   3   -0.21    1.68
  -5 -20  -3   -1.79    1.88
   5 -20   4   11.01    2.59
  -5 -20  -4   15.77    2.85
   5 -20   5    5.68    2.01
  -5 -20  -5   11.48    2.70
   5 -20   6   35.04    3.89
  -5 -20  -6   37.77    4.06
   5 -20   7   14.20    2.83
   5 -20   8   -2.25    2.24
   5 -20   9   -2.94    1.91
   5 -20  10    1.54    2.17
  -5 -21   4    8.48    2.17
  -5 -21   3   23.31    3.12
  -5 -21   2   -1.30    1.73
  -5 -21   1   46.70    4.17
   5 -21   0    0.61    1.91
  -5 -21   0    0.83    1.85
   5 -21   1    8.19    2.61
  -5 -21  -1    6.72    2.19
   5 -21   2    8.75    2.58
  -5 -21  -2    8.59    2.43
   5 -21   3   34.02    3.94
  -5 -21  -3   27.95    3.80
   5 -21   4   26.67    3.56
  -5 -21  -4   31.43    3.73
   5 -21   5    0.99    2.11
   5 -21   6    9.30    2.61
   5 -21   7    9.02    2.47
   5 -21   8    7.84    2.54
   5 -21   9    5.19    2.26
  -5 -22   3   -0.11    1.65
  -5 -22   2   32.61    3.79
  -5 -22   1    2.29    2.15
  -5 -22   0   31.51    3.71
  -5 -22  -1    2.18    1.97
  -5 -22  -2   13.82    2.87
   6   0 -22   15.46    3.14
   6   0 -21    4.58    2.30
   6   0 -20   24.52    3.29
   6   0 -19    0.43    1.69
   6   0 -19    0.74    0.83
   6   0 -18  687.00   17.85
   6   0 -18  705.35   13.77
   6   0 -18  694.06   11.87
   6   0 -17    5.53    0.76
   6   0 -17    4.99    1.76
   6   0 -17    6.03    0.78
   6   0 -17    8.04    1.30
   6   0 -16  349.03   11.14
   6   0 -16  370.39    8.21
   6   0 -16  355.91    6.97
   6   0 -15    6.92    0.84
   6   0 -15    6.18    1.12
   6   0 -15    7.35    1.82
   6   0 -14    7.58    0.83
   6   0 -14    9.15    1.11
   6   0 -14    7.91    1.66
   6   0 -14    7.52    1.79
   6   0 -13    0.82    0.54
   6   0 -13   -0.15    1.24
   6   0 -13    0.64    1.36
   6   0 -13    1.32    0.70
   6   0 -12  597.67   13.55
   6   0 -12  591.30   14.04
   6   0 -12  602.58   11.12
   6   0 -12  602.36   10.83
   6   0 -11   14.56    1.12
   6   0 -11   17.71    2.13
   6   0 -11   17.38    1.86
   6   0 -11   11.78    1.12
   6   0 -10  406.14    9.65
   6   0 -10  398.96   10.09
   6   0 -10  394.89    7.66
   6   0 -10  397.37    7.81
   6   0  -9    3.50    1.00
   6   0  -9    1.68    1.09
   6   0  -9   -0.72    0.62
   6   0  -9    2.28    0.61
   6   0  -8  326.70    8.32
   6   0  -8  334.73    7.84
   6   0  -8  325.45    6.84
   6   0  -7    0.50    0.77
  -6   0   7    0.53    0.54
   6   0  -7    0.62    0.71
   6   0  -6 1149.65   19.71
  -6   0   6 1135.04   19.25
  -6   0   6 1133.02   18.73
   6   0  -6 1141.57   19.51
  -6   0   5    4.49    0.87
  -6   0   5    3.41    0.68
   6   0  -5    5.00    1.07
  -6   0   4   36.25    1.97
   6   0  -4   33.30    2.06
  -6   0   3    8.62    1.20
   6   0  -3   10.14    1.49
  -6   0   2  566.07   11.51
   6   0  -2  621.98   11.93
  -6   0   1   12.33    1.47
   6   0  -1    7.92    1.36
  -6   0   0  560.10   11.68
   6   0   0  578.19   11.76
   6   0   1    2.92    1.21
  -6   0  -1    4.07    1.31
  -6   0  -2  379.84    9.03
   6   0   2  344.02    8.55
   6   0   3   -1.01    1.33
  -6   0  -3   -0.33    1.12
  -6   0  -4 1071.48   19.88
   6   0   4  981.51   19.17
  -6   0  -5    3.46    1.22
   6   0   5    3.11    1.39
   6   0   6  118.84    3.90
   6   0   6  107.82    4.51
  -6   0  -6  118.51    4.79
   6   0   7    0.49    0.74
  -6   0  -7    4.26    1.38
   6   0   7    1.78    1.21
   6   0   8  319.23    7.84
   6   0   8  311.05    8.56
  -6   0  -8  307.41    8.82
   6   0   9    2.21    1.03
   6   0   9   -0.95    1.27
  -6   0  -9    1.08    1.01
   6   0  10   50.47    2.98
   6   0  10   49.09    3.33
  -6   0 -10   53.68    3.50
   6   0  11   11.52    2.00
   6   0  11   11.37    1.69
  -6   0 -11   12.21    1.81
   6   0  12  457.25   11.48
   6   0  12  444.45   12.00
  -6   0 -12  463.13   12.24
   6   0  13   23.27    2.39
   6   0  13   23.22    2.71
   6   0  14  390.83   11.63
   6   0  15    2.29    1.64
   6   0  16   10.33    2.39
   6   0  17   -0.60    1.72
   6   0  18   21.64    3.32
   6   0  19    2.07    1.77
   6   0  20    4.81    2.16
   6   0  21   -0.74    2.13
   6  -1 -22    4.33    2.38
   6   1 -22   11.75    2.82
   6  -1 -21    1.31    1.84
   6   1 -21    3.24    2.06
   6  -1 -20    5.00    1.15
   6   1 -20   -1.99    2.14
   6  -1 -20    4.04    2.37
   6   1 -19  159.80    4.83
   6  -1 -19  157.86    5.27
   6   1 -19  164.88    7.87
   6  -1 -19  152.62    7.57
   6  -1 -18    1.36    0.70
   6   1 -18    1.37    0.90
   6  -1 -18    0.49    0.88
   6   1 -18    0.35    1.69
   6  -1 -18    2.34    1.80
   6  -1 -17  415.48    8.57
   6   1 -17  433.51    8.95
   6  -1 -17  438.05    9.79
   6  -1 -17  411.84   12.65
   6   1 -17  395.38   12.41
   6  -1 -16   15.25    1.29
   6   1 -16   14.65    1.31
   6  -1 -16   14.41    1.58
   6   1 -16   15.51    2.49
   6  -1 -16   14.24    2.38
   6  -1 -15   34.75    1.90
   6   1 -15   43.61    3.55
   6  -1 -15   36.42    3.34
   6   1 -15   35.32    1.86
   6  -1 -15   34.52    2.18
   6  -1 -14   65.91    2.58
   6  -1 -14   68.27    4.30
   6   1 -14   76.88    4.17
   6   1 -14   70.48    4.31
   6  -1 -14   70.25    2.98
   6   1 -14   71.33    2.48
   6   1 -14   72.29    1.91
   6  -1 -13  321.50    7.15
   6  -1 -13  342.83    9.60
   6   1 -13  337.46    9.35
   6   1 -13  333.57    9.81
   6  -1 -13  327.01    9.79
   6   1 -13  339.57    6.79
   6  -1 -13  340.44    7.64
   6   1 -13  350.46    6.28
   6  -1 -12   52.59    2.29
   6  -1 -12   63.12    3.54
   6   1 -12   60.94    3.38
   6   1 -12   57.79    3.62
   6  -1 -12   56.98    3.64
   6   1 -12   61.60    2.07
   6  -1 -12   60.18    2.53
   6   1 -12   63.80    1.95
   6   1 -11  245.48    7.14
   6  -1 -11  250.33    7.41
   6  -1 -11  241.77    5.70
   6   1 -11  249.56    7.65
   6  -1 -11  249.84    7.82
   6   1 -11  245.01    5.01
   6  -1 -11  247.78    5.87
   6   1 -11  258.46    5.20
   6  -1 -10    0.35    0.53
   6  -1 -10   -0.67    0.94
   6   1 -10    2.46    1.19
   6   1 -10    1.42    0.80
   6  -1 -10   -0.08    0.93
   6  -1 -10   -1.12    0.71
   6   1 -10    4.01    0.83
   6   1  -9  698.76   13.73
   6  -1  -9  705.16   14.11
   6  -1  -9  671.88   12.52
   6   1  -9  688.51   14.35
   6  -1  -9  681.69   12.40
   6   1  -9  686.32   12.11
   6   1  -8    3.85    1.04
   6  -1  -8    2.99    0.83
   6  -1  -8    2.54    0.82
   6   1  -8    5.84    1.25
   6  -1  -8    2.66    0.78
   6   1  -8    2.01    0.65
   6   1  -7  411.48    8.53
   6   1  -7  424.77    9.31
  -6  -1   7  384.98    7.04
  -6   1   7  397.37    7.86
   6   1  -7  390.82    8.01
   6  -1  -7  414.64    8.33
  -6  -1   6  141.03    3.72
   6   1  -6  143.75    3.97
   6   1  -6  147.97    4.52
  -6   1   6  136.45    3.72
  -6  -1   6  137.89    3.19
   6  -1  -6  138.08    4.06
   6   1  -6  139.83    3.96
  -6  -1   5  262.87    5.97
   6   1  -5  265.24    5.82
  -6   1   5  269.44    6.23
  -6  -1   5  270.44    5.37
  -6   1   5  266.04    5.87
   6  -1  -5  273.18    6.32
   6   1  -5  262.96    6.11
  -6   1   4    3.48    0.97
  -6  -1   4    3.42    0.86
  -6   1   4    4.80    0.91
   6   1  -4    6.46    1.14
   6  -1  -4    5.25    1.16
  -6   1   3  125.90    3.95
   6   1  -3  123.07    3.89
   6  -1  -3  125.62    4.11
  -6  -1   3  122.94    3.87
  -6   1   2    0.99    0.87
  -6  -1   2    2.87    0.93
   6  -1  -2    2.04    1.14
   6   1  -2    3.32    1.16
  -6   1   1 1097.23   20.30
   6  -1  -1 1229.26   20.96
  -6  -1   1 1182.03   20.65
   6   1  -1 1115.79   20.21
   6   1   0   29.16    2.10
  -6  -1   0   31.09    2.22
  -6   1   0   26.50    1.97
   6  -1   0   32.14    2.42
  -6  -1  -1  988.08   18.12
  -6   1  -1  956.89   18.05
   6  -1   1  990.32   18.22
   6   1   1  931.87   17.75
   6  -1   2    3.41    1.42
  -6   1  -2    2.11    0.99
   6   1   2    3.16    1.22
  -6  -1  -2    1.62    1.08
   6   1   3  743.78   15.03
   6  -1   3  749.98   15.17
  -6  -1  -3  779.30   15.28
  -6   1  -3  776.30   15.36
   6   1   4    1.30    0.62
  -6   1  -4    1.70    1.21
  -6  -1  -4    0.32    0.97
   6  -1   4    0.42    1.17
   6   1   4    0.67    1.11
   6   1   5    9.87    1.04
  -6   1  -5    9.94    1.63
   6  -1   5    9.23    1.70
   6   1   5    8.78    1.64
  -6  -1  -5    9.87    1.58
   6   1   6  196.20    5.18
   6   1   6  197.14    6.26
  -6   1  -6  223.08    6.84
  -6  -1  -6  209.93    6.55
   6  -1   6  194.58    6.31
   6  -1   7    1.57    0.91
   6   1   7    1.66    0.82
   6   1   7   -0.55    1.00
  -6  -1  -7    2.02    1.19
  -6   1  -7    3.50    1.33
   6  -1   7    1.30    1.26
   6   1   8   36.69    2.22
   6   1   8   36.52    2.55
   6  -1   8   36.01    2.39
   6  -1   8   32.91    2.59
  -6   1  -8   36.74    2.82
  -6  -1  -8   35.73    2.73
   6   1   9  333.36    9.00
   6  -1   9  338.27    8.73
   6   1   9  337.74    8.37
   6  -1   9  324.16    9.06
  -6   1  -9  369.10   10.00
  -6  -1  -9  350.00    9.57
   6   1  10   11.71    1.76
   6   1  10    9.39    1.43
   6  -1  10   12.30    1.71
   6  -1  10    9.89    1.68
   6  -1  10   10.49    1.82
  -6  -1 -10    9.40    1.61
  -6   1 -10   11.36    1.81
   6  -1  11  186.74    6.90
   6  -1  11  197.74    6.64
   6   1  11  188.53    6.25
   6   1  11  192.00    6.90
  -6   1 -11  203.56    7.35
  -6  -1 -11  200.01    7.13
   6   1  12    2.99    1.24
   6   1  12    7.21    1.73
   6  -1  12    5.26    1.66
   6  -1  12   10.34    1.77
  -6  -1 -12    7.17    1.66
  -6   1 -12    7.00    1.72
   6  -1  13  517.86   13.06
   6   1  13  515.10   12.77
   6  -1  13  512.03   13.61
   6   1  13  510.83   13.45
  -6   1 -13  550.99   13.94
   6   1  14    4.93    1.97
   6  -1  14    7.03    1.90
   6   1  15   35.83    3.48
   6  -1  15   38.66    3.68
   6   1  16    2.98    1.81
   6  -1  16    4.11    2.10
   6   1  17   52.78    4.44
   6  -1  17   57.99    4.72
   6  -1  18    2.66    1.98
   6   1  18    2.20    2.03
   6  -1  19   88.28    6.08
   6   1  19   88.57    6.09
   6  -1  20    3.85    2.45
   6   1  20    3.57    2.09
   6  -1  21   64.55    5.57
   6   1  21   61.40    5.33
   6   2 -22   18.03    3.15
   6  -2 -22   17.95    3.47
   6   2 -21    5.99    2.10
   6  -2 -21    3.85    2.20
   6  -2 -20   44.79    2.88
   6  -2 -20   44.26    4.36
   6   2 -20   41.93    4.23
   6  -2 -19    0.63    0.91
   6  -2 -19    1.59    0.89
   6  -2 -19    1.92    1.80
   6   2 -19    0.61    1.72
   6  -2 -18  421.76    9.22
   6   2 -18  431.46    8.63
   6  -2 -18  433.22   10.28
   6  -2 -18  415.82   13.07
   6   2 -18  427.30   13.14
   6  -2 -17   10.38    1.32
   6   2 -17   10.20    1.06
   6  -2 -17    9.30    1.44
   6   2 -17    7.54    1.97
   6  -2 -17    6.90    1.95
   6  -2 -16   18.61    1.58
   6  -2 -16   20.64    1.88
   6   2 -16   20.67    1.33
   6   2 -16   21.67    2.66
   6  -2 -16   19.22    2.73
   6  -2 -15   27.95    1.89
   6  -2 -15   30.03    2.19
   6   2 -15   27.47    1.39
   6   2 -15   26.45    2.84
   6  -2 -15   25.88    2.90
   6  -2 -14    1.24    0.69
   6  -2 -14    0.42    0.80
   6   2 -14    2.54    0.61
   6  -2 -14   -0.74    1.43
   6   2 -14    3.45    1.57
   6  -2 -13   16.86    1.46
   6  -2 -13   19.50    2.23
   6  -2 -13   18.41    1.60
   6   2 -13   17.96    0.97
   6  -2 -13   17.63    2.23
   6   2 -13   15.55    2.11
   6  -2 -12  201.37    6.81
   6  -2 -12  194.43    5.29
   6   2 -12  196.75    3.83
   6  -2 -12  209.62    5.59
   6   2 -12  202.55    6.44
   6   2 -12  201.57    7.02
   6  -2 -12  204.13    7.19
   6  -2 -11   96.85    3.41
   6  -2 -11  100.57    4.47
   6   2 -11  101.42    4.16
   6   2 -11  106.51    4.68
   6  -2 -11  100.06    4.71
   6  -2 -11  108.10    3.70
   6  -2 -10   12.87    1.27
   6  -2 -10   13.37    1.75
   6   2 -10   12.90    1.70
   6   2 -10   14.84    1.58
   6  -2 -10   13.65    1.32
   6   2 -10   11.18    0.64
   6  -2  -9  244.50    6.92
   6  -2  -9  241.93    5.91
   6   2  -9  247.94    6.44
   6   2  -9  254.54    7.11
   6  -2  -9  247.04    5.92
   6   2  -9  234.67    4.78
   6  -2  -8  249.06    6.03
   6   2  -8  259.92    6.30
   6   2  -8  255.91    6.87
   6  -2  -8  249.98    5.92
   6   2  -8  240.77    5.08
   6  -2  -7   78.99    2.98
  -6  -2   7   75.84    2.35
   6   2  -7   78.26    2.87
   6   2  -7   73.91    3.23
   6  -2  -7   78.05    2.85
  -6   2   7   80.77    2.84
   6   2  -7   79.28    2.47
   6  -2  -6  238.33    5.91
   6   2  -6  247.30    5.52
   6   2  -6  245.45    6.14
  -6   2   6  236.58    5.63
  -6  -2   6  244.64    4.43
  -6  -2   6  228.60    5.23
   6   2  -6  223.47    5.23
   6  -2  -5   13.14    1.39
   6   2  -5   13.33    1.06
   6   2  -5   14.58    1.36
  -6   2   5   12.43    1.21
   6   2  -5   12.49    1.21
  -6  -2   5   11.21    1.08
   6   2  -4  466.82    8.39
  -6   2   4  473.71    9.72
   6   2  -4  484.15    9.18
  -6   2   4  476.63    9.45
  -6  -2   4  458.18    9.31
   6   2  -4  451.61    9.25
   6  -2  -4  479.24    9.76
  -6   2   3   70.62    2.90
   6   2  -3   69.89    2.37
   6   2  -3   67.15    2.74
  -6   2   3   69.51    2.79
  -6  -2   3   70.04    2.92
   6  -2  -3   72.77    3.04
  -6   2   2    4.09    1.03
   6   2  -2    2.72    1.07
  -6  -2   2    0.36    0.89
   6  -2  -2    2.63    1.13
  -6   2   1    4.49    1.07
   6   2  -1    4.97    1.19
   6  -2  -1    4.37    1.20
  -6  -2   1    4.68    1.05
   6   2   0  207.80    5.76
   6  -2   0  215.45    6.19
  -6   2   0  206.21    5.88
  -6  -2   0  225.86    6.02
  -6   2  -1   13.46    1.56
   6  -2   1   15.77    1.89
   6   2   1   15.77    1.77
  -6  -2  -1   12.59    1.42
   6   2   2  382.22    8.88
   6  -2   2  391.21    9.33
  -6   2  -2  348.95    8.76
  -6  -2  -2  397.38    9.03
   6   2   3    3.10    0.56
   6   2   3    5.70    1.45
  -6   2  -3    3.83    1.16
   6  -2   3    1.40    1.30
  -6  -2  -3    6.39    1.30
   6   2   4  777.57   14.12
   6   2   4  760.79   13.22
  -6   2  -4  779.78   15.70
  -6  -2  -4  808.44   15.66
   6  -2   4  774.05   15.76
   6   2   5   70.60    2.94
   6   2   5   69.29    2.44
  -6  -2  -5   69.57    3.50
   6  -2   5   69.26    3.53
  -6   2  -5   70.32    3.50
   6   2   6  144.64    4.07
   6   2   6  145.73    4.68
   6  -2   6  140.15    5.23
  -6  -2  -6  157.32    5.46
  -6   2  -6  144.47    5.32
   6   2   7   24.50    1.69
   6   2   7   22.22    1.97
   6  -2   7   19.55    2.16
  -6   2  -7   26.91    2.41
  -6  -2  -7   24.72    2.26
   6   2   8   12.01    1.63
   6   2   8   13.14    1.42
   6  -2   8   15.29    1.67
  -6   2  -8   14.80    2.00
   6  -2   8   11.89    1.81
  -6  -2  -8   12.85    1.74
   6   2   9    3.49    1.01
   6   2   9    3.32    1.25
   6  -2   9    2.78    1.06
  -6  -2  -9    2.25    1.13
  -6   2  -9    4.60    1.51
   6  -2   9    1.88    1.33
   6   2  10    5.62    1.20
   6   2  10    5.01    1.47
   6  -2  10    6.44    1.42
  -6   2 -10    5.99    1.56
   6  -2  10    6.84    1.63
  -6  -2 -10    6.56    1.47
   6   2  11   86.64    4.44
   6   2  11   84.28    3.97
   6  -2  11   81.55    4.17
   6  -2  11   80.28    4.26
  -6   2 -11   89.66    4.65
  -6  -2 -11   82.40    4.38
   6  -2  12  218.92    7.90
   6  -2  12  228.26    7.70
   6   2  12  233.64    7.33
   6   2  12  236.86    7.99
  -6   2 -12  259.34    8.36
   6  -2  13  128.33    6.11
   6   2  13  127.81    5.39
   6   2  13  137.58    6.11
  -6   2 -13  148.44    6.24
   6   2  14   55.48    4.06
   6  -2  14   48.71    3.86
   6   2  15   36.43    3.41
   6  -2  15   39.04    3.70
   6   2  16   18.90    2.85
   6  -2  16   18.73    2.90
   6   2  17    1.11    1.63
   6  -2  17   -0.28    1.88
   6  -2  18   76.94    5.55
   6   2  18   67.89    5.15
   6  -2  19    1.29    1.86
   6   2  19   -0.55    2.01
   6   2  20    0.58    1.86
   6  -2  20    2.83    2.17
   6   2  21   18.83    3.15
   6  -3 -22    2.69    1.85
   6  -3 -21    3.78    1.31
   6   3 -21    3.06    2.16
   6  -3 -21    1.44    1.78
   6  -3 -20    0.56    1.11
   6  -3 -20   -2.01    1.85
   6   3 -20   -2.68    2.02
   6  -3 -19   94.83    4.43
   6   3 -19  107.27    6.29
   6  -3 -19   96.98    6.04
   6  -3 -18   23.68    2.23
   6   3 -18   25.63    3.20
   6  -3 -18   21.40    2.97
   6  -3 -17   78.75    3.88
   6   3 -17   65.85    2.11
   6  -3 -17   72.70    4.90
   6   3 -17   75.59    4.91
  -6  -3  16   70.47    4.25
   6  -3 -16   76.02    3.74
   6   3 -16   70.48    2.05
   6   3 -16   79.04    4.91
   6  -3 -16   71.16    4.71
  -6  -3  15   22.70    2.47
   6   3 -15   21.43    0.95
   6  -3 -15   28.58    2.27
   6   3 -15   24.77    2.81
   6  -3 -15   29.04    3.10
  -6  -3  14    6.31    1.45
   6  -3 -14    4.94    1.20
   6  -3 -14    6.83    1.82
   6   3 -14    8.88    1.77
  -6  -3  13   81.25    3.99
   6  -3 -13   90.10    3.74
   6   3 -13   79.41    4.35
   6  -3 -13   84.45    4.70
  -6  -3  12   11.70    1.60
   6  -3 -12   13.81    1.90
   6  -3 -12   15.68    1.63
   6   3 -12   12.19    1.79
   6  -3 -12   12.25    1.93
  -6  -3  11   65.12    3.22
   6  -3 -11   68.07    3.74
   6  -3 -11   67.72    3.05
   6  -3 -11   67.00    3.05
   6   3 -11   65.02    3.61
   6  -3 -10    2.71    0.99
   6  -3 -10    2.91    1.10
   6  -3 -10    2.13    0.93
   6   3 -10    0.12    1.12
   6  -3  -9    8.62    1.18
   6  -3  -9    9.71    1.49
   6  -3  -9    8.95    1.32
   6   3  -9   10.00    1.49
   6  -3  -8   17.12    1.54
  -6  -3   8   19.74    0.98
   6   3  -8   15.70    1.62
   6   3  -8   17.94    1.46
   6  -3  -8   19.42    1.63
   6  -3  -7  511.66   10.41
   6   3  -7  496.33    9.76
   6   3  -7  521.24   10.77
   6  -3  -7  511.70   10.29
  -6   3   7  498.83   10.20
  -6  -3   7  498.18    9.10
   6  -3  -6    2.44    0.94
   6   3  -6    3.01    0.97
   6   3  -6    3.29    0.75
  -6   3   6    2.52    0.77
   6  -3  -6    3.99    1.09
  -6  -3   6    3.06    0.70
   6  -3  -5  187.23    5.22
   6   3  -5  177.69    4.09
   6   3  -5  190.00    4.87
   6   3  -5  184.15    4.55
  -6   3   5  193.32    5.11
  -6  -3   5  184.44    4.69
   6  -3  -4    6.73    1.28
   6   3  -4    4.66    0.85
   6   3  -4    4.81    0.59
   6   3  -4    6.13    1.02
  -6   3   4    6.01    1.09
  -6  -3   4    4.77    0.96
   6   3  -3   71.35    1.72
  -6   3   3   81.46    3.23
   6   3  -3   81.37    2.43
   6   3  -3   78.96    2.91
  -6   3   3   76.98    3.09
   6  -3  -3   83.69    3.34
  -6  -3   3   76.06    2.96
  -6   3   2   58.13    2.73
   6   3  -2   58.22    1.78
  -6   3   2   60.53    2.71
  -6  -3   2   57.78    2.63
   6  -3  -2   58.98    2.90
   6   3  -1    4.77    0.48
  -6   3   1    6.55    1.20
   6  -3  -1    5.55    1.29
  -6  -3   1    5.34    1.09
   6   3   0    4.27    0.47
  -6   3   0    4.88    1.06
  -6  -3   0    5.16    1.11
   6  -3   0    6.86    1.40
   6   3   1  110.79    2.69
  -6   3  -1  120.86    4.25
   6  -3   1  122.63    4.46
  -6  -3  -1  113.82    4.12
   6   3   2    4.42    0.76
  -6   3  -2    1.92    0.93
   6  -3   2    4.90    1.45
  -6  -3  -2    2.92    1.05
   6   3   3 1793.14   29.29
  -6  -3  -3 1881.44   31.42
   6  -3   3 1892.69   32.01
  -6   3  -3 1750.85   31.25
   6   3   4    4.22    0.90
   6   3   4    4.33    0.65
  -6   3  -4    2.23    1.13
   6  -3   4    4.25    1.41
  -6  -3  -4    7.23    1.34
   6   3   5  208.60    4.73
   6   3   5  218.25    5.60
  -6  -3  -5  221.73    6.60
   6  -3   5  209.85    6.60
  -6   3  -5  193.13    6.28
   6   3   6   36.24    1.83
   6   3   6   36.18    2.23
  -6   3  -6   34.79    2.54
   6  -3   6   38.80    2.84
  -6  -3  -6   39.24    2.72
   6   3   7   51.91    2.35
   6   3   7   48.85    2.73
  -6  -3  -7   49.92    3.07
  -6   3  -7   47.24    2.97
   6  -3   7   50.09    3.12
   6   3   8   34.17    2.46
  -6   3  -8   39.18    2.88
  -6  -3  -8   36.58    2.75
   6  -3   8   30.90    2.61
   6  -3   9   55.37    3.33
   6   3   9   55.88    3.29
  -6   3  -9   55.29    3.43
  -6  -3  -9   57.97    3.47
   6  -3   9   52.90    3.41
   6  -3  10    3.68    1.17
   6   3  10    0.74    1.14
   6  -3  10    2.55    1.17
  -6  -3 -10    2.37    1.34
  -6   3 -10    1.99    1.24
   6  -3  11    1.27    1.12
   6   3  11    4.83    1.55
  -6   3 -11    1.39    1.16
   6  -3  11   -0.26    1.38
  -6  -3 -11    1.64    1.10
   6   3  12    5.00    1.62
  -6   3 -12    5.36    1.48
   6  -3  12    6.75    1.59
   6   3  13   26.03    2.74
   6  -3  13   25.30    2.85
   6  -3  13   23.25    2.51
  -6   3 -13   25.52    2.63
   6   3  14   36.84    3.35
   6  -3  14   43.52    3.77
   6   3  15   44.00    3.69
   6  -3  15   41.15    3.75
   6   3  16   14.95    2.56
   6  -3  16   19.37    2.82
   6   3  17    2.96    1.85
   6  -3  17    1.71    1.73
   6   3  18    7.76    2.26
   6  -3  18    2.58    1.97
   6   3  19  122.34    7.10
   6  -3  19  129.03    7.40
   6  -3  20   18.98    3.46
   6   3  20   24.19    3.51
   6   3  21    8.03    2.56
   6  -4 -22    2.01    1.97
   6  -4 -21    3.35    1.36
   6  -4 -21    1.15    1.72
   6  -4 -20   -0.38    1.43
   6  -4 -20    1.80    2.03
  -6  -4  19   13.36    2.41
   6  -4 -19   12.64    1.89
   6  -4 -19   14.66    2.75
  -6  -4  18   87.05    5.07
   6  -4 -18   88.51    4.43
   6  -4 -18   89.44    5.65
   6   4 -18   87.04    5.59
  -6  -4  17  117.44    5.74
   6  -4 -17  133.06    5.41
   6   4 -17  135.95    6.75
   6  -4 -17  131.01    6.60
  -6  -4  16  105.65    5.18
   6  -4 -16  112.32    4.79
   6   4 -16  106.46    5.79
   6  -4 -16  111.25    5.98
  -6  -4  15   51.90    3.48
   6  -4 -15   57.18    3.35
   6   4 -15   61.12    4.17
   6  -4 -15   57.40    4.15
  -6  -4  14   74.45    4.00
   6  -4 -14   83.72    3.90
   6  -4 -14   70.30    4.45
   6   4 -14   82.53    4.67
  -6  -4  13    1.05    1.09
   6  -4 -13    3.02    1.18
   6   4 -13    0.09    1.11
   6  -4 -12  252.59    8.13
  -6  -4  12  242.06    7.14
   6  -4 -12  261.29    7.12
   6   4 -12  249.90    7.96
   6  -4 -11    5.52    1.35
  -6  -4  11    5.01    1.17
   6  -4 -11    7.30    1.34
   6   4 -11    5.50    1.36
  -6  -4  10  355.65    8.43
   6  -4 -10  363.01    9.58
   6  -4 -10  363.79    8.66
   6   4 -10  356.56    9.30
   6  -4  -9    6.17    1.25
  -6  -4   9    5.65    1.04
   6   4  -9    7.05    1.41
   6  -4  -9    5.97    1.30
  -6  -4   8   25.41    1.67
   6  -4  -8   27.40    1.99
   6   4  -8   25.98    2.03
   6  -4  -8   26.12    1.96
  -6  -4   8   25.88    1.13
  -6  -4   7   50.40    2.12
   6  -4  -7   51.56    2.67
   6   4  -7   51.54    2.63
  -6   4   7   48.85    2.52
   6  -4  -7   53.70    2.72
  -6  -4   7   48.42    1.88
   6  -4  -6 1195.60   21.15
   6   4  -6 1198.69   20.68
   6  -4  -6 1199.81   21.01
  -6   4   6 1149.49   20.84
  -6  -4   6 1177.59   19.96
   6  -4  -5    7.99    1.28
   6   4  -5   10.14    1.17
  -6   4   5   10.04    1.30
  -6  -4   5    8.70    1.00
   6  -4  -4   25.52    2.00
   6   4  -4   27.76    1.53
  -6   4   4   24.52    1.85
  -6  -4   4   24.18    1.58
   6  -4  -3    5.00    1.26
   6   4  -3    7.33    0.83
  -6   4   3    4.97    1.16
  -6  -4   3    6.55    1.01
  -6   4   2  455.28    9.89
  -6  -4   2  459.78    9.54
   6  -4  -2  450.74   10.00
  -6   4   1    2.06    0.99
   6  -4  -1    1.31    1.15
  -6   4   1    2.91    0.95
  -6  -4   1    2.78    0.91
  -6   4   0   39.29    2.37
  -6  -4   0   37.24    2.28
   6  -4   0   37.48    2.50
   6   4   1   71.00    1.90
  -6   4  -1   71.65    3.28
  -6  -4  -1   73.58    3.26
   6  -4   1   77.95    3.54
  -6   4  -2   32.29    2.25
   6   4   2   32.19    1.45
  -6  -4  -2   33.70    2.34
   6  -4   2   35.41    2.48
  -6   4  -3  134.75    4.90
   6   4   3  134.51    3.63
  -6  -4  -3  141.41    4.87
   6  -4   3  139.84    5.11
  -6   4  -4  471.80   11.06
   6   4   4  488.00    9.62
  -6  -4  -4  497.60   11.14
   6  -4   4  494.32   11.54
   6   4   5  161.39    4.67
  -6  -4  -5  171.73    5.74
  -6   4  -5  156.71    5.51
   6  -4   5  162.07    5.89
   6   4   6  930.13   17.07
  -6  -4  -6  961.09   18.52
  -6   4  -6  879.24   18.20
   6  -4   6  901.17   18.48
   6   4   7  106.65    4.09
  -6  -4  -7  109.85    4.67
  -6   4  -7   99.79    4.40
   6  -4   7  110.97    4.83
   6   4   8  289.53    7.72
  -6  -4  -8  308.79    8.61
  -6   4  -8  268.52    8.09
   6  -4   8  281.32    8.31
  -6   4  -9    9.18    1.66
   6   4   9   11.45    1.70
  -6  -4  -9   12.69    1.81
   6  -4   9   11.73    1.88
   6  -4  10    6.17    1.59
  -6   4 -10    2.72    1.21
   6   4  10    1.13    1.09
   6  -4  10    5.54    1.53
  -6  -4 -10    6.66    1.58
   6  -4  11   43.44    3.18
   6   4  11   39.12    3.04
  -6   4 -11   35.01    2.83
   6  -4  11   26.17    2.58
  -6   4 -12   26.20    2.59
   6   4  12   26.82    2.67
   6  -4  12   25.80    2.65
  -6   4 -13   18.64    2.29
   6   4  13   19.52    2.55
   6  -4  13   18.30    2.38
   6   4  14   24.22    2.78
   6  -4  14   23.87    2.53
   6  -4  14   26.54    3.13
   6   4  15   21.06    2.75
   6  -4  15   20.26    2.92
   6   4  16   33.75    3.49
   6  -4  16   30.75    3.53
   6   4  17    3.97    1.92
   6  -4  17    1.40    1.65
   6  -4  18  109.14    6.74
   6   4  18  101.14    6.28
   6   4  19   22.84    3.45
   6  -4  19   26.97    3.87
   6   4  20  102.28    6.65
   6  -4  20  105.99    6.90
   6   4  21   43.85    4.60
   6  -5 -22   11.66    3.12
  -6  -5  21    6.97    2.32
   6  -5 -21    7.45    1.83
   6  -5 -21    5.87    2.18
  -6  -5  20    6.85    2.41
   6  -5 -20    2.64    1.57
   6  -5 -20    2.07    2.01
  -6  -5  19    5.05    2.06
   6  -5 -19    1.57    1.52
   6  -5 -19    1.35    1.96
  -6  -5  18   36.31    3.50
   6  -5 -18   40.19    3.25
   6  -5 -18   41.84    4.02
  -6  -5  17   88.36    4.99
   6  -5 -17   92.69    4.67
   6  -5 -17   87.41    5.53
  -6  -5  16   22.85    2.58
   6  -5 -16   25.97    2.62
   6  -5 -16   23.94    3.01
  -6  -5  15  184.37    6.81
   6  -5 -15  190.24    6.53
   6  -5 -15  176.98    7.59
  -6  -5  14    2.09    1.21
   6  -5 -14    6.07    1.55
  -6  -5  13  101.22    4.51
   6  -5 -13  103.05    4.48
   6   5 -13  105.10    5.11
  -6  -5  12   31.68    2.45
   6  -5 -12   29.41    2.43
   6   5 -12   27.56    2.58
  -6  -5  12   27.57    2.48
   6  -5 -11  179.24    6.53
  -6  -5  11  174.84    5.51
   6  -5 -11  173.20    5.72
   6   5 -11  163.41    6.06
  -6  -5  11  173.03    6.13
  -6  -5  10   70.70    3.15
   6  -5 -10   78.26    3.63
   6   5 -10   69.05    3.59
  -6  -5  10   72.07    3.63
  -6  -5   9  355.03    6.11
  -6  -5   9  365.73    8.13
   6   5  -9  362.83    9.11
  -6  -5   9  373.65    9.09
   6  -5  -9  376.00    8.94
  -6  -5   8    9.87    1.19
  -6  -5   8    9.23    1.36
   6  -5  -8    5.47    1.23
  -6  -5   8    9.52    0.81
  -6  -5   7  706.07   12.75
   6  -5  -7  727.39   14.32
  -6  -5   7  728.60   13.90
  -6   5   7  706.29   14.11
   6  -5  -7  716.67   14.20
  -6  -5   7  685.59   12.49
  -6  -5   6   49.49    1.89
   6  -5  -6   52.75    2.87
  -6  -5   6   50.23    2.40
  -6  -5   6   47.57    1.22
   6  -5  -6   47.75    2.69
  -6   5   6   50.16    2.71
  -6  -5   6   50.19    2.09
   6  -5  -5  274.36    7.16
  -6  -5   5  264.72    5.19
  -6  -5   5  268.63    6.21
  -6   5   5  266.73    7.00
   6  -5  -5  268.91    6.97
  -6  -5   5  272.89    6.13
   6  -5  -4    4.09    1.21
  -6  -5   4    5.47    0.82
  -6   5   4    4.46    1.12
  -6  -5   4    5.25    0.92
   6  -5  -3 1358.23   23.88
  -6  -5   3 1372.06   22.96
  -6   5   3 1361.28   23.81
  -6  -5   3 1309.91   21.69
   6  -5  -2   84.96    3.63
  -6  -5   2   86.10    3.27
  -6   5   2   81.75    3.54
   6  -5  -1   54.41    2.89
  -6  -5   1   54.73    2.67
  -6   5   1   51.08    2.79
  -6   5   0    1.99    0.99
   6  -5   0    2.09    1.19
  -6   5   0    1.10    0.96
  -6  -5   0    1.74    0.91
   6  -5   1   25.16    2.11
  -6   5  -1   24.29    2.02
  -6  -5  -1   22.79    1.93
  -6   5  -2   40.59    2.58
  -6  -5  -2   38.88    2.49
   6  -5   2   41.94    2.72
  -6   5  -3   16.99    1.75
   6  -5   3   12.65    1.70
  -6  -5  -3   14.97    1.72
   6   5   4  157.61    4.33
  -6   5  -4  160.14    5.47
  -6  -5  -4  161.25    5.49
   6  -5   4  160.66    5.65
   6   5   5 1322.84   22.75
  -6   5  -5 1318.13   24.34
  -6  -5  -5 1337.11   24.56
   6  -5   5 1310.81   24.76
  -6  -5  -6    9.36    0.90
  -6   5  -6   11.26    1.60
   6   5   6    9.68    1.35
  -6  -5  -6    9.87    1.70
   6  -5   6   10.55    1.97
   6   5   7 1559.98   27.01
  -6   5  -7 1500.26   27.96
  -6  -5  -7 1541.94   25.50
  -6  -5  -7 1601.51   28.53
   6  -5   7 1491.79   28.32
  -6  -5  -8    7.49    1.02
  -6   5  -8    4.94    1.20
   6   5   8    8.01    1.48
   6  -5   8    7.72    1.65
  -6  -5  -8    6.60    1.43
  -6  -5  -9    6.99    1.14
  -6   5  -9    8.25    1.61
   6   5   9    6.32    1.43
   6  -5   9    6.80    1.63
  -6  -5  -9    7.18    1.55
  -6  -5 -10   76.82    3.34
   6   5  10   77.74    4.01
  -6   5 -10   69.27    3.89
   6  -5  10   72.05    4.11
  -6  -5 -11   33.11    2.39
  -6   5 -11   26.78    2.51
   6   5  11   28.11    2.67
   6  -5  11   28.72    2.73
   6   5  12   64.59    3.96
   6  -5  12   58.41    3.71
  -6   5 -12   58.05    3.74
  -6   5 -13    3.66    1.42
   6   5  13    3.03    1.63
   6  -5  13    0.87    1.21
   6   5  14    5.42    1.68
   6  -5  14    8.19    1.77
   6   5  15  428.31   12.48
   6  -5  15  410.19   11.41
   6  -5  15  412.63   12.85
   6   5  16   94.76    5.63
   6  -5  16   90.04    5.70
   6   5  17    1.31    1.65
   6  -5  17   -1.60    1.83
   6   5  18    2.40    1.64
   6  -5  18    1.68    1.88
   6  -5  19  273.38   11.21
   6  -5  20   11.95    3.04
  -6  -6  23   54.00    4.81
  -6  -6  22   11.20    2.41
   6  -6 -22   13.37    2.26
  -6  -6  21    1.64    1.77
   6  -6 -21    0.31    1.85
   6  -6 -21    1.57    1.87
  -6  -6  20    9.10    2.35
   6  -6 -20    5.57    1.76
   6  -6 -20    3.45    2.11
  -6  -6  19   -0.31    1.58
   6  -6 -19    1.80    1.45
   6  -6 -19    7.15    2.20
  -6  -6  18    1.30    1.68
   6  -6 -18    0.25    1.40
   6  -6 -18    2.24    1.77
  -6  -6  17    4.00    1.71
   6  -6 -17    5.08    1.71
   6  -6 -17    7.21    2.17
  -6  -6  16  254.02    8.49
   6  -6 -16  270.39    8.47
   6  -6 -16  258.00    9.63
  -6  -6  15    0.64    1.22
   6  -6 -15    0.87    1.26
  -6  -6  14   69.74    3.85
   6  -6 -14   72.92    4.06
  -6  -6  13    0.74    1.06
   6  -6 -13    0.74    1.35
  -6  -6  12  631.09   13.74
   6  -6 -12  660.84   14.38
  -6  -6  12  657.19   14.95
  -6  -6  11   86.93    3.75
   6  -6 -11   92.68    4.26
  -6  -6  11   93.86    4.45
  -6  -6  10  711.41   14.17
  -6  -6  10  724.63   15.35
   6  -6 -10  739.16   15.30
  -6  -6   9   37.03    2.17
  -6  -6   9   37.63    2.50
   6  -6  -9   40.86    2.80
  -6  -6   9   35.92    1.29
  -6  -6   8  288.84    6.65
  -6  -6   8  288.04    7.49
   6  -6  -8  301.61    7.97
  -6  -6   8  281.80    5.85
  -6  -6   7    7.45    0.99
  -6  -6   7    5.63    1.04
   6  -6  -7    3.32    1.25
  -6   6   7    3.38    1.01
  -6  -6   7    5.64    0.80
  -6  -6   6 1655.04   26.69
   6  -6  -6 1684.80   29.22
  -6  -6   6 1631.02   27.92
  -6  -6   6 1655.10   25.81
   6  -6  -6 1697.61   29.14
  -6   6   6 1692.45   29.12
  -6  -6   6 1669.41   27.22
  -6  -6   5  108.05    2.72
   6  -6  -5  109.95    4.39
   6  -6  -5  108.62    4.25
  -6   6   5  108.43    4.20
  -6  -6   5  107.69    3.43
  -6  -6   5  112.33    3.53
   6  -6  -4  138.48    4.90
  -6  -6   4  129.44    2.72
  -6   6   4  130.35    4.72
  -6  -6   4  133.88    4.05
  -6  -6   4  134.26    3.70
   6  -6  -3   27.00    2.18
  -6  -6   3   32.56    1.95
  -6   6   3   29.16    2.20
  -6  -6   3   30.99    1.49
   6  -6  -2 1527.64   26.73
  -6  -6   2 1523.15   25.78
  -6   6   2 1555.21   26.70
  -6  -6   2 1470.24   23.84
   6  -6  -1    3.17    1.25
  -6  -6   1    3.34    0.99
  -6   6   1    4.55    1.20
  -6  -6   1    3.47    0.48
   6  -6   0    1.49    1.10
  -6   6   0    2.64    1.09
  -6  -6   0    3.20    1.03
   6  -6   1    5.28    1.39
  -6   6  -1    5.33    1.32
  -6  -6  -1    7.58    1.29
  -6   6  -2   77.84    3.64
  -6  -6  -2   75.54    3.55
   6  -6   2   77.16    3.72
  -6   6  -3  190.36    5.99
  -6  -6  -3  185.16    4.34
  -6  -6  -3  169.42    3.20
  -6  -6  -3  182.63    5.88
   6  -6   3  189.78    6.08
  -6   6  -4  123.35    4.85
  -6  -6  -4  120.94    2.77
  -6  -6  -4  133.22    5.01
   6  -6   4  132.77    5.13
  -6   6  -5   13.83    1.85
  -6  -6  -5   14.85    1.00
  -6  -6  -5   14.86    1.82
   6  -6   5   15.91    1.99
  -6   6  -6 1589.12   28.36
  -6  -6  -6 1548.15   25.33
  -6  -6  -6 1579.58   28.66
   6  -6   6 1537.82   28.65
  -6   6  -7   19.97    2.09
  -6  -6  -7   24.13    1.50
  -6  -6  -7   22.34    2.31
   6  -6   7   21.79    2.46
  -6   6  -8  644.29   14.48
  -6  -6  -8  666.66   12.54
  -6  -6  -8  662.83   15.00
   6  -6   8  632.99   14.87
  -6  -6  -9   22.46    1.71
  -6   6  -9   23.52    2.28
   6  -6   9   20.34    2.32
  -6  -6 -10    6.20    1.13
  -6   6 -10    6.13    1.49
   6  -6  10    6.18    1.67
  -6  -6 -11    9.24    1.44
   6   6  11    7.85    1.71
  -6   6 -11    9.29    1.73
   6  -6  11    9.62    1.88
  -6  -6 -12   41.61    2.73
   6   6  12   43.03    3.38
  -6   6 -12   42.60    3.18
   6  -6  12   38.84    3.18
  -6  -6 -13   18.94    2.09
   6  -6  13   12.57    1.94
  -6  -6 -14   62.95    3.75
   6  -6  14   62.60    3.98
  -6  -6 -15   17.81    2.32
   6  -6  15   16.45    2.38
   6  -6  16  186.15    7.19
   6  -6  16  192.14    8.56
   6  -6  17    1.72    1.74
   6  -6  18  118.89    7.16
   6  -6  19    2.73    1.96
  -6  -7  23   59.64    5.23
  -6  -7  22    2.33    1.88
   6  -7 -22    3.91    1.98
  -6  -7  21    1.17    1.78
   6  -7 -21    0.46    1.54
   6  -7 -21    3.59    1.99
  -6  -7  20    0.81    1.81
   6  -7 -20    1.97    1.45
   6  -7 -20    2.23    1.90
  -6  -7  19    5.85    2.04
   6  -7 -19    7.36    2.00
   6  -7 -19    3.74    2.11
  -6  -7  18    8.75    2.13
   6  -7 -18    7.75    1.96
   6  -7 -18    8.84    2.27
  -6  -7  17   66.25    4.33
   6  -7 -17   66.51    4.28
   6  -7 -17   64.77    4.96
  -6  -7  16   25.79    2.74
   6  -7 -16   29.78    3.02
   6  -7 -16   29.17    3.32
  -6  -7  15  185.77    6.81
   6  -7 -15  187.89    7.02
  -6  -7  14   12.20    1.81
   6  -7 -14   12.69    1.92
  -6  -7  13   71.82    3.70
   6  -7 -13   68.86    3.96
  -6  -7  12   17.36    1.89
   6  -7 -12   16.09    2.11
  -6  -7  12   14.83    1.99
  -6  -7  11  469.28   10.76
   6  -7 -11  486.80   11.82
  -6  -7  11  485.05   11.88
  -6  -7  10    1.35    0.81
  -6  -7  10    1.92    1.08
   6  -7 -10    1.96    1.20
  -6  -7   9   50.46    2.52
  -6  -7   9   49.72    2.99
   6  -7  -9   52.25    3.21
  -6  -7   9   51.27    1.77
  -6  -7   8   75.26    2.89
  -6  -7   8   76.18    3.48
   6  -7  -8   79.37    3.89
  -6  -7   8   72.79    2.42
  -6  -7   7  990.01   17.07
  -6  -7   7  977.81   18.33
  -6  -7   7  987.00   16.94
  -6   7   7  964.99   19.06
   6  -7  -7  996.52   19.27
  -6  -7   6    0.51    0.55
  -6  -7   6    1.24    0.72
  -6   7   6    2.99    1.15
  -6  -7   6    0.51    0.45
   6  -7  -6    0.43    1.22
  -6  -7   6    1.35    0.67
  -6  -7   5   31.83    1.39
   6  -7  -5   32.46    2.56
  -6   7   5   32.28    2.33
  -6  -7   5   31.48    1.86
   6  -7  -5   30.57    2.38
  -6  -7   5   32.28    1.48
  -6  -7   5   34.54    1.95
   6  -7  -4    1.06    1.10
   6  -7  -4    1.24    1.11
  -6  -7   4    2.07    0.75
  -6   7   4    2.07    1.09
  -6  -7   4    1.67    0.71
  -6  -7   4    1.92    0.46
   6  -7  -3  893.80   17.66
  -6   7   3  914.06   17.68
  -6  -7   3  881.87   15.36
   6  -7  -2   46.77    2.93
  -6   7   2   44.70    2.83
  -6  -7   2   44.68    1.72
  -6  -7   1    2.98    0.35
   6  -7  -1    3.92    1.38
  -6   7   1    5.30    1.36
  -6  -7   1    3.50    0.55
   6  -7   0   13.67    1.82
  -6  -7   0   14.07    0.77
  -6   7   0   16.75    1.93
  -6  -7   0   15.60    0.80
  -6  -7  -1   41.12    1.52
   6  -7   1   37.77    2.73
  -6   7  -1   40.16    2.68
  -6  -7  -2   17.60    1.12
   6  -7   2   18.80    2.06
  -6   7  -2   18.13    1.94
  -6  -7  -3   28.18    1.07
  -6  -7  -3   30.27    1.61
   6  -7   3   33.24    2.67
  -6  -7  -4   62.01    2.52
  -6  -7  -4   62.20    1.88
  -6   7  -4   68.94    3.58
   6  -7   4   67.51    3.61
  -6  -7  -5 1607.66   25.94
  -6  -7  -5 1595.44   27.24
  -6   7  -5 1684.50   29.43
   6  -7   5 1651.46   29.64
  -6  -7  -6   36.28    1.70
  -6  -7  -6   35.45    2.18
  -6   7  -6   35.59    2.68
   6  -7   6   37.59    2.92
  -6  -7  -7 1510.69   25.25
  -6  -7  -7 1506.64   26.58
  -6   7  -7 1550.67   28.10
   6  -7   7 1525.54   28.49
  -6  -7  -8   20.52    1.90
  -6  -7  -8   20.70    1.56
  -6   7  -8   20.17    2.08
   6  -7   8   21.28    2.50
  -6  -7  -9  127.06    4.23
  -6   7  -9  125.15    5.26
   6  -7   9  124.54    5.55
  -6  -7 -10    7.04    1.14
  -6   7 -10    6.22    1.30
   6  -7  10    6.85    1.76
  -6  -7 -11   61.52    3.13
  -6   7 -11   53.30    3.52
   6  -7  11   57.43    3.85
  -6  -7 -12    3.12    1.06
  -6   7 -12    1.81    1.26
   6  -7  12    4.81    1.64
  -6  -7 -13   81.33    4.06
   6  -7  13   80.05    4.60
  -6  -7 -14   55.56    3.51
   6  -7  14   53.19    3.74
  -6  -7 -15  169.38    6.52
   6  -7  15  152.22    6.45
  -6  -7 -16    1.52    1.39
   6  -7  16    2.78    1.46
   6  -7  17    3.90    1.54
   6  -7  17    3.87    2.08
   6  -7  18    4.70    2.33
   6  -7  19  235.26   10.50
  -6  -8  23   40.87    4.34
  -6  -8  22    1.31    1.77
   6  -8 -22    0.77    1.61
  -6  -8  21    1.47    1.86
   6  -8 -21    5.16    2.01
   6  -8 -21    4.77    2.54
  -6  -8  20    1.03    1.63
   6  -8 -20    4.86    1.82
   6  -8 -20   -0.83    1.86
  -6  -8  19   73.95    5.04
   6  -8 -19   83.60    5.18
   6  -8 -19   89.43    7.45
  -6  -8  18   45.42    3.79
   6  -8 -18   47.98    3.90
   6  -8 -18   50.25    4.53
  -6  -8  17   59.19    4.16
   6  -8 -17   67.06    4.52
   6  -8 -17   59.78    4.88
  -6  -8  16   45.29    3.48
   6  -8 -16   45.78    3.66
  -6  -8  15   18.99    2.27
   6  -8 -15   23.30    2.80
  -6  -8  14   26.55    2.58
   6  -8 -14   27.22    2.85
  -6  -8  13   95.16    4.42
   6  -8 -13   98.26    4.99
  -6  -8  12  107.77    4.52
   6  -8 -12  111.87    5.15
  -6  -8  11    2.76    1.01
  -6  -8  11    4.62    1.23
   6  -8 -11    5.00    1.55
  -6  -8  10   92.19    3.71
  -6  -8  10   90.31    4.31
   6  -8 -10   86.40    4.42
  -6  -8  10   87.72    2.32
  -6  -8   9   88.34    3.44
  -6  -8   9   86.32    4.00
   6  -8  -9   81.54    4.19
  -6  -8   9   87.55    2.63
  -6  -8   8    1.71    0.77
  -6  -8   8    3.52    1.06
   6  -8  -8    1.06    1.26
  -6  -8   8    2.34    0.66
  -6  -8   7    5.91    1.15
  -6  -8   7    7.28    0.98
  -6   8   7    5.19    1.18
  -6  -8   7    7.92    0.77
   6  -8  -7    8.13    1.67
  -6  -8   7    4.88    0.78
   6  -8  -6  235.38    7.27
  -6  -8   6  229.85    5.00
  -6   8   6  240.59    7.27
  -6  -8   6  234.34    5.28
  -6  -8   6  233.07    6.29
  -6  -8   5    6.06    0.84
  -6   8   5    4.08    1.20
   6  -8  -5    6.64    1.59
  -6  -8   5    7.00    1.06
   6  -8  -4   70.71    3.73
  -6   8   4   72.74    3.67
   6  -8  -4   69.26    3.64
  -6  -8   4   69.41    2.72
   6  -8  -3    9.63    1.77
  -6   8   3   14.26    1.80
  -6  -8   3   11.58    1.07
   6  -8  -2   16.83    2.06
  -6   8   2   20.65    2.13
  -6  -8   2   17.50    1.18
   6  -8  -1   31.31    2.61
  -6   8   1   32.19    2.50
  -6  -8   0  266.15    5.23
   6  -8   0  267.74    7.74
  -6   8   0  278.38    7.93
   6  -8   1    6.22    1.48
  -6  -8  -1    4.75    0.68
  -6   8  -1    3.91    1.32
  -6  -8  -2    0.57    0.56
   6  -8   2   -1.63    1.25
  -6   8  -2    1.22    1.11
   6  -8   3   24.09    2.38
  -6  -8  -3   20.65    1.39
  -6   8  -3   23.67    2.32
   6  -8   4    5.24    1.49
  -6  -8  -4    5.06    0.91
  -6   8  -4    7.39    1.58
  -6  -8  -5  158.21    3.89
  -6  -8  -5  155.77    4.71
   6  -8   5  161.99    5.97
  -6  -8  -6  495.30    9.56
  -6   8  -6  509.45   12.14
  -6  -8  -6  495.32   10.72
   6  -8   6  517.64   12.48
  -6  -8  -7  144.62    4.15
  -6  -8  -7  146.39    4.98
  -6   8  -7  146.74    5.68
   6  -8   7  160.48    6.16
  -6  -8  -8  226.99    5.82
  -6  -8  -8  221.17    6.68
  -6   8  -8  229.68    7.47
   6  -8   8  218.28    7.69
  -6  -8  -9    7.75    1.16
  -6  -8  -9    6.83    1.40
  -6   8  -9    9.32    1.69
   6  -8   9    7.42    1.86
  -6  -8 -10  249.35    7.68
  -6  -8 -10  253.52    6.80
  -6   8 -10  249.82    7.98
   6  -8  10  235.42    8.23
  -6  -8 -11    3.28    1.29
  -6  -8 -11    3.96    1.17
  -6   8 -11    4.85    1.31
   6  -8  11    2.53    1.40
  -6  -8 -12  242.90    7.20
   6  -8  12  230.43    8.18
  -6  -8 -13    0.22    1.01
   6  -8  13    0.52    1.34
  -6  -8 -14    2.50    1.12
   6  -8  14   -0.49    1.47
  -6  -8 -15   34.64    2.93
   6  -8  15   28.80    2.95
  -6  -8 -16   41.22    3.29
   6  -8  16   32.63    3.22
  -6  -8 -17    1.25    1.35
   6  -8  17    0.98    1.37
  -6  -8 -18   63.71    4.45
   6  -8  18   51.27    4.85
   6  -8  19   19.95    3.53
  -6  -9  23    8.01    2.53
  -6  -9  22    9.87    2.50
   6  -9 -22    2.68    2.03
  -6  -9  21    0.63    1.75
   6  -9 -21   -1.13    1.75
  -6  -9  20    1.41    1.59
   6  -9 -20    1.88    1.71
   6  -9 -20    0.93    1.84
  -6  -9  19   71.51    4.88
   6  -9 -19   73.44    4.98
   6  -9 -19   73.63    5.78
  -6  -9  18   -1.05    1.77
   6  -9 -18   -0.25    1.85
   6  -9 -18   -0.75    1.85
  -6  -9  17  104.68    5.49
   6  -9 -17  116.13    6.10
  -6  -9  16   20.71    2.55
   6  -9 -16   21.60    2.78
  -6  -9  15    2.23    1.39
   6  -9 -15   -0.07    1.52
  -6  -9  14    0.21    1.21
   6  -9 -14    3.04    1.76
  -6  -9  13  163.17    5.97
   6  -9 -13  161.12    6.62
  -6  -9  12   62.12    3.44
   6  -9 -12   59.03    3.95
  -6  -9  11   47.17    1.35
  -6  -9  11   51.25    2.97
  -6  -9  11   52.75    3.44
   6  -9 -11   50.11    3.59
  -6  -9  11   44.69    1.38
  -6  -9  10   77.73    3.45
  -6  -9  10   85.71    4.24
   6  -9 -10   79.95    4.42
  -6  -9  10   84.33    2.50
   6  -9  -9  106.83    5.02
  -6  -9   9  104.17    3.13
  -6  -9   9  102.79    4.50
  -6  -9   9   95.75    3.69
  -6  -9   8   25.07    1.57
   6  -9  -8   25.29    2.58
  -6  -9   8   25.38    2.16
  -6  -9   8   26.17    1.77
  -6  -9   7  295.21    6.02
   6  -9  -7  292.43    8.67
  -6  -9   7  287.29    6.60
  -6  -9   7  284.70    7.66
  -6   9   6   64.66    3.65
   6  -9  -6   61.98    3.68
  -6  -9   6   68.12    2.44
  -6  -9   6   63.05    3.02
  -6  -9   5  128.13    3.75
   6  -9  -5  123.35    5.22
  -6   9   5  143.21    5.56
  -6  -9   5  132.23    4.33
   6  -9  -4   18.39    2.21
  -6   9   4   15.93    1.87
   6  -9  -4   14.61    1.92
  -6  -9   4   14.31    1.35
  -6  -9   4   15.81    1.34
   6  -9  -3   26.78    2.52
  -6   9   3   26.58    2.38
  -6  -9   3   23.07    1.55
   6  -9  -2    7.03    1.51
  -6   9   2    6.90    1.54
   6  -9  -1  182.84    6.43
  -6   9   1  190.82    6.45
   6  -9   0   29.98    2.63
  -6   9   0   29.31    2.53
  -6  -9  -1  441.03    8.53
   6  -9   1  437.50   11.00
  -6   9  -1  466.48   11.33
   6  -9   2   81.93    4.13
  -6  -9  -2   84.11    2.82
  -6   9  -2   86.90    4.23
  -6  -9  -3   51.54    2.32
  -6   9  -3   58.24    3.53
   6  -9   3   50.36    3.33
   6  -9   4   10.06    1.78
  -6  -9  -4   10.40    1.21
  -6   9  -4   11.35    1.72
  -6  -9  -5   40.53    2.33
   6  -9   5   33.37    2.81
  -6   9  -5   42.69    3.18
  -6  -9  -6    3.75    0.84
  -6  -9  -6    3.21    1.02
   6  -9   6    5.24    1.59
  -6  -9  -7   44.15    2.16
  -6  -9  -7   41.67    2.61
   6  -9   7   43.55    3.51
  -6  -9  -8    2.39    0.87
  -6  -9  -8    2.79    1.03
   6  -9   8    2.30    1.49
  -6  -9  -9  258.93    6.72
  -6  -9  -9  258.59    7.72
   6  -9   9  258.29    8.71
  -6  -9 -10    0.07    0.80
  -6  -9 -10   -1.06    1.05
   6  -9  10    3.29    1.77
  -6  -9 -11  135.55    4.95
   6  -9  11  130.13    6.08
  -6  -9 -12   16.87    1.85
   6  -9  12   20.29    2.61
  -6  -9 -13  144.96    5.56
   6  -9  13  138.34    6.32
  -6  -9 -14  151.42    5.91
   6  -9  14  141.43    6.39
  -6  -9 -15    0.25    1.23
   6  -9  15   -1.13    1.50
  -6  -9 -16   19.26    2.36
   6  -9  16   14.93    2.23
  -6  -9 -17    6.63    1.97
   6  -9  17    5.25    1.82
   6  -9  18    3.72    1.41
  -6  -9 -18    7.45    1.99
   6  -9  18    6.59    2.41
  -6  -9 -19   42.37    3.82
  -6 -10  23   17.35    3.18
  -6 -10  22   11.71    2.75
   6 -10 -22    5.70    2.46
  -6 -10  21    4.42    1.94
   6 -10 -21    2.16    1.73
  -6 -10  20    3.03    1.62
   6 -10 -20    6.10    2.23
   6 -10 -20    3.60    2.13
  -6 -10  19   18.62    2.70
   6 -10 -19   21.74    3.20
   6 -10 -19   18.93    3.50
  -6 -10  18  274.67    9.71
   6 -10 -18  295.23   10.49
   6 -10 -18  286.27   11.17
  -6 -10  17    2.66    1.56
   6 -10 -17    3.12    1.74
  -6 -10  16   49.11    3.66
   6 -10 -16   49.95    4.06
  -6 -10  15    4.15    1.62
   6 -10 -15    1.49    1.69
   6 -10 -14    1.42    1.58
  -6 -10  14    2.56    1.45
   6 -10 -13   34.55    3.35
  -6 -10  13   29.43    2.65
  -6 -10  12  136.16    5.22
   6 -10 -12  136.89    6.25
  -6 -10  11   70.85    3.56
  -6 -10  11   72.08    2.16
   6 -10 -11   67.76    4.35
  -6 -10  11   73.93    2.22
   6 -10 -10  454.51   12.07
  -6 -10  10  441.71    8.63
  -6 -10  10  441.95   11.31
  -6 -10  10  434.10   10.09
  -6 -10   9    7.35    0.98
   6 -10  -9    7.04    1.79
  -6 -10   9    8.60    1.55
  -6 -10   9    5.53    1.06
   6 -10  -8  229.31    7.81
  -6 -10   8  216.60    6.80
   6 -10  -7   51.24    3.58
  -6 -10   7   51.79    2.17
  -6 -10   7   49.15    2.89
   6 -10  -6  191.05    6.93
  -6 -10   6  196.36    4.96
  -6 -10   6  191.84    5.85
  -6 -10   5    5.62    0.99
   6 -10  -5    2.21    1.35
  -6  10   5    7.24    1.58
  -6 -10   5    6.27    1.14
   6 -10  -4  160.98    6.14
  -6 -10   4  146.98    4.52
  -6  10   4  157.08    5.96
  -6 -10   4  154.64    4.72
   6 -10  -3   10.65    1.86
  -6  10   3   11.56    1.80
  -6 -10   3   11.16    1.35
   6 -10  -2  140.31    5.78
  -6  10   2  145.47    5.74
   6 -10  -1   12.03    1.87
  -6  10   1   11.82    1.82
   6 -10   0  803.20   17.42
  -6  10   0  836.50   17.63
  -6 -10  -1    2.75    0.65
   6 -10   1    2.21    1.40
  -6  10  -1    2.50    1.32
   6 -10   2  263.95    8.25
  -6 -10  -2  269.67    6.32
  -6  10  -2  288.87    8.57
  -6 -10  -3   15.67    1.37
   6 -10   3   13.74    1.93
  -6  10  -3   16.48    2.09
  -6 -10  -4  134.23    4.33
   6 -10   4  140.44    5.78
  -6 -10  -5   49.00    2.63
   6 -10   5   45.74    3.36
  -6 -10  -6    2.08    0.93
   6 -10   6    2.76    1.53
  -6 -10  -7    1.93    0.77
  -6 -10  -7    0.93    1.00
   6 -10   7    1.11    1.37
  -6 -10  -8  199.52    5.58
  -6 -10  -8  199.65    6.46
   6 -10   8  191.02    7.23
  -6 -10  -9   15.38    1.59
  -6 -10  -9   15.16    1.83
   6 -10   9   14.48    2.35
  -6 -10 -10  134.96    4.77
  -6 -10 -10  124.13    5.34
   6 -10  10  122.30    6.03
  -6 -10 -11   25.37    2.14
   6 -10  11   27.13    2.99
  -6 -10 -12  173.53    5.97
   6 -10  12  164.71    7.09
  -6 -10 -13    0.72    1.02
   6 -10  13    3.12    1.56
  -6 -10 -14  192.45    6.88
   6 -10  14  189.87    7.55
  -6 -10 -15   20.48    2.35
   6 -10  15   16.92    2.48
  -6 -10 -16   27.17    2.81
   6 -10  16   28.73    3.10
  -6 -10 -17   -0.02    1.60
   6 -10  17    1.34    1.48
  -6 -10 -18   44.60    3.78
  -6 -11  22    4.51    2.26
   6 -11 -22    1.86    1.77
  -6 -11  21   -1.69    2.06
   6 -11 -21    4.27    2.27
  -6 -11  20    3.13    1.75
   6 -11 -20    0.22    1.74
  -6 -11  19  123.05    6.55
   6 -11 -19  133.63    7.17
   6 -11 -19  136.49    7.83
  -6 -11  18    0.18    1.52
   6 -11 -18    0.37    1.70
  -6 -11  17  310.98   10.22
   6 -11 -17  323.35   11.19
  -6 -11  16    9.45    2.04
   6 -11 -16   13.30    2.62
   6 -11 -15   11.37    2.42
  -6 -11  15   13.10    2.04
   6 -11 -14   10.51    2.29
  -6 -11  14    7.85    1.75
  -6 -11  13  120.86    5.17
   6 -11 -13  128.02    6.29
  -6 -11  12    1.41    0.45
  -6 -11  12    0.64    1.11
   6 -11 -12    1.01    1.50
  -6 -11  12    1.15    0.44
  -6 -11  11    2.24    1.00
   6 -11 -11    3.83    1.88
  -6 -11  11    4.28    0.76
   6 -11 -10   20.00    2.69
  -6 -11  10   18.85    2.25
  -6 -11  10   22.14    1.99
   6 -11  -9  666.28   15.88
  -6 -11   9  643.95   14.66
   6 -11  -8   -3.11    1.67
  -6 -11   8    1.80    1.15
  -6 -11   7   27.55    1.73
   6 -11  -7   26.64    2.83
  -6 -11   7   23.11    2.09
  -6 -11   6   35.87    2.03
   6 -11  -6   34.47    3.05
  -6 -11   6   30.76    2.27
   6 -11  -5  153.41    6.20
  -6 -11   5  146.11    4.51
  -6 -11   5  142.76    4.91
   6 -11  -4   45.06    3.37
  -6 -11   4   44.59    2.41
  -6 -11   4   44.83    2.53
   6 -11  -3  266.35    8.61
   6 -11  -3  256.91    8.36
  -6 -11   3  266.53    7.02
   6 -11  -2   20.14    2.42
  -6 -11   2   19.37    1.88
   6 -11  -1  612.13   14.52
   6 -11   0    5.91    1.68
   6 -11   1  678.85   15.59
  -6 -11  -2   29.44    1.83
   6 -11   2   30.74    2.78
   6 -11   3  115.97    5.38
  -6 -11  -3  121.38    4.08
   6 -11   4   26.24    2.69
  -6 -11  -4   24.88    1.88
  -6 -11  -5  117.16    4.32
   6 -11   5  120.64    5.52
  -6 -11  -6    0.85    0.84
   6 -11   6    0.18    1.45
  -6 -11  -7   32.90    2.47
   6 -11   7   27.60    2.78
  -6 -11  -8   12.80    1.40
  -6 -11  -8   12.47    1.74
   6 -11   8   14.46    2.35
  -6 -11  -9  151.49    5.05
  -6 -11  -9  160.29    6.02
   6 -11   9  148.86    6.53
  -6 -11 -10   57.77    3.12
   6 -11  10   62.13    4.41
  -6 -11 -11   84.72    3.94
   6 -11  11   81.13    5.10
  -6 -11 -12    0.75    1.05
   6 -11  12    1.43    1.61
  -6 -11 -13  276.32    8.27
   6 -11  13  261.02    9.40
  -6 -11 -14   22.66    2.46
   6 -11  14   28.18    3.09
  -6 -11 -15  123.38    5.58
   6 -11  15  116.18    5.99
  -6 -11 -16    3.93    1.53
   6 -11  16    0.85    1.41
  -6 -11 -17   29.25    3.04
   6 -11  17   28.90    3.01
  -6 -12  21    1.27    1.91
   6 -12 -21    1.56    1.88
  -6 -12  20   12.01    2.47
   6 -12 -20    5.41    2.41
  -6 -12  19   -2.38    1.82
   6 -12 -19    2.01    1.84
  -6 -12  18  299.29   10.34
   6 -12 -18  298.74   11.14
  -6 -12  17   68.25    4.63
   6 -12 -17   75.32    5.31
  -6 -12  16  147.60    6.47
   6 -12 -16  151.20    7.43
  -6 -12  15   59.47    3.99
   6 -12 -15   63.36    4.83
   6 -12 -14   24.12    3.04
  -6 -12  14   24.64    2.52
   6 -12 -13   19.41    2.84
  -6 -12  13   15.54    2.13
  -6 -12  12   54.15    2.02
   6 -12 -12   54.53    4.23
  -6 -12  12   51.09    3.25
   6 -12 -11    6.37    1.77
  -6 -12  11    5.51    0.89
  -6 -12  11    2.96    1.07
   6 -12 -10   70.99    4.66
  -6 -12  10   67.02    3.38
   6 -12  -9   -1.11    1.64
  -6 -12   9    1.39    1.19
   6 -12  -8    8.12    1.98
  -6 -12   8    8.55    1.59
  -6 -12   7   32.40    2.02
   6 -12  -7   36.61    3.38
  -6 -12   7   28.97    2.44
   6 -12  -6    1.48    1.67
  -6 -12   6    0.66    0.84
  -6 -12   6    2.35    1.04
  -6 -12   5    6.97    1.18
   6 -12  -5    9.45    1.94
  -6 -12   5    4.91    1.09
  -6 -12   4  185.48    5.65
   6 -12  -4  187.37    7.19
   6 -12  -3   45.71    3.60
   6 -12  -3   43.18    3.40
  -6 -12   3   44.35    2.65
   6 -12  -2  252.59    8.61
  -6 -12   2  266.79    7.56
   6 -12  -1    7.72    1.97
  -6 -12   1    4.42    1.27
   6 -12   0  755.48   17.23
   6 -12   1    4.11    1.72
  -6 -12  -2   72.88    3.04
   6 -12   2   74.52    4.38
   6 -12   3   14.91    2.14
  -6 -12  -3   13.89    1.44
   6 -12   4  362.12   10.59
  -6 -12  -4  374.74    8.92
   6 -12   5    2.30    1.58
  -6 -12  -5    3.66    1.09
  -6 -12  -6   46.06    2.86
   6 -12   6   44.04    3.47
  -6 -12  -7   16.25    1.97
   6 -12   7   16.32    2.38
  -6 -12  -8   90.55    3.70
  -6 -12  -8   93.07    4.44
   6 -12   8   93.94    5.13
  -6 -12  -9   29.16    2.69
  -6 -12  -9   31.75    2.28
   6 -12   9   30.29    3.17
  -6 -12 -10   20.12    1.96
   6 -12  10   23.13    2.93
  -6 -12 -11    8.39    1.51
   6 -12  11    6.35    2.06
  -6 -12 -12  312.02    8.73
   6 -12  12  285.71   10.30
  -6 -12 -13    6.96    1.55
   6 -12  13    7.29    2.09
  -6 -12 -14  114.17    5.27
   6 -12  14  111.24    6.02
  -6 -12 -15    0.90    1.40
   6 -12  15    0.89    1.46
   6 -12  16   11.30    2.23
   6 -13 -20    0.86    2.00
  -6 -13  19   24.67    3.18
   6 -13 -19   25.85    3.62
  -6 -13  18   11.51    2.35
   6 -13 -18   12.99    2.71
  -6 -13  17   97.33    5.49
   6 -13 -17   92.19    6.17
   6 -13 -16   19.26    2.97
  -6 -13  16   14.89    2.25
   6 -13 -15    6.75    2.36
  -6 -13  15    2.24    1.33
   6 -13 -14    3.19    2.02
  -6 -13  14    4.25    1.40
   6 -13 -13   39.03    3.81
  -6 -13  13   33.33    2.78
   6 -13 -12   15.59    2.72
  -6 -13  12   15.85    2.00
   6 -13 -11    3.03    1.82
  -6 -13  11    0.15    1.01
   6 -13 -10    8.51    2.29
   6 -13  -9  230.21    8.75
   6 -13  -8   51.88    4.05
  -6 -13   8   49.92    3.33
  -6 -13   7   70.64    3.15
   6 -13  -7   64.32    4.44
  -6 -13   7   65.19    3.68
  -6 -13   6   40.33    2.45
   6 -13  -6   37.46    3.38
  -6 -13   6   32.40    2.55
  -6 -13   5    4.79    1.19
   6 -13  -5    1.58    1.57
  -6 -13   4   20.04    1.90
   6 -13  -4   16.86    2.47
   6 -13  -3   52.00    3.88
  -6 -13   3   48.37    2.92
   6 -13  -3   48.76    3.74
   6 -13  -2    4.84    1.90
  -6 -13   2    4.37    1.38
   6 -13  -1  224.68    8.16
  -6 -13   1  228.02    7.22
   6 -13   0    1.33    1.39
  -6 -13   0    0.53    1.14
   6 -13   1  245.16    8.52
   6 -13   2   13.61    2.10
  -6 -13  -3  107.92    4.12
   6 -13   3  102.60    5.33
   6 -13   4   60.26    4.08
  -6 -13  -4   61.80    3.18
   6 -13   5   32.23    3.16
  -6 -13  -5   28.60    2.26
   6 -13   6    4.71    1.74
  -6 -13  -6    2.81    1.14
   6 -13   7   25.01    2.76
  -6 -13  -7   31.11    2.59
  -6 -13  -8  124.09    5.34
   6 -13   8  114.07    5.83
  -6 -13  -9   71.19    3.48
   6 -13   9   69.89    4.60
  -6 -13 -10   21.42    2.05
   6 -13  10   20.40    2.76
  -6 -13 -11   24.00    2.29
   6 -13  11   23.07    3.03
  -6 -13 -12   25.52    2.42
   6 -13  12   20.35    2.87
  -6 -13 -13  238.79    7.70
   6 -13  13  202.84    8.59
   6 -13  14    3.34    1.76
   6 -13  15   19.15    2.74
   6 -14 -18   35.50    4.02
   6 -14 -17   29.42    3.79
  -6 -14  17   23.82    2.92
   6 -14 -16    0.15    1.79
  -6 -14  16    4.76    1.80
   6 -14 -15    3.33    2.07
  -6 -14  15    9.38    1.87
   6 -14 -14    1.86    2.05
  -6 -14  14   -0.85    1.41
   6 -14 -13   18.08    3.12
  -6 -14  13   15.43    2.13
   6 -14 -12  143.26    7.26
  -6 -14  12  135.89    5.57
   6 -14 -11   12.71    2.63
   6 -14 -10    3.55    1.88
   6 -14  -9   21.67    2.94
   6 -14  -8   14.91    2.45
  -6 -14   7  107.66    4.16
   6 -14  -7  106.63    5.77
  -6 -14   7   97.88    4.72
   6 -14  -6  230.83    8.77
  -6 -14   6  236.40    6.78
  -6 -14   6  227.19    7.31
   6 -14  -5   73.88    4.78
  -6 -14   5   74.41    3.61
  -6 -14   4    4.65    1.28
   6 -14  -4    1.42    1.67
   6 -14  -3    1.40    1.46
  -6 -14   3    1.89    1.24
   6 -14  -2   22.47    2.83
  -6 -14   2   19.52    2.08
   6 -14  -1   15.11    2.46
  -6 -14   1   13.13    1.88
   6 -14   0   76.73    4.81
  -6 -14   0   69.56    4.12
   6 -14   1    2.61    1.62
  -6 -14  -1    3.73    1.61
   6 -14   2    0.38    1.45
  -6 -14  -2    2.38    1.40
  -6 -14  -3   -0.08    0.84
   6 -14   3   -2.96    1.72
   6 -14   4    0.62    1.50
  -6 -14  -4    1.29    1.04
  -6 -14  -5   18.38    1.96
   6 -14   5   21.85    2.79
  -6 -14  -6   87.35    4.24
   6 -14   6   92.19    5.31
  -6 -14  -7   10.04    1.69
   6 -14   7   11.65    2.29
   6 -14   8    0.76    1.64
   6 -14   9    2.84    1.82
  -6 -14 -10    4.77    1.41
   6 -14  10    3.99    1.85
  -6 -14 -11   13.12    1.81
   6 -14  11   12.00    2.49
  -6 -14 -12   10.73    1.78
   6 -14  12    4.81    2.03
   6 -14  13    8.74    2.55
   6 -14  14   -1.33    1.72
   6 -14  15   24.55    3.08
   6 -15 -17   -0.73    2.06
   6 -15 -16   21.33    3.37
  -6 -15  15   66.37    4.33
   6 -15 -15   73.36    5.60
   6 -15 -14   14.78    2.89
  -6 -15  14   16.68    2.27
   6 -15 -13   52.74    4.67
  -6 -15  13   46.88    3.42
   6 -15 -12    4.28    2.00
  -6 -15  12    7.28    1.60
   6 -15 -11  138.12    7.25
   6 -15 -10   -2.85    1.94
   6 -15  -9    6.56    2.34
   6 -15  -8   18.90    3.01
   6 -15  -7  291.00   10.32
  -6 -15   7  279.19    7.74
   6 -15  -6   20.43    2.92
  -6 -15   6   19.05    1.97
  -6 -15   6   18.32    2.18
   6 -15  -5  177.62    7.77
  -6 -15   5  180.08    6.15
   6 -15  -4   97.42    5.61
  -6 -15   4  101.86    4.58
   6 -15  -3  162.26    7.30
  -6 -15   3  150.65    5.81
   6 -15  -2   24.38    2.98
  -6 -15   2   24.72    2.45
   6 -15  -1   67.37    4.60
  -6 -15   1   57.21    3.54
   6 -15   0    4.85    1.99
  -6 -15   0    3.42    1.55
   6 -15   1    1.17    1.54
  -6 -15  -1    7.07    1.99
   6 -15   2    0.27    1.51
  -6 -15  -2    0.46    1.41
  -6 -15  -3   -0.02    0.91
   6 -15   3    3.04    1.77
  -6 -15  -3   -0.77    1.51
   6 -15   4    1.33    1.47
  -6 -15  -4    3.15    1.77
  -6 -15  -4    2.75    1.58
   6 -15   5   55.03    4.20
  -6 -15  -5   52.18    3.27
  -6 -15  -6   17.30    2.21
   6 -15   6   20.89    3.00
   6 -15   7  269.89    9.65
   6 -15   8   59.24    4.42
   6 -15   9    0.40    1.50
  -6 -15 -10    3.96    1.23
   6 -15  10    2.46    1.58
   6 -15  11    0.79    2.72
   6 -15  12    2.42    1.80
   6 -15  13    6.00    2.33
   6 -15  14    5.78    2.24
   6 -16 -15   15.88    3.29
   6 -16 -14   54.56    4.88
   6 -16 -13   42.01    4.31
   6 -16 -12  100.70    6.43
   6 -16 -11   23.67    3.20
   6 -16 -10   71.50    5.32
   6 -16  -9    8.31    2.17
   6 -16  -8  129.09    7.06
  -6 -16   7   35.93    2.65
   6 -16  -7   32.25    3.62
  -6 -16   6  161.89    5.93
   6 -16  -6  164.69    7.74
   6 -16  -5    0.82    1.83
  -6 -16   5    7.65    1.66
  -6 -16   4   13.48    1.94
   6 -16  -4   13.14    2.42
   6 -16  -3    5.29    2.01
  -6 -16   3    6.04    1.42
   6 -16  -2  123.38    6.53
  -6 -16   2  120.19    5.50
   6 -16  -1    3.16    1.77
  -6 -16   1    2.29    1.45
   6 -16   0    1.63    1.66
  -6 -16   0    4.75    1.56
   6 -16   1    1.24    1.59
  -6 -16  -1    1.53    1.52
   6 -16   2   11.20    2.22
  -6 -16  -2   10.80    2.29
   6 -16   3   15.65    2.63
  -6 -16  -3   14.32    2.35
   6 -16   4   12.71    2.41
  -6 -16  -4    9.39    2.03
   6 -16   5    7.62    2.19
  -6 -16  -5    6.10    1.94
  -6 -16  -6  427.93   12.95
   6 -16   6  452.47   13.36
   6 -16   7   -0.60    1.79
   6 -16   8   70.85    4.96
   6 -16   9   -1.01    1.64
   6 -16  10    1.18    1.79
   6 -16  11    2.21    1.89
   6 -16  12    1.48    2.26
   6 -16  13   -0.89    2.16
   6 -17 -13    5.87    2.67
   6 -17 -12    4.30    2.29
   6 -17 -11  228.79    9.97
   6 -17 -10   -0.45    2.15
   6 -17  -9  100.62    6.33
   6 -17  -8    9.08    2.56
   6 -17  -7  223.96    9.47
   6 -17  -6    5.23    2.25
  -6 -17   6    0.24    1.28
   6 -17  -5   63.52    4.97
  -6 -17   5   59.43    3.72
   6 -17  -4    3.17    2.05
  -6 -17   4    2.75    1.60
   6 -17  -3  160.72    7.79
  -6 -17   3  157.10    6.41
   6 -17  -2   14.01    2.84
  -6 -17   2    9.57    1.99
   6 -17  -1   46.81    4.17
  -6 -17   1   52.34    3.82
   6 -17   0    5.41    2.04
  -6 -17   0    2.37    1.40
   6 -17   1   50.40    4.32
  -6 -17  -1   35.95    3.19
   6 -17   2    8.31    2.21
  -6 -17  -2   10.67    2.09
   6 -17   3    0.59    1.80
  -6 -17  -3    3.37    1.66
   6 -17   4   15.89    2.84
  -6 -17  -4   20.27    2.87
   6 -17   5  198.38    8.59
  -6 -17  -5  202.82    8.48
   6 -17   6    9.85    2.60
  -6 -17  -6   12.78    2.48
  -6 -17  -7  249.37    9.84
   6 -17   7  262.86   10.07
   6 -17   8    8.81    2.38
  -6 -17  -8    6.08    2.20
  -6 -17  -9    6.02    2.32
   6 -17   9    3.45    1.92
   6 -17  10    2.49    1.78
   6 -17  11   31.47    3.57
   6 -17  12    0.54    1.87
   6 -17  13    6.17    2.35
   6 -18 -11    5.51    2.27
   6 -18 -10   51.06    4.73
   6 -18  -9   30.68    3.90
   6 -18  -8  101.37    6.54
   6 -18  -7    5.41    2.46
  -6 -18   6  163.17    6.38
   6 -18  -6  166.03    8.16
   6 -18  -5    4.70    1.91
  -6 -18   5    4.98    1.45
   6 -18  -4    1.61    1.70
  -6 -18   4    2.03    1.55
   6 -18  -3    5.46    2.13
  -6 -18   3    2.15    1.53
   6 -18  -2   99.24    6.21
  -6 -18   2   96.65    5.23
   6 -18  -1   18.04    3.07
  -6 -18   1   12.15    2.25
   6 -18   0   -0.45    1.73
  -6 -18   0    0.44    1.55
   6 -18   1   26.96    3.39
  -6 -18  -1   26.59    3.20
   6 -18   2    7.78    2.31
  -6 -18  -2    7.59    2.02
   6 -18   3    3.31    1.92
  -6 -18  -3   -2.04    1.76
   6 -18   4    0.04    1.73
  -6 -18  -4    1.56    1.94
   6 -18   5    3.87    2.15
  -6 -18  -5   -0.19    1.86
  -6 -18  -6  253.35   10.21
   6 -18   6  255.65   10.12
   6 -18   7    1.03    1.89
  -6 -18  -7    5.65    2.16
  -6 -18  -8   54.51    5.26
   6 -18   8   57.14    4.70
  -6 -18  -9    2.66    1.92
   6 -18   9    0.86    1.83
   6 -18  10   -2.71    2.03
   6 -18  11    0.92    1.85
   6 -18  12    6.94    2.45
   6 -19  -8    2.25    2.11
   6 -19  -7   37.02    4.21
   6 -19  -6   -0.26    1.86
  -6 -19   5   39.36    3.33
   6 -19  -5   38.89    4.14
   6 -19  -4    6.31    2.38
  -6 -19   4    0.92    1.33
   6 -19  -3   31.23    3.84
  -6 -19   3   27.71    3.00
   6 -19  -2   18.78    3.21
  -6 -19   2   16.05    2.49
   6 -19  -1   14.08    2.84
  -6 -19   1   12.72    2.37
   6 -19   0   12.23    2.80
  -6 -19   0    9.04    2.27
   6 -19   1   24.04    3.35
  -6 -19  -1   22.66    3.00
   6 -19   2   18.04    3.13
  -6 -19  -2   19.07    2.90
   6 -19   3    0.23    1.70
  -6 -19  -3    0.44    1.64
   6 -19   4   17.05    3.06
  -6 -19  -4   13.55    2.60
   6 -19   5   34.86    3.94
  -6 -19  -5   31.51    3.61
   6 -19   6    9.22    2.66
  -6 -19  -6    9.00    2.62
  -6 -19  -7   91.46    6.14
   6 -19   7   94.39    6.21
   6 -19   8   -0.54    1.87
  -6 -19  -8    1.62    2.31
   6 -19   9   -3.12    2.12
   6 -19  10   17.11    3.12
   6 -19  11    8.83    2.55
  -6 -20   4    0.20    1.41
   6 -20  -3   10.39    2.74
  -6 -20   3   11.81    2.36
   6 -20  -2   -2.55    2.22
  -6 -20   2    3.51    2.02
   6 -20  -1   11.52    2.92
  -6 -20   1   13.74    2.41
   6 -20   0   45.04    4.41
  -6 -20   0   45.64    4.10
   6 -20   1   -0.66    1.81
  -6 -20  -1   -1.90    1.90
   6 -20   2   12.71    2.80
  -6 -20  -2   11.56    2.40
   6 -20   3   -1.52    1.98
  -6 -20  -3   -2.76    1.97
   6 -20   4    3.52    1.93
  -6 -20  -4    3.63    1.87
   6 -20   5    9.53    2.52
  -6 -20  -5    7.96    2.35
   6 -20   6   20.61    3.29
  -6 -20  -6   17.54    2.97
   6 -20   7    9.46    2.66
   6 -20   8    2.25    1.81
   6 -20   9   -0.27    1.76
   6 -20  10   -2.62    1.89
  -6 -21   3    8.31    2.35
  -6 -21   2    8.53    2.25
  -6 -21   1  108.31    6.21
  -6 -21   0    1.63    1.70
  -6 -21  -1   69.12    5.14
  -6 -21  -2   17.79    3.05
  -6 -21  -3    0.96    1.76
  -6 -21  -4    4.51    2.27
  -6 -22   2   35.89    3.85
  -6 -22   1    1.76    1.79
  -6 -22   0  115.24    6.70
  -6 -22  -1   -1.89    2.00
  -6 -22  -2   15.39    3.04
   7   0 -22   71.21    5.66
   7   0 -21    1.20    1.78
   7   0 -20   21.60    3.29
   7   0 -19   -0.23    1.66
   7   0 -18  424.76   13.36
   7   0 -18  440.61    9.45
   7   0 -17    3.59    1.85
   7   0 -17    5.22    1.12
   7   0 -17    5.23    0.74
   7   0 -16  233.18    8.89
   7   0 -16  246.84    6.02
   7   0 -16  247.06    5.31
   7   0 -15   11.13    2.12
   7   0 -15   12.11    1.28
   7   0 -15    9.15    0.98
   7   0 -14  307.14    9.28
   7   0 -14  311.18    9.82
   7   0 -14  313.69    6.84
   7   0 -14  322.19    6.63
   7   0 -13    4.46    1.08
   7   0 -13    6.62    1.57
   7   0 -13    4.18    0.84
   7   0 -13    6.83    0.96
   7   0 -12 2443.66   41.38
   7   0 -12 2395.78   42.05
   7   0 -12 2378.55   38.07
   7   0 -12 2414.02   38.33
   7   0 -11   42.95    3.07
   7   0 -11   45.65    2.95
   7   0 -11   42.94    2.05
   7   0 -10   52.92    3.27
   7   0 -10   53.17    3.00
   7   0 -10   53.23    2.31
   7   0  -9    1.42    1.03
   7   0  -9    1.67    0.96
   7   0  -9    3.15    0.93
   7   0  -8    8.25    1.21
  -7   0   8    8.33    0.86
   7   0  -8    9.28    1.16
   7   0  -7    2.99    0.89
  -7   0   7    2.51    0.61
   7   0  -7    2.20    0.89
  -7   0   6  343.73    7.59
  -7   0   6  347.52    7.06
   7   0  -6  350.74    7.98
  -7   0   5    0.22    0.75
  -7   0   5   -0.20    0.60
   7   0  -5    1.23    1.10
  -7   0   4  192.65    5.36
   7   0  -4  203.44    5.71
  -7   0   3    4.90    1.15
   7   0  -3    6.69    1.33
  -7   0   2  352.26    8.46
   7   0  -2  385.54    8.75
  -7   0   1   46.99    2.70
   7   0  -1   42.30    2.68
   7   0   0 2818.04   46.17
  -7   0   0 2805.42   46.18
  -7   0  -1   22.01    2.07
   7   0   1   18.67    1.95
   7   0   2 3443.45   57.00
  -7   0  -2 3600.83   57.49
   7   0   3   18.84    2.06
  -7   0  -3   23.61    2.32
   7   0   4  275.14    7.89
  -7   0  -4  306.09    8.54
  -7   0  -5    5.96    1.38
   7   0   5    7.88    1.71
   7   0   6  136.35    4.31
   7   0   6  130.58    5.29
  -7   0  -6  137.40    5.57
   7   0   7   -0.20    0.76
  -7   0  -7    1.13    1.14
   7   0   7   -0.38    1.31
   7   0   8    1.70    1.03
   7   0   8    2.79    1.42
  -7   0  -8    2.55    1.32
   7   0   9    1.92    0.90
   7   0   9    1.20    1.18
   7   0   9    2.55    1.44
  -7   0  -9    1.14    1.11
   7   0  10  894.60   18.76
   7   0  10  883.94   17.90
  -7   0 -10  934.44   19.83
   7   0  11    2.98    1.44
   7   0  11    2.97    1.27
   7   0  12    5.23    1.31
   7   0  12    6.57    1.81
   7   0  13   -0.02    1.10
   7   0  13   -1.49    1.51
   7   0  14  253.08    9.12
   7   0  15    0.26    1.60
   7   0  16    3.95    1.87
   7   0  17    3.41    2.23
   7   0  18  286.38   11.03
   7   0  19    7.18    2.48
   7   0  20   76.24    5.92
   7  -1 -22   14.95    3.07
   7   1 -22   15.35    3.01
   7   1 -21   23.92    3.48
   7  -1 -21   20.05    3.28
   7  -1 -20   -2.20    1.80
   7   1 -20   -1.01    1.80
   7  -1 -19   10.60    1.39
   7   1 -19   10.84    2.58
   7  -1 -19   17.31    2.95
   7  -1 -18   13.90    1.24
   7   1 -18   13.24    2.57
   7  -1 -18   12.59    2.59
   7  -1 -18   12.37    1.43
   7   1 -18   12.99    1.22
   7  -1 -17   83.51    5.38
   7   1 -17   87.35    5.45
   7   1 -17   89.44    2.95
   7  -1 -17   85.88    3.54
   7  -1 -17   86.57    2.99
   7  -1 -16   13.08    1.19
   7  -1 -16   12.54    2.26
   7   1 -16   13.89    2.54
   7  -1 -16   13.66    1.46
   7   1 -16   14.77    1.19
   7  -1 -15  114.57    3.52
   7  -1 -15  111.74    5.73
   7   1 -15  109.61    5.71
   7   1 -15  106.10    3.04
   7  -1 -15  114.82    3.87
   7   1 -15  104.23    2.37
   7  -1 -14   65.87    4.27
   7   1 -14   62.48    3.74
   7   1 -14   63.20    4.15
   7   1 -14   62.44    2.13
   7  -1 -14   64.55    2.77
   7  -1 -14   66.97    2.62
   7   1 -14   63.92    1.94
   7  -1 -13  414.29   10.76
   7   1 -13  393.13   10.34
   7   1 -13  395.22   11.03
   7  -1 -13  380.23   10.95
   7  -1 -13  391.00    8.42
   7   1 -13  397.34    7.49
   7  -1 -13  384.11    8.22
   7  -1 -12   13.44    1.71
   7  -1 -12   11.82    1.19
   7  -1 -12   12.50    1.92
   7   1 -12   13.68    1.71
   7   1 -12   12.72    1.86
   7  -1 -12   15.27    1.32
   7   1 -12   13.09    1.04
   7   1 -11  512.78   11.60
   7  -1 -11  506.72   11.82
   7   1 -11  509.72   12.29
   7  -1 -11  496.33   12.36
   7  -1 -11  493.12    9.83
   7   1 -11  500.98    9.55
   7  -1 -11  503.52   10.09
   7   1 -10   11.65    1.51
   7   1 -10   11.25    1.66
   7  -1 -10   13.43    1.81
   7  -1 -10   12.86    1.30
   7  -1 -10   10.27    1.47
   7   1 -10   12.24    1.16
   7   1  -9  151.00    5.39
   7  -1  -9  155.26    5.23
   7   1  -9  155.74    4.99
   7   1  -9  153.49    4.25
   7  -1  -9  152.92    4.46
   7   1  -8    2.56    0.86
   7  -1  -8    1.89    0.90
   7  -1  -8    1.37    0.82
   7   1  -8    1.80    0.95
  -7   1   8    1.92    0.69
   7   1  -8    2.30    0.93
   7   1  -7   38.77    2.07
  -7  -1   7   39.09    1.90
   7   1  -7   40.86    2.50
  -7  -1   7   38.10    1.54
  -7   1   7   36.77    1.82
   7  -1  -7   37.40    2.14
   7   1  -7   40.22    2.12
   7   1  -6   64.59    2.54
  -7  -1   6   59.09    2.49
   7   1  -6   61.18    2.85
  -7  -1   6   59.79    2.08
  -7   1   6   63.15    2.47
   7  -1  -6   62.43    2.80
   7   1  -6   60.85    2.68
  -7   1   5    8.11    1.18
  -7  -1   5    6.36    0.99
  -7   1   5    6.25    1.01
   7  -1  -5    6.17    1.25
   7   1  -5    5.34    1.03
  -7  -1   4    4.03    0.93
  -7   1   4    5.41    1.11
  -7   1   4    5.83    0.97
   7   1  -4    2.65    1.07
   7  -1  -4    2.67    0.98
  -7   1   3   34.07    2.19
  -7  -1   3   37.24    2.23
   7  -1  -3   36.94    2.42
   7   1  -3   35.31    2.22
  -7   1   2   28.09    2.08
  -7  -1   2   32.19    2.18
   7  -1  -2   30.11    2.28
   7   1  -2   32.07    2.20
   7  -1  -1 1208.56   21.75
  -7   1   1 1110.71   21.11
   7   1  -1 1163.54   21.14
  -7  -1   1 1223.76   21.53
   7   1   0   35.47    2.45
  -7  -1   0   43.14    2.67
   7  -1   0   41.36    2.75
  -7   1   0   34.59    2.34
  -7  -1  -1 2878.84   46.32
  -7   1  -1 2796.66   45.93
   7  -1   1 2835.55   46.04
   7   1   1 2616.59   45.50
   7   1   2   41.94    2.75
  -7  -1  -2   45.79    2.86
   7  -1   2   43.21    2.84
  -7   1  -2   48.55    2.92
   7   1   3  165.54    5.70
  -7  -1  -3  187.67    6.10
   7  -1   3  175.81    5.92
  -7   1  -3  189.35    6.07
  -7  -1  -4    2.52    1.33
   7   1   4    1.63    1.27
  -7   1  -4    2.89    1.32
   7  -1   4    1.74    1.28
   7   1   5  468.27    9.39
   7   1   5  454.72   11.16
   7  -1   5  469.15   11.31
  -7   1  -5  518.74   11.91
  -7  -1  -5  483.89   11.55
   7   1   6    5.86    0.96
   7   1   6    5.27    1.47
  -7   1  -6    6.82    1.51
  -7  -1  -6    6.43    1.48
   7  -1   6    6.27    1.54
   7   1   7  248.71    7.06
   7   1   7  249.08    6.37
   7  -1   7  253.71    6.82
   7   1   7  250.11    7.67
   7  -1   7  230.01    7.47
  -7   1  -7  268.41    8.16
  -7  -1  -7  267.72    8.04
   7   1   8   28.08    2.35
   7   1   8   24.16    1.88
   7  -1   8   24.89    2.03
  -7  -1  -8   24.76    2.38
   7  -1   8   21.92    2.28
  -7   1  -8   26.84    2.57
   7  -1   9  576.11   12.77
   7   1   9  564.25   12.30
   7   1   9  581.12   13.25
   7  -1   9  543.82   13.44
  -7   1  -9  619.50   14.42
  -7  -1  -9  613.58   14.16
   7   1  10  102.86    4.81
   7   1  10  102.32    4.29
   7  -1  10  112.82    4.70
   7  -1  10  104.55    4.95
  -7   1 -10  119.14    5.51
  -7  -1 -10  115.54    5.33
   7  -1  11    8.85    1.60
   7   1  11    6.03    1.28
   7   1  11    7.03    1.73
   7  -1  11    8.58    2.00
  -7   1 -11   10.11    2.03
   7   1  12   44.22    3.47
   7  -1  12   42.20    3.38
   7  -1  12   41.45    3.07
   7   1  12   42.58    2.98
   7   1  13  103.22    5.31
   7  -1  13   88.29    5.08
   7   1  13   87.78    4.52
   7   1  14   12.72    2.09
   7  -1  14   14.22    2.45
   7   1  15   14.93    2.38
   7  -1  15   15.90    2.49
   7   1  16    6.60    2.14
   7  -1  16    7.35    2.12
   7  -1  17  158.66    7.79
   7   1  17  169.43    8.06
   7   1  18    1.80    2.04
   7  -1  18    1.72    1.83
   7  -1  19  278.42   11.13
   7   1  19  255.87   10.66
   7   1  20   -0.52    1.94
   7  -1  20    2.85    2.06
   7  -2 -22   42.40    4.66
   7   2 -22   45.27    4.63
   7  -2 -21   30.68    3.89
   7   2 -21   31.84    3.88
   7   2 -20   -0.80    2.26
   7  -2 -20   -0.25    1.94
   7  -2 -19    5.70    1.27
   7  -2 -19    2.18    1.83
   7   2 -19    5.69    1.74
   7  -2 -18  211.76    5.68
   7  -2 -18  220.57    6.53
   7   2 -18  210.93    8.83
   7  -2 -18  203.93    8.85
   7  -2 -17    4.89    0.96
   7  -2 -17    6.42    1.18
   7   2 -17    4.85    0.67
   7   2 -17    1.73    1.57
   7  -2 -17    3.88    1.64
   7  -2 -16   19.42    1.64
   7  -2 -16   21.26    1.93
   7   2 -16   16.61    2.30
   7  -2 -16   19.28    2.67
   7  -2 -15   50.38    2.53
   7  -2 -15   54.24    2.86
   7   2 -15   55.29    4.03
   7  -2 -15   51.09    4.03
   7  -2 -14   25.37    1.81
   7  -2 -14   29.37    2.03
   7  -2 -14   23.19    2.75
   7   2 -14   27.63    2.82
   7  -2 -13   99.31    3.61
   7  -2 -13  106.09    4.96
   7  -2 -13  103.24    3.75
   7   2 -13  103.33    4.58
   7   2 -13  100.93    5.00
   7  -2 -13  105.71    5.28
   7  -2 -12  577.49   11.61
   7  -2 -12  595.77   13.70
   7  -2 -12  597.53   11.80
   7   2 -12  575.77    9.64
   7   2 -12  585.43   13.05
   7   2 -12  586.38   13.89
   7  -2 -12  606.06   14.33
   7  -2 -11   39.90    2.16
   7  -2 -11   50.21    3.13
   7   2 -11   47.31    2.83
   7   2 -11   46.28    3.09
   7  -2 -11   47.37    2.38
   7   2 -11   41.96    1.49
   7  -2 -10   29.37    1.89
   7  -2 -10   31.28    2.39
   7   2 -10   29.93    2.17
   7   2 -10   32.33    2.64
   7  -2 -10   31.68    1.93
   7   2 -10   26.40    1.31
   7  -2  -9    0.28    0.78
   7  -2  -9   -0.71    0.77
   7   2  -9    0.15    0.74
   7   2  -9    0.33    0.95
   7  -2  -9    0.56    0.76
   7   2  -9    3.00    0.78
   7   2  -8  167.99    4.75
  -7  -2   8  162.72    4.03
   7   2  -8  166.34    5.34
  -7   2   8  152.59    4.44
   7   2  -8  152.30    4.04
   7  -2  -8  161.05    4.77
   7  -2  -7   13.28    1.46
   7   2  -7   15.30    1.31
  -7  -2   7   15.00    1.20
   7   2  -7   12.97    1.49
  -7   2   7   12.65    1.16
  -7  -2   7   14.14    0.80
   7   2  -7   15.36    1.29
   7   2  -6  246.76    5.48
   7   2  -6  245.37    6.19
  -7  -2   6  227.97    4.75
  -7   2   6  238.08    5.83
  -7  -2   6  223.35    5.59
   7   2  -6  226.28    5.62
   7  -2  -6  236.29    6.14
   7  -2  -5    2.60    1.10
   7   2  -5    1.40    0.58
   7   2  -5    3.16    0.97
  -7   2   5    3.59    0.93
   7   2  -5    1.78    0.84
  -7  -2   5    0.57    0.75
   7   2  -4   83.96    2.44
  -7   2   4   86.84    3.47
   7   2  -4   88.22    2.99
  -7   2   4   84.01    3.23
   7   2  -4   76.33    3.11
   7  -2  -4   88.52    3.54
  -7  -2   4   86.60    3.31
  -7   2   3   61.94    2.96
   7  -2  -3   67.11    3.15
   7   2  -3   55.61    2.71
  -7  -2   3   62.71    2.91
  -7   2   2   92.36    3.69
   7   2  -2   87.89    3.54
  -7  -2   2   99.68    3.90
   7  -2  -2   91.84    3.82
  -7   2   1   53.01    2.85
   7   2  -1   49.12    2.66
  -7  -2   1   55.56    2.93
   7  -2  -1   53.02    3.01
   7   2   0  721.26   14.77
  -7   2   0  745.44   15.13
  -7  -2   0  768.88   15.14
   7  -2   0  796.89   15.64
   7   2   1   84.44    3.73
   7  -2   1   84.44    4.01
  -7   2  -1   83.43    3.75
  -7  -2  -1   88.37    3.80
   7   2   2  615.74   13.25
   7  -2   2  647.80   13.85
  -7   2  -2  619.12   13.44
  -7  -2  -2  667.13   13.71
   7   2   3   82.22    2.35
   7   2   3   87.39    3.93
  -7   2  -3   88.18    4.02
  -7  -2  -3   90.96    4.01
   7  -2   3   87.45    4.13
   7   2   4  134.60    3.51
   7   2   4  142.89    5.25
  -7   2  -4  150.74    5.42
  -7  -2  -4  150.54    5.36
   7  -2   4  149.80    5.50
   7   2   5   47.84    2.50
   7   2   5   46.44    1.99
  -7   2  -5   50.19    3.18
   7  -2   5   42.75    2.94
  -7  -2  -5   52.89    3.15
   7   2   6  382.73    8.14
   7   2   6  387.49    9.05
  -7  -2  -6  418.73   10.42
   7  -2   6  389.85   10.16
  -7   2  -6  413.52   10.43
   7   2   7   73.02    2.91
   7   2   7   74.77    3.48
  -7   2  -7   78.00    4.02
  -7  -2  -7   76.18    4.04
   7  -2   7   75.07    4.00
   7   2   8   22.99    2.19
   7   2   8   23.75    1.77
  -7  -2  -8   22.82    2.30
   7  -2   8   22.34    2.41
  -7   2  -8   22.76    2.33
   7   2   9    2.76    0.92
   7   2   9    2.81    1.32
   7  -2   9    3.83    1.14
  -7  -2  -9    2.53    1.17
   7  -2   9    3.53    1.37
  -7   2  -9    5.45    1.48
   7   2  10  385.57   10.24
   7  -2  10  383.22   10.02
   7   2  10  370.88    9.26
   7  -2  10  351.12   10.25
  -7  -2 -10  400.48   10.92
  -7   2 -10  408.89   11.01
   7  -2  11    6.53    1.41
   7   2  11    7.89    1.42
   7   2  11    5.66    1.38
   7  -2  11    6.81    1.68
  -7   2 -11    5.34    1.56
   7   2  12   64.67    4.15
   7  -2  12   54.45    3.73
   7  -2  12   60.30    4.09
   7  -2  12   58.64    3.71
   7   2  12   60.30    3.51
   7   2  13   22.49    2.66
   7  -2  13   24.99    2.85
   7   2  13   28.69    2.63
   7   2  14   82.97    4.99
   7  -2  14   82.82    5.08
   7   2  15  143.64    6.79
   7  -2  15  128.90    6.67
   7   2  16    4.91    1.99
   7  -2  16   -0.03    1.76
   7  -2  17  101.88    6.22
   7   2  17   91.61    5.80
   7  -2  18  163.51    8.14
   7   2  18  145.70    7.59
   7  -2  19   37.04    4.12
   7   2  19   30.37    3.62
   7   2  20   12.08    2.79
   7  -2  20   12.71    3.07
   7  -3 -22   32.63    4.05
   7   3 -22   27.88    3.85
   7   3 -21   64.97    5.28
   7  -3 -21   60.93    5.12
   7  -3 -20   21.72    2.22
   7  -3 -20   22.68    3.47
   7   3 -20   23.71    3.41
   7  -3 -19   91.51    3.77
   7  -3 -19  101.39    4.53
   7  -3 -19   97.89    6.18
   7   3 -19  101.67    6.27
   7  -3 -18   -0.36    0.77
   7  -3 -18   -0.38    1.06
   7  -3 -18   -1.00    1.76
   7   3 -18    1.58    1.59
   7  -3 -17  183.73    5.61
   7  -3 -17  194.48    6.27
   7  -3 -17  189.45    8.20
   7   3 -17  178.27    7.82
   7  -3 -16    9.93    1.31
   7  -3 -16   11.43    1.66
   7  -3 -16    6.34    1.97
   7   3 -16   10.54    2.14
   7  -3 -15   25.16    1.91
   7  -3 -15   31.38    2.38
   7  -3 -15   26.22    3.01
   7   3 -15   25.34    2.71
   7  -3 -14   26.80    1.96
   7  -3 -14   32.20    2.33
   7  -3 -14   26.39    2.83
   7   3 -14   28.60    2.78
   7  -3 -13   63.22    2.98
   7  -3 -13   66.83    3.17
   7  -3 -13   65.08    4.15
   7   3 -13   62.38    3.87
   7  -3 -12   59.34    3.63
   7  -3 -12   59.59    2.90
   7  -3 -12   63.24    3.04
   7   3 -12   65.20    3.79
   7  -3 -11   52.30    3.29
   7  -3 -11   56.58    2.80
   7  -3 -11   54.41    2.81
   7   3 -11   55.65    3.37
   7  -3 -10    0.46    0.95
   7  -3 -10    1.54    0.87
   7  -3 -10    0.92    0.91
   7   3 -10    0.46    0.98
   7  -3  -9   53.13    2.72
   7  -3  -9   56.44    2.71
   7   3  -9   52.25    2.58
   7   3  -9   56.03    3.11
   7  -3  -8   44.01    2.42
  -7  -3   8   43.90    1.79
   7   3  -8   44.80    2.23
   7   3  -8   44.96    2.67
  -7   3   8   43.67    2.31
   7  -3  -8   43.59    2.38
   7  -3  -7  319.90    7.68
   7   3  -7  327.60    7.77
   7   3  -7  314.38    6.83
  -7  -3   7  315.83    5.33
   7   3  -7  314.00    6.66
  -7   3   7  308.62    7.31
  -7  -3   7  300.22    6.66
   7  -3  -6   15.23    1.58
   7   3  -6   14.00    1.12
   7   3  -6   15.93    1.46
   7   3  -6   16.45    1.35
  -7   3   6   15.89    1.42
  -7  -3   6   15.49    1.33
   7   3  -5   51.79    1.86
   7   3  -5   54.44    2.41
   7   3  -5   52.42    2.39
  -7   3   5   56.32    2.67
  -7  -3   5   55.86    2.52
   7  -3  -5   55.89    2.82
   7  -3  -4   12.59    1.62
   7   3  -4    9.06    0.72
   7   3  -4    8.80    1.01
  -7   3   4    9.36    1.36
   7   3  -4    8.62    1.24
  -7  -3   4   10.33    1.37
   7   3  -3  233.04    4.31
  -7   3   3  255.57    6.68
   7   3  -3  243.31    5.20
  -7   3   3  253.26    6.47
   7   3  -3  243.10    6.18
  -7  -3   3  242.51    6.41
   7  -3  -3  247.39    6.65
  -7   3   2   11.52    1.48
   7   3  -2   10.15    0.83
   7   3  -2   11.58    1.46
  -7  -3   2   12.71    1.50
   7  -3  -2   12.36    1.61
  -7   3   1   71.16    3.32
   7   3  -1   68.36    1.75
   7   3  -1   70.28    3.15
  -7  -3   1   67.73    3.18
   7  -3  -1   72.89    3.45
  -7   3   0   98.70    4.06
   7   3   0   94.94    3.82
  -7  -3   0  103.77    4.02
   7  -3   0  101.50    4.21
   7   3   1   29.09    1.33
  -7   3  -1   29.61    2.31
  -7  -3  -1   34.37    2.32
   7  -3   1   32.90    2.54
   7   3   2    7.99    0.90
  -7   3  -2   11.28    1.75
  -7  -3  -2    9.30    1.47
   7  -3   2   11.20    1.86
   7   3   3  329.56    5.85
   7   3   3  336.24    7.03
   7  -3   3  340.86    9.15
  -7   3  -3  320.65    8.66
  -7  -3  -3  351.48    8.83
   7   3   4   -0.27    0.45
   7   3   4    1.09    0.76
  -7   3  -4    0.65    1.05
   7  -3   4    0.35    1.30
  -7  -3  -4    0.96    1.09
   7   3   5  584.51   10.68
   7   3   5  598.48   11.89
   7  -3   5  617.68   13.79
  -7  -3  -5  632.31   13.61
  -7   3  -5  585.52   13.40
   7   3   6    1.01    0.62
   7   3   6    0.66    0.90
  -7   3  -6   -0.90    1.16
   7  -3   6   -0.98    1.40
  -7  -3  -6    1.19    1.16
   7   3   7   49.35    2.30
   7   3   7   48.54    2.80
  -7  -3  -7   55.72    3.40
  -7   3  -7   47.02    3.17
   7  -3   7   53.93    3.48
   7   3   8   57.41    2.69
   7   3   8   63.61    3.36
  -7   3  -8   66.12    3.83
   7  -3   8   62.11    3.72
  -7  -3  -8   66.36    3.82
   7  -3   9    5.03    1.42
   7   3   9    4.83    1.00
   7   3   9    5.87    1.44
  -7   3  -9    4.90    1.35
   7  -3   9    2.86    1.34
  -7  -3  -9    5.68    1.59
   7  -3  10   43.97    3.14
   7   3  10   44.11    3.10
  -7   3 -10   45.31    3.25
   7  -3  10   36.82    3.42
   7   3  11  269.82    8.42
   7  -3  11  260.60    8.27
   7  -3  11  240.06    8.25
  -7   3 -11  271.75    8.74
   7   3  12   20.98    2.57
   7  -3  12   19.80    2.36
   7   3  13   25.15    2.77
   7  -3  13   24.45    2.70
   7  -3  13   21.28    2.87
   7   3  14   28.29    3.03
   7  -3  14   23.76    3.03
   7   3  15   67.99    4.66
   7  -3  15   62.02    4.72
   7   3  16   15.34    2.67
   7  -3  16   16.50    2.96
   7   3  17    4.92    1.88
   7  -3  17    1.09    1.78
   7   3  18   22.68    3.30
   7  -3  18   20.23    3.21
   7  -3  19   74.41    5.83
   7   3  19   73.77    5.57
   7   3  20    5.85    2.38
   7  -3  20    2.15    1.88
   7  -4 -22    4.15    2.24
   7  -4 -21   19.39    3.01
   7  -4 -20    4.59    1.44
   7  -4 -20    4.05    2.28
   7  -4 -19   24.90    2.05
   7  -4 -19   29.90    2.71
   7   4 -19   31.69    3.70
   7  -4 -19   24.85    3.33
   7  -4 -18  218.00    6.63
   7  -4 -18  230.13    7.39
   7  -4 -18  220.13    9.17
   7   4 -18  220.96    9.11
   7  -4 -17   10.44    1.43
   7  -4 -17   13.90    1.99
   7  -4 -17   14.02    2.71
   7   4 -17   12.26    2.46
   7  -4 -16  140.42    5.04
   7  -4 -16  145.92    5.52
   7   4 -16  149.05    6.92
   7  -4 -16  140.53    6.89
   7  -4 -15    5.70    1.31
   7  -4 -15    9.79    1.66
   7  -4 -15    7.13    2.02
   7   4 -15    6.59    1.79
   7  -4 -14  244.42    6.90
   7  -4 -14  251.48    7.26
   7   4 -14  233.38    8.27
   7  -4 -14  231.30    8.55
   7  -4 -13   28.11    2.20
   7  -4 -13   33.36    2.47
   7   4 -13   24.63    2.50
   7  -4 -12    6.27    1.47
   7  -4 -12    5.05    1.26
   7  -4 -12    5.08    1.35
   7   4 -12    7.71    1.53
   7  -4 -11   50.86    3.38
   7  -4 -11   47.87    2.74
   7  -4 -11   58.34    3.05
   7   4 -11   52.32    3.33
   7  -4 -10    6.41    1.19
   7  -4 -10    6.98    1.31
   7   4 -10    5.13    1.29
  -7  -4   9    7.07    0.69
   7  -4  -9    5.98    1.24
   7   4  -9    7.04    1.36
   7  -4  -9    8.36    1.43
   7  -4  -8  249.39    6.70
   7   4  -8  248.82    6.79
  -7   4   8  240.12    6.49
   7  -4  -8  250.87    6.60
  -7  -4   8  235.92    5.26
   7  -4  -7   85.00    3.59
   7   4  -7   88.52    3.51
  -7   4   7   81.36    3.39
  -7  -4   7   81.85    2.79
   7  -4  -6  843.56   16.12
   7   4  -6  842.74   15.46
  -7   4   6  827.45   15.90
  -7  -4   6  824.81   15.11
   7  -4  -5    3.03    1.18
   7   4  -5    2.48    0.80
  -7   4   5    3.27    1.03
  -7  -4   5    3.33    0.93
   7   4  -4   98.75    3.02
  -7   4   4   95.73    3.78
   7  -4  -4   99.67    3.96
  -7  -4   4   99.01    3.61
   7  -4  -3    1.67    1.14
   7   4  -3    0.98    0.60
  -7   4   3    0.18    0.96
  -7  -4   3    1.33    0.88
  -7   4   2   23.67    1.99
   7  -4  -2   24.78    2.19
  -7   4   2   21.26    1.91
  -7  -4   2   24.56    1.90
  -7   4   1   22.88    1.95
   7  -4  -1   21.30    2.11
  -7  -4   1   23.77    1.87
  -7   4   0   40.32    2.61
   7  -4   0   38.65    2.68
  -7  -4   0   38.91    2.44
   7   4   1   16.34    0.91
  -7   4  -1   16.44    1.82
   7  -4   1   16.23    1.93
  -7  -4  -1   17.13    1.82
  -7   4  -2  219.45    6.74
   7   4   2  217.72    4.79
  -7  -4  -2  231.74    6.78
   7  -4   2  232.88    7.03
   7   4   3   35.14    1.77
  -7   4  -3   34.88    2.54
   7  -4   3   35.60    2.80
  -7  -4  -3   38.69    2.65
   7   4   4   31.14    1.81
  -7   4  -4   29.75    2.42
   7  -4   4   32.58    2.84
  -7  -4  -4   31.47    2.48
   7   4   5    3.28    0.95
  -7   4  -5    2.20    1.02
  -7  -4  -5    5.72    1.41
   7  -4   5    4.57    1.62
   7   4   6  411.82    9.27
  -7  -4  -6  450.15   10.91
  -7   4  -6  379.03   10.38
   7  -4   6  412.34   10.76
   7   4   7    9.03    1.42
  -7   4  -7    4.71    1.30
   7  -4   7    7.76    1.75
  -7  -4  -7    7.22    1.43
   7   4   8  359.03    9.08
  -7   4  -8  341.77    9.79
  -7  -4  -8  384.08   10.25
   7  -4   8  356.07    9.96
   7   4   9  174.66    6.05
   7  -4   9  176.29    6.58
  -7   4  -9  170.82    6.50
   7  -4  10   48.00    3.35
   7   4  10   48.23    3.26
   7  -4  10   51.96    3.60
  -7   4 -10   46.91    3.37
  -7   4 -11    3.41    1.25
   7   4  11    0.49    1.29
   7  -4  11    1.32    1.31
   7   4  12  301.70    9.23
   7  -4  12  272.56    8.96
   7   4  13   30.64    2.96
   7  -4  13   28.60    2.89
   7   4  14   45.17    3.80
   7  -4  14   46.68    3.57
   7  -4  14   47.42    4.17
   7   4  15   23.98    2.84
   7  -4  15   23.64    3.03
   7   4  16  264.60    9.89
   7  -4  16  257.45   10.10
   7   4  17    5.23    2.31
   7  -4  17    4.46    2.06
   7   4  18    9.23    2.58
   7  -4  18    8.82    2.44
   7   4  19    7.66    2.59
   7  -4  19    5.92    2.43
   7   4  20   20.53    3.23
   7  -5 -21   90.97    4.92
   7  -5 -21   84.85    6.14
   7  -5 -20   19.37    2.49
   7  -5 -20   23.83    3.59
   7  -5 -19  271.95    8.60
   7  -5 -19  247.84   10.17
   7  -5 -18    2.43    1.31
   7  -5 -18    0.08    1.69
  -7  -5  17   10.78    2.05
   7  -5 -17   13.98    2.10
   7  -5 -17   17.67    2.87
  -7  -5  16    3.03    1.28
   7  -5 -16    5.22    1.61
   7  -5 -16    4.48    1.98
  -7  -5  15   68.29    4.00
   7  -5 -15   62.73    3.68
   7  -5 -15   60.87    4.48
   7   5 -15   65.45    4.39
  -7  -5  14    9.21    1.68
   7  -5 -14    8.40    1.53
   7   5 -14   11.46    1.96
  -7  -5  13   46.43    2.97
   7  -5 -13   46.86    3.08
   7   5 -13   44.10    3.32
  -7  -5  12   38.61    2.58
   7  -5 -12   40.06    2.71
   7  -5 -12   42.41    2.84
   7   5 -12   38.46    3.00
   7  -5 -11   20.95    2.01
   7  -5 -11   16.11    2.03
  -7  -5  11   18.45    1.76
   7  -5 -11   18.85    2.07
   7   5 -11   16.76    1.93
   7  -5 -10    0.50    1.04
  -7  -5  10    1.52    0.86
   7   5 -10   -0.10    0.98
   7  -5 -10    1.34    1.20
  -7  -5   9  103.34    3.56
   7  -5  -9  103.34    4.20
   7   5  -9   96.27    4.17
   7  -5  -9  110.71    4.31
  -7  -5   9  102.41    2.68
   7  -5  -8   39.37    2.59
   7   5  -8   38.37    2.46
  -7   5   8   35.05    2.38
   7  -5  -8   37.96    2.56
  -7  -5   8   35.39    1.65
   7  -5  -7  904.04   17.43
   7   5  -7  879.50   16.77
   7  -5  -7  906.35   17.25
  -7   5   7  890.52   17.24
  -7  -5   7  899.29   15.91
   7  -5  -6   30.48    2.29
  -7   5   6   27.45    2.11
  -7  -5   6   27.50    1.77
   7  -5  -5 1472.53   26.13
  -7   5   5 1479.71   26.03
  -7  -5   5 1459.12   25.00
   7  -5  -4   12.81    1.70
  -7   5   4   18.29    1.86
  -7  -5   4   14.82    1.41
   7  -5  -3   42.20    2.74
  -7   5   3   42.57    2.62
  -7  -5   3   43.41    2.40
  -7   5   2  102.91    4.17
  -7  -5   2  103.10    3.88
   7  -5  -2  106.16    4.29
   7  -5  -1   22.05    2.13
  -7   5   1   22.41    2.04
  -7   5   1   22.50    2.03
  -7  -5   1   23.43    1.98
  -7   5   0    3.35    1.15
   7  -5   0    2.02    1.21
  -7  -5   0    3.87    1.12
  -7   5  -1   85.44    3.94
  -7  -5  -1   86.89    3.86
   7  -5   1   84.69    3.97
  -7   5  -2   86.46    4.01
  -7  -5  -2   85.24    3.86
   7  -5   2   84.51    4.10
   7   5   3  793.10   14.01
  -7   5  -3  810.19   16.56
  -7  -5  -3  824.84   16.52
   7  -5   3  786.42   16.68
  -7   5  -4    5.18    1.41
   7   5   4    3.37    0.87
   7  -5   4    4.41    1.62
  -7  -5  -4    3.90    1.24
  -7   5  -5  132.46    5.29
   7   5   5  133.11    4.21
  -7  -5  -5  139.19    5.40
   7  -5   5  132.52    5.56
  -7   5  -6   30.58    2.55
   7   5   6   32.95    2.18
  -7  -5  -6   29.70    2.51
   7  -5   6   30.65    2.80
  -7   5  -7  723.31   16.32
   7   5   7  768.11   15.22
  -7  -5  -7  807.91   16.92
   7  -5   7  755.44   16.79
   7   5   8   29.41    2.30
  -7   5  -8   27.64    2.55
   7  -5   8   21.99    2.49
  -7  -5  -8   29.77    2.67
   7   5   9  348.24    9.16
  -7   5  -9  321.87    9.55
   7  -5   9  330.90    9.88
   7   5  10   31.66    2.66
  -7   5 -10   29.33    2.74
   7  -5  10   33.19    2.88
   7   5  11  355.02   10.03
   7  -5  11  343.37   10.21
   7   5  12   59.58    3.90
   7  -5  12   56.43    3.88
   7   5  13    3.42    1.51
   7  -5  13    3.38    1.52
   7   5  14    0.23    1.41
   7  -5  14    2.40    1.44
   7   5  15  241.44    9.04
   7  -5  15  236.68    8.51
   7  -5  15  249.14    9.67
   7   5  16   93.39    5.67
   7  -5  16   89.20    5.84
   7   5  17   66.55    4.99
   7  -5  17   58.23    5.01
   7   5  18    7.59    2.38
   7  -5  18    4.26    2.19
   7   5  19   20.80    3.25
   7  -5  19   21.13    3.67
   7  -6 -21   13.50    2.30
   7  -6 -21   13.99    3.27
  -7  -6  20  140.86    6.96
   7  -6 -20  156.83    6.62
   7  -6 -20  156.45    8.25
  -7  -6  19    4.66    1.82
   7  -6 -19    4.17    1.68
   7  -6 -19    4.41    2.01
  -7  -6  18  251.56    8.97
   7  -6 -18  264.47    8.71
   7  -6 -18  265.79   10.38
  -7  -6  17   -1.00    1.50
   7  -6 -17    2.51    1.51
   7  -6 -17   -0.96    1.71
  -7  -6  16  100.45    5.05
   7  -6 -16   96.83    4.83
   7  -6 -16   95.31    5.71
  -7  -6  15    1.59    1.25
   7  -6 -15    0.38    1.38
  -7  -6  14   47.74    3.26
   7  -6 -14   42.69    3.13
  -7  -6  13    4.79    1.37
   7  -6 -13    4.82    1.66
  -7  -6  12  287.86    7.80
   7  -6 -12  285.38    8.29
  -7  -6  11    2.30    0.99
   7  -6 -11    1.60    1.17
   7  -6 -10   16.24    1.93
  -7  -6  10   14.29    0.71
  -7  -6  10   14.12    1.53
  -7  -6  10   13.79    1.76
   7  -6 -10   14.97    1.93
   7  -6  -9   27.14    2.36
  -7  -6   9   29.06    1.88
  -7  -6   9   30.49    2.28
   7  -6  -9   30.66    2.46
  -7  -6   9   29.85    1.40
  -7  -6   8  465.16    9.24
   7  -6  -8  466.73   11.02
  -7  -6   8  467.89   10.43
  -7   6   8  455.91   10.75
   7  -6  -8  474.73   10.98
  -7  -6   8  460.30    9.13
  -7  -6   7   66.45    2.36
   7  -6  -7   70.14    3.57
  -7  -6   7   69.79    3.09
   7  -6  -7   71.21    3.57
  -7   6   7   77.52    3.78
  -7  -6   7   65.60    2.60
   7  -6  -6 2763.44   45.48
  -7  -6   6 2718.54   43.83
   7  -6  -6 2779.40   45.30
  -7   6   6 2617.83   44.78
  -7  -6   6 2730.76   43.57
   7  -6  -5   43.07    2.85
  -7  -6   5   40.09    2.02
  -7   6   5   43.89    2.72
  -7  -6   5   39.61    2.16
   7  -6  -4  473.34   10.98
  -7   6   4  468.54   10.85
  -7  -6   4  465.55    9.95
   7  -6  -3   27.20    2.36
  -7  -6   3   31.99    2.11
  -7   6   3   32.25    2.42
   7  -6  -2  346.86    8.93
  -7   6   2  342.26    8.82
  -7  -6   2  333.30    8.15
  -7  -6   1   34.93    2.30
  -7   6   1   34.76    2.47
   7  -6  -1   33.04    2.63
  -7  -6   0  243.33    6.92
  -7   6   0  241.70    7.20
   7  -6   0  246.18    7.29
  -7   6  -1   56.61    3.26
  -7  -6  -1   55.78    3.10
   7  -6   1   50.92    3.20
  -7   6  -2  162.72    5.77
  -7  -6  -2  164.14    5.69
   7  -6   2  163.67    5.86
  -7   6  -3   71.04    3.74
  -7  -6  -3   69.13    3.63
   7  -6   3   66.93    3.80
  -7   6  -4  129.17    5.17
  -7  -6  -4  138.24    5.63
   7  -6   4  128.45    5.33
  -7   6  -5    6.09    1.42
  -7  -6  -5    5.73    1.36
   7  -6   5    6.56    1.78
  -7   6  -6  483.37   11.92
  -7  -6  -6  499.63   12.22
   7  -6   6  471.95   12.37
  -7   6  -7    3.92    1.41
   7  -6   7    3.15    1.42
  -7  -6  -7    4.47    1.46
   7   6   8 1175.01   21.89
  -7   6  -8 1171.76   23.15
   7  -6   8 1155.55   23.50
   7   6   9   47.56    3.08
  -7   6  -9   41.39    3.17
   7  -6   9   46.78    3.59
  -7   6 -10  202.43    7.29
   7   6  10  201.20    6.89
   7  -6  10  207.49    7.51
   7   6  11   33.33    2.90
   7  -6  11   34.44    3.11
   7   6  12  180.86    6.94
   7  -6  12  161.32    6.76
   7   6  13   45.15    3.56
   7  -6  13   42.70    3.59
   7   6  14   10.99    2.24
   7  -6  14    9.83    1.95
   7   6  15   49.00    4.01
   7  -6  15   46.34    3.75
   7  -6  16  299.07    9.86
   7  -6  16  300.98   11.17
   7  -6  17   -0.78    1.77
   7  -6  18    0.89    2.04
   7  -6  19   16.81    3.32
  -7  -7  22   19.32    2.99
  -7  -7  21   19.51    2.94
   7  -7 -21   22.94    2.96
   7  -7 -21   22.33    3.73
  -7  -7  20   14.06    2.63
   7  -7 -20   11.75    2.21
   7  -7 -20   16.11    2.91
  -7  -7  19   75.35    4.88
   7  -7 -19   74.00    4.68
   7  -7 -19   73.44    5.46
  -7  -7  18   -1.39    1.62
   7  -7 -18    2.69    1.67
   7  -7 -18   -1.06    1.82
  -7  -7  17    6.14    1.78
   7  -7 -17    4.45    1.75
   7  -7 -17    2.18    1.74
  -7  -7  16    7.09    1.71
   7  -7 -16    6.69    1.77
  -7  -7  15  201.04    7.13
   7  -7 -15  210.41    7.49
  -7  -7  14   25.45    2.43
   7  -7 -14   28.74    2.81
  -7  -7  13   31.53    2.49
   7  -7 -13   29.77    2.74
  -7  -7  12   10.68    1.52
   7  -7 -12   10.17    1.80
  -7  -7  12   11.44    1.84
  -7  -7  11   59.38    2.99
  -7  -7  11   59.40    3.57
   7  -7 -11   64.34    3.74
  -7  -7  10    1.11    0.78
  -7  -7  10    1.37    1.06
   7  -7 -10    2.09    1.29
  -7  -7  10    1.46    0.43
   7  -7  -9   42.75    2.96
  -7  -7   9   44.70    2.27
  -7  -7   9   42.91    2.76
   7  -7  -9   45.00    3.07
  -7  -7   9   44.52    1.92
   7  -7  -8   31.22    2.59
  -7  -7   8   29.22    1.71
  -7  -7   8   31.49    2.25
   7  -7  -8   31.61    2.64
  -7   7   8   27.80    2.32
  -7  -7   8   31.45    1.71
  -7  -7   7  838.05   14.52
   7  -7  -7  859.48   17.42
  -7  -7   7  836.88   16.01
   7  -7  -7  841.12   17.15
  -7  -7   7  833.79   13.43
  -7   7   7  849.60   17.20
  -7  -7   7  838.05   15.16
  -7  -7   6   59.42    1.95
   7  -7  -6   59.87    3.40
  -7  -7   6   60.36    2.75
   7  -7  -6   57.13    3.31
  -7   7   6   54.25    3.14
  -7  -7   6   59.84    1.96
  -7  -7   6   59.27    2.62
  -7  -7   5  842.94   13.65
   7  -7  -5  857.37   17.34
  -7  -7   5  838.60   15.32
  -7   7   5  870.14   17.32
  -7  -7   5  848.28   15.77
   7  -7  -4    5.10    1.44
  -7  -7   4    3.16    0.70
  -7   7   4    1.73    1.03
  -7  -7   4    3.91    0.97
   7  -7  -3   49.48    3.08
  -7   7   3   50.87    3.08
  -7  -7   3   52.63    2.72
  -7  -7   3   45.83    1.84
   7  -7  -2   44.71    2.98
  -7  -7   2   42.41    1.55
  -7   7   2   44.03    2.88
  -7  -7   2   44.86    2.58
   7  -7  -1    3.45    1.43
  -7   7   1    3.66    1.28
  -7  -7   1    2.81    1.02
   7  -7   0    3.12    1.33
  -7  -7   0    1.57    0.95
  -7   7   0    2.44    1.15
  -7  -7  -1   81.51    3.87
  -7   7  -1   83.29    4.05
   7  -7   1   81.68    4.11
   7  -7   2   14.80    1.92
  -7   7  -2   17.01    1.95
  -7  -7  -2   15.83    1.90
  -7   7  -3  509.31   12.14
  -7  -7  -3  514.72   12.13
   7  -7   3  494.17   12.09
  -7   7  -4    0.68    1.05
  -7  -7  -4    0.05    1.03
   7  -7   4    0.44    1.36
  -7   7  -5  240.21    7.58
  -7  -7  -5  244.31    7.74
   7  -7   5  228.32    7.63
  -7  -7  -6    1.38    0.55
  -7   7  -6    1.51    1.06
   7  -7   6   -0.06    1.39
  -7  -7  -6    3.76    1.47
  -7  -7  -7  789.39   13.95
  -7   7  -7  774.96   17.00
   7  -7   7  782.53   17.76
  -7  -7  -8    6.64    1.01
  -7   7  -8    6.77    1.54
   7  -7   8    7.73    1.88
  -7  -7  -9   85.65    3.27
  -7   7  -9   79.23    4.38
   7  -7   9   83.22    4.71
  -7  -7 -10   11.66    1.44
   7  -7  10   10.78    2.01
  -7  -7 -11   55.19    2.94
   7  -7  11   50.31    3.73
  -7  -7 -12   50.77    3.02
   7  -7  12   44.80    3.59
   7  -7  13  130.45    6.19
   7  -7  14    3.59    1.57
   7  -7  15  135.84    6.37
   7  -7  16   12.41    2.26
   7  -7  17   38.65    3.46
   7  -7  17   42.23    4.39
   7  -7  18    2.92    1.92
  -7  -8  23    5.12    2.11
  -7  -8  22    6.61    2.48
  -7  -8  21    6.16    2.10
   7  -8 -21    8.10    2.26
  -7  -8  20    8.05    1.99
   7  -8 -20    9.42    2.32
   7  -8 -20   11.77    2.94
  -7  -8  19    9.08    2.24
   7  -8 -19   18.75    3.49
   7  -8 -19   18.04    3.11
  -7  -8  18  222.73    8.44
   7  -8 -18  220.91    8.41
   7  -8 -18  225.06    9.65
  -7  -8  17    2.92    1.41
   7  -8 -17    5.50    1.78
  -7  -8  16   12.72    2.09
   7  -8 -16   12.02    2.21
  -7  -8  15   15.67    2.07
   7  -8 -15   19.36    2.49
  -7  -8  14    9.13    1.66
   7  -8 -14   10.44    2.22
  -7  -8  13   78.32    3.88
   7  -8 -13   77.12    4.37
  -7  -8  12   52.91    2.99
   7  -8 -12   54.62    3.69
  -7  -8  11  100.81    4.02
  -7  -8  11  110.84    4.94
   7  -8 -11  106.30    5.03
  -7  -8  10  219.34    6.00
  -7  -8  10  210.11    6.89
   7  -8 -10  213.86    7.34
  -7  -8  10  218.11    4.78
  -7  -8   9    9.33    1.21
  -7  -8   9    8.20    1.38
   7  -8  -9    8.61    1.85
  -7  -8   9    8.18    0.91
   7  -8  -8   71.13    3.98
  -7  -8   8   75.03    2.79
  -7  -8   8   75.36    3.48
   7  -8  -8   76.17    4.07
  -7  -8   8   74.41    2.76
  -7  -8   7   50.21    2.04
   7  -8  -7   47.42    3.27
  -7   8   7   51.85    3.23
  -7  -8   7   48.72    2.32
   7  -8  -7   49.17    3.32
  -7  -8   7   51.18    1.67
  -7  -8   7   50.66    2.71
  -7  -8   6  369.51    6.93
   7  -8  -6  370.85    9.85
  -7  -8   6  364.09    8.13
   7  -8  -6  358.08    9.61
  -7   8   6  366.98    9.66
  -7  -8   6  334.87    6.78
  -7  -8   6  358.55    8.28
   7  -8  -5   31.22    2.62
  -7  -8   5   30.08    1.20
  -7  -8   5   31.09    1.88
  -7  -8   5   29.16    1.58
  -7   8   5   29.66    2.44
  -7  -8   5   31.88    2.05
  -7  -8   4   11.51    0.58
   7  -8  -4   16.31    2.05
  -7  -8   4   13.58    1.20
  -7   8   4   14.39    1.92
  -7  -8   4   13.69    1.53
   7  -8  -3   20.34    2.29
  -7  -8   3   21.33    1.85
  -7   8   3   22.39    2.18
  -7  -8   3   20.00    1.29
   7  -8  -2   34.69    2.70
  -7  -8   2   35.13    2.36
  -7   8   2   38.31    2.85
  -7  -8   2   33.92    1.50
   7  -8  -1   12.44    1.84
  -7   8   1   13.75    1.82
  -7  -8   1   10.81    0.74
   7  -8   0   83.76    4.15
  -7   8   0   82.16    4.10
  -7  -8   0   76.63    1.83
  -7  -8   0   74.87    1.83
   7  -8   1   -1.19    1.31
  -7   8  -1    2.74    1.33
  -7  -8  -1    0.65    0.43
   7  -8   2   30.57    2.63
  -7   8  -2   29.04    2.54
  -7  -8  -2   26.50    1.37
   7  -8   3    1.23    1.31
  -7  -8  -3    1.30    0.60
  -7   8  -3   -0.11    1.07
  -7  -8  -4  122.28    3.76
  -7  -8  -4  118.78    2.63
   7  -8   4  119.78    5.23
  -7  -8  -5   84.86    3.25
  -7  -8  -5   86.05    2.38
  -7   8  -5   93.68    4.55
   7  -8   5   91.75    4.70
  -7  -8  -6  309.42    7.64
  -7  -8  -6  315.82    6.38
  -7   8  -6  323.20    9.33
   7  -8   6  309.44    9.44
  -7  -8  -7   95.00    3.03
  -7   8  -7   97.76    4.78
   7  -8   7   93.98    4.95
  -7  -8  -8   89.01    3.12
   7  -8   8   80.51    4.76
  -7  -8  -9   28.18    1.88
   7  -8   9   26.15    2.81
  -7  -8 -10    9.25    1.26
   7  -8  10   13.18    2.32
  -7  -8 -11   21.70    1.92
   7  -8  11   20.46    2.79
  -7  -8 -12  163.57    5.60
   7  -8  12  151.65    6.74
  -7  -8 -13    4.86    1.38
   7  -8  13    3.78    1.70
  -7  -8 -14   14.21    1.94
   7  -8  14   10.26    2.04
   7  -8  15    6.42    1.95
   7  -8  16   82.17    5.07
   7  -8  17   19.05    2.56
   7  -8  18   29.63    3.16
   7  -8  18   33.51    4.12
  -7  -9  23   10.74    2.62
  -7  -9  22   16.73    2.93
   7  -9 -22   20.85    2.98
  -7  -9  21   13.67    2.60
   7  -9 -21   10.77    2.38
  -7  -9  20   27.43    3.28
   7  -9 -20   27.97    3.30
   7  -9 -20   25.72    3.67
  -7  -9  19   25.62    3.06
   7  -9 -19   23.99    3.08
   7  -9 -19   24.69    3.57
  -7  -9  18    4.72    1.76
   7  -9 -18    5.34    2.12
   7  -9 -18    1.02    1.79
  -7  -9  17   67.79    4.32
   7  -9 -17   70.53    4.69
  -7  -9  16   16.52    2.28
   7  -9 -16   17.97    2.64
  -7  -9  15    0.02    1.26
   7  -9 -15    0.98    1.55
  -7  -9  14    3.26    1.30
   7  -9 -14    6.58    1.84
  -7  -9  13  111.34    4.70
   7  -9 -13  114.80    5.63
  -7  -9  12    4.40    1.21
   7  -9 -12    4.57    1.68
  -7  -9  11    1.29    0.98
  -7  -9  11    3.64    1.33
   7  -9 -11    0.43    1.38
  -7  -9  11    2.25    0.50
  -7  -9  10   -0.07    0.86
  -7  -9  10    1.56    1.11
   7  -9 -10   -0.31    1.56
  -7  -9  10   -0.33    0.59
  -7  -9   9    6.40    1.10
  -7  -9   9    6.35    1.34
   7  -9  -9    6.77    1.78
  -7  -9   9    7.41    0.95
  -7  -9   8   11.13    1.53
  -7  -9   8    9.35    1.09
   7  -9  -8   11.87    2.02
  -7  -9   8   12.65    1.26
   7  -9  -7   -1.63    1.50
  -7  -9   7    1.61    0.64
  -7  -9   7    1.37    0.87
   7  -9  -7    2.49    1.47
  -7  -9   7    0.53    0.55
  -7   9   7    2.55    1.23
  -7  -9   7    1.49    0.69
  -7  -9   6   81.96    2.53
   7  -9  -6   81.94    4.36
  -7  -9   6   78.92    2.63
   7  -9  -6   77.15    4.18
  -7  -9   6   73.79    3.18
  -7   9   6   89.21    4.59
  -7  -9   6   76.32    3.30
  -7  -9   5   37.25    1.48
   7  -9  -5   37.38    3.01
  -7  -9   5   34.09    2.24
   7  -9  -5   37.55    3.01
  -7   9   5   39.15    2.95
  -7  -9   5   41.71    2.11
  -7  -9   5   37.62    2.14
   7  -9  -4    3.61    1.46
  -7   9   4    4.10    1.31
  -7  -9   4    3.63    0.83
  -7  -9   4    3.57    0.51
   7  -9  -3   26.05    2.55
  -7   9   3   27.20    2.50
  -7  -9   3   25.63    1.55
  -7  -9   2   20.85    0.80
   7  -9  -2   23.84    2.38
  -7   9   2   27.51    2.55
  -7  -9   2   20.54    1.31
  -7  -9   1   14.94    0.76
   7  -9  -1   17.35    2.18
  -7   9   1   17.82    2.15
  -7  -9   1   14.68    0.99
   7  -9   0   39.23    3.01
  -7  -9   0   40.03    1.44
  -7   9   0   44.14    3.13
  -7  -9   0   39.78    1.46
  -7  -9  -1  230.22    4.90
   7  -9   1  221.23    7.50
  -7   9  -1  241.13    7.71
   7  -9   2   20.91    2.28
  -7  -9  -2   22.27    1.34
  -7   9  -2   20.55    2.29
   7  -9   3   24.66    2.40
  -7  -9  -3   28.60    1.64
  -7  -9  -4    0.37    0.46
  -7  -9  -4    0.25    0.61
   7  -9   4   -0.52    1.28
  -7  -9  -5  205.18    4.51
  -7  -9  -5  207.87    5.69
   7  -9   5  213.83    7.49
  -7  -9  -6  153.94    3.90
  -7  -9  -6  151.63    4.92
   7  -9   6  144.81    6.21
  -7  -9  -7   38.72    2.52
  -7  -9  -7   38.98    1.90
   7  -9   7   31.73    3.00
  -7  -9  -8   20.80    1.51
  -7  -9  -8   18.99    1.87
   7  -9   8   22.56    2.82
  -7  -9  -9   59.64    3.40
  -7  -9  -9   63.69    2.83
   7  -9   9   62.17    4.36
  -7  -9 -10    1.79    1.06
   7  -9  10   -0.56    1.47
  -7  -9 -11   54.04    2.94
   7  -9  11   48.71    3.89
  -7  -9 -12    8.48    1.43
   7  -9  12   10.58    2.23
  -7  -9 -13   91.88    4.29
   7  -9  13   87.84    5.15
  -7  -9 -14   42.97    3.08
   7  -9  14   37.89    3.59
  -7  -9 -15    2.77    1.27
   7  -9  15    4.89    1.88
  -7  -9 -16   46.14    3.48
   7  -9  16   40.89    3.70
   7  -9  17   28.04    3.26
   7  -9  18   16.11    2.58
  -7 -10  22   12.26    2.39
   7 -10 -22   21.88    3.22
  -7 -10  21   11.86    2.58
   7 -10 -21    9.36    2.60
  -7 -10  20   12.55    2.45
   7 -10 -20   14.43    2.71
  -7 -10  19   10.60    2.59
   7 -10 -19   16.56    2.92
   7 -10 -19   14.96    3.09
  -7 -10  18   34.43    3.35
   7 -10 -18   28.91    3.22
  -7 -10  17    8.06    1.79
   7 -10 -17    3.79    1.69
  -7 -10  16    7.95    1.87
   7 -10 -16    8.02    2.18
  -7 -10  15   11.10    2.00
   7 -10 -15   11.26    2.28
  -7 -10  14   23.83    2.36
   7 -10 -14   28.66    3.13
  -7 -10  13   92.61    4.34
   7 -10 -13   87.92    5.07
  -7 -10  12  414.47   10.17
   7 -10 -12  412.98   11.87
  -7 -10  11    7.12    1.29
   7 -10 -11    7.68    1.98
  -7 -10  11    8.73    0.84
  -7 -10  10  397.95    9.21
  -7 -10  10  387.52   10.41
   7 -10 -10  388.62   11.23
  -7 -10  10  399.37    8.10
  -7 -10   9   55.02    2.67
  -7 -10   9   53.96    3.31
   7 -10  -9   56.66    3.88
  -7 -10   9   53.75    2.42
  -7 -10   8   12.86    1.28
  -7 -10   8   10.23    1.56
   7 -10  -8    9.87    2.02
  -7 -10   8   12.96    1.34
   7 -10  -7   -0.62    1.38
  -7 -10   7    0.98    0.76
  -7 -10   7    0.82    0.58
  -7 -10   7   -0.53    0.88
  -7 -10   7    0.76    0.64
   7 -10  -6   33.22    2.96
   7 -10  -6   30.62    2.88
  -7 -10   6   31.15    1.78
  -7 -10   6   29.70    1.56
  -7 -10   6   30.61    2.16
   7 -10  -5    7.49    1.87
  -7 -10   5    7.75    1.10
   7 -10  -5    6.59    1.78
  -7 -10   5    7.07    1.15
   7 -10  -4   17.98    2.24
  -7 -10   4   15.84    1.46
  -7 -10   4   15.83    1.42
  -7 -10   3   31.39    1.82
   7 -10  -3   33.11    2.92
  -7 -10   2   33.21    1.77
   7 -10  -2   33.94    2.99
  -7 -10   1   36.00    1.70
  -7 -10   1   37.11    1.44
   7 -10  -1   30.83    2.81
   7 -10   0  440.42   11.62
  -7 -10   0  446.51    8.24
  -7 -10  -1    4.88    0.74
   7 -10   1    8.05    1.93
  -7 -10  -2  400.49    8.12
   7 -10   2  393.37   10.90
  -7 -10  -3    6.81    0.95
   7 -10   3    6.41    1.71
  -7 -10  -4    3.69    0.96
   7 -10   4    3.83    1.45
  -7 -10  -5   19.43    1.67
  -7 -10  -5   21.70    1.29
   7 -10   5   19.42    2.37
  -7 -10  -6   31.46    1.67
  -7 -10  -6   28.46    2.11
   7 -10   6   31.18    2.98
  -7 -10  -7    1.95    0.90
  -7 -10  -7    1.30    0.72
   7 -10   7    3.34    1.77
  -7 -10  -8   72.29    2.93
  -7 -10  -8   69.01    3.59
   7 -10   8   73.20    4.62
  -7 -10  -9   12.06    1.36
  -7 -10  -9    9.99    1.55
   7 -10   9   14.22    2.55
  -7 -10 -10   58.04    3.61
  -7 -10 -10   58.56    2.97
   7 -10  10   56.51    4.43
  -7 -10 -11    6.56    1.18
   7 -10  11    5.96    1.81
  -7 -10 -12   20.32    1.98
   7 -10  12   15.62    2.48
  -7 -10 -13    1.46    1.00
   7 -10  13    3.02    1.72
  -7 -10 -14   55.18    3.46
   7 -10  14   42.49    3.83
  -7 -10 -15   13.87    2.02
   7 -10  15    9.03    2.04
  -7 -10 -16   42.51    3.40
   7 -10  16   39.86    3.60
   7 -10  17    5.32    1.83
   7 -11 -22    0.34    2.04
  -7 -11  21   23.66    3.14
   7 -11 -21   22.43    3.21
  -7 -11  20    3.90    1.99
   7 -11 -20    3.09    2.08
  -7 -11  19   19.51    2.79
   7 -11 -19   17.83    3.07
  -7 -11  18   -0.57    1.58
   7 -11 -18    0.48    1.79
  -7 -11  17   82.96    4.89
   7 -11 -17   72.69    5.20
  -7 -11  16    3.01    1.43
   7 -11 -16    0.38    1.83
  -7 -11  15   42.10    3.28
   7 -11 -15   46.32    4.03
  -7 -11  14   12.39    1.91
   7 -11 -14    9.22    2.26
  -7 -11  13  480.99   11.73
   7 -11 -13  483.66   13.59
  -7 -11  12    5.23    0.57
  -7 -11  12    5.97    1.32
   7 -11 -12    5.51    1.83
  -7 -11  11  120.23    4.60
   7 -11 -11  117.59    5.98
  -7 -11  11  119.36    3.46
  -7 -11  10    7.77    1.26
  -7 -11  10    4.93    1.29
   7 -11 -10    6.90    1.94
  -7 -11  10    5.41    0.91
  -7 -11   9   98.45    3.71
   7 -11  -9  103.17    5.39
  -7 -11   9   97.81    3.56
  -7 -11   9   91.94    4.45
   7 -11  -8   15.01    2.36
  -7 -11   8   16.99    1.58
  -7 -11   8   13.89    1.81
  -7 -11   8   13.99    1.34
   7 -11  -7    1.35    1.46
  -7 -11   7    4.35    0.84
  -7 -11   7    3.43    1.13
  -7 -11   7    4.96    0.90
   7 -11  -6    2.99    1.52
  -7 -11   6    4.39    1.03
   7 -11  -6    5.08    1.62
  -7 -11   6    3.10    1.05
   7 -11  -5   90.24    4.94
  -7 -11   5   91.34    3.44
   7 -11  -5   90.20    4.89
  -7 -11   5   85.02    3.58
   7 -11  -4    3.61    1.60
  -7 -11   4    4.91    1.16
  -7 -11   4    2.63    0.86
   7 -11  -3   22.30    2.53
  -7 -11   3   23.86    1.94
  -7 -11   3   21.43    1.60
  -7 -11   2    7.55    1.00
   7 -11  -2    7.67    1.82
   7 -11  -1  260.37    8.63
  -7 -11   0    3.86    0.70
   7 -11   0    4.73    1.67
  -7 -11  -1  845.15   14.92
   7 -11   1  845.67   18.59
  -7 -11  -2    4.62    0.86
   7 -11   2    4.99    1.71
  -7 -11  -3   44.09    2.30
   7 -11   3   42.23    3.41
  -7 -11  -4   10.25    1.24
   7 -11   4    9.78    1.95
  -7 -11  -5   54.57    2.85
   7 -11   5   55.31    3.87
  -7 -11  -6   11.25    1.18
  -7 -11  -6   11.93    1.55
   7 -11   6   14.72    2.30
  -7 -11  -7   44.85    2.22
  -7 -11  -7   46.24    2.87
   7 -11   7   50.22    3.96
  -7 -11  -8    6.95    1.38
  -7 -11  -8    7.92    1.08
   7 -11   8    3.84    1.79
  -7 -11  -9  335.45    8.07
  -7 -11  -9  330.80    9.32
   7 -11   9  328.14   10.71
  -7 -11 -10  102.05    4.03
   7 -11  10   97.71    5.67
  -7 -11 -11    0.58    0.89
   7 -11  11    0.16    1.56
  -7 -11 -12    4.21    1.25
   7 -11  12    1.07    1.72
  -7 -11 -13   47.50    3.14
   7 -11  13   45.93    4.06
  -7 -11 -14   11.94    1.85
   7 -11  14    4.56    1.79
   7 -11  15   86.34    5.38
   7 -11  16    6.44    1.94
   7 -11  17  120.09    6.37
   7 -12 -21    0.86    2.20
   7 -12 -20    2.25    2.14
  -7 -12  19    0.77    1.63
   7 -12 -19    0.41    2.20
  -7 -12  18  120.39    6.12
   7 -12 -18  119.10    6.90
  -7 -12  17   18.58    2.55
   7 -12 -17   19.40    3.11
  -7 -12  16   34.14    3.17
   7 -12 -16   36.14    3.89
  -7 -12  15   17.69    2.37
   7 -12 -15   18.02    3.10
  -7 -12  14  113.65    5.16
   7 -12 -14  107.07    6.14
   7 -12 -13   14.82    2.44
  -7 -12  13   22.40    2.37
  -7 -12  12  343.57    9.14
   7 -12 -12  341.28   11.17
  -7 -12  11    7.78    1.36
   7 -12 -11    6.69    2.02
  -7 -12  10    7.94    1.30
   7 -12 -10   11.03    2.42
  -7 -12  10   10.01    1.23
   7 -12  -9    2.00    1.66
  -7 -12   9    4.30    0.98
  -7 -12   9    1.96    1.24
  -7 -12   9    3.89    0.99
   7 -12  -8   89.75    5.11
  -7 -12   8   76.16    3.15
  -7 -12   8   72.27    3.88
   7 -12  -7   68.70    4.45
  -7 -12   7   70.06    2.89
  -7 -12   7   66.25    3.54
   7 -12  -6    0.39    1.46
  -7 -12   6    2.59    0.96
   7 -12  -6    2.07    1.84
  -7 -12   6    0.96    0.95
   7 -12  -5   25.86    2.87
  -7 -12   5   25.06    1.92
   7 -12  -5   26.72    2.93
  -7 -12   5   24.12    1.98
   7 -12  -4    2.03    1.67
  -7 -12   4    3.58    1.07
  -7 -12   4    5.31    1.08
   7 -12  -3   43.48    3.55
  -7 -12   3   48.03    2.95
  -7 -12   3   44.18    2.40
   7 -12  -2   12.59    2.20
  -7 -12   2   12.91    1.71
   7 -12  -1    4.25    1.70
   7 -12   0  715.90   16.87
   7 -12   1    6.00    1.83
  -7 -12  -1    6.08    0.94
   7 -12   2  400.89   11.52
  -7 -12  -2  405.50    8.71
   7 -12   3   45.74    3.64
  -7 -12  -3   47.72    2.45
   7 -12   4   18.40    2.53
  -7 -12  -4   17.00    1.65
   7 -12   5   23.58    2.79
  -7 -12  -5   25.56    2.07
  -7 -12  -6  528.63   11.90
   7 -12   6  525.26   14.00
  -7 -12  -7  102.17    3.62
  -7 -12  -7   96.73    4.35
   7 -12   7  101.83    5.51
  -7 -12  -8  109.24    3.94
  -7 -12  -8  110.61    4.84
   7 -12   8  116.32    5.97
  -7 -12  -9  134.01    4.56
  -7 -12  -9  126.79    5.43
   7 -12   9  128.55    6.40
  -7 -12 -10   98.13    4.03
   7 -12  10   91.45    5.59
  -7 -12 -11   16.37    1.77
   7 -12  11   13.49    2.66
  -7 -12 -12   26.95    2.36
   7 -12  12   23.22    3.12
   7 -12  13    3.82    1.95
   7 -12  14   62.53    4.74
   7 -12  15   -0.89    1.74
   7 -12  16   33.57    3.53
   7 -13 -20   21.36    3.55
   7 -13 -19   -2.35    2.08
   7 -13 -18   -3.68    2.21
   7 -13 -17   89.76    6.08
  -7 -13  16    2.64    1.49
   7 -13 -16    3.76    2.14
  -7 -13  15    5.14    1.41
   7 -13 -15   12.28    3.53
   7 -13 -14    0.50    1.83
  -7 -13  14    2.07    1.29
  -7 -13  13  165.35    6.13
   7 -13 -13  155.68    7.51
   7 -13 -12    0.75    1.74
  -7 -13  12    2.27    1.17
  -7 -13  11   69.40    3.58
   7 -13 -11   65.16    4.79
   7 -13 -10    0.51    1.68
  -7 -13  10    3.06    1.07
   7 -13  -9   30.87    3.40
  -7 -13   9   23.66    1.91
   7 -13  -8    0.20    1.86
  -7 -13   8    2.24    1.26
   7 -13  -7    0.74    1.62
  -7 -13   7    2.10    0.99
  -7 -13   7    0.75    1.10
   7 -13  -6    8.19    2.22
   7 -13  -6    8.92    2.08
  -7 -13   6    5.93    1.18
  -7 -13   6    5.90    1.31
   7 -13  -5    1.18    1.73
  -7 -13   5    1.36    0.92
   7 -13  -5   -0.31    1.51
  -7 -13   5    0.20    0.85
   7 -13  -4    4.03    1.64
  -7 -13   4    2.58    1.13
  -7 -13   4    0.81    0.79
   7 -13  -3   14.95    2.32
  -7 -13   3   13.32    1.79
   7 -13  -2    3.10    1.70
  -7 -13   2    2.25    1.18
   7 -13  -1  122.55    6.02
  -7 -13   1  124.09    5.10
   7 -13   0    7.01    2.06
  -7 -13  -1  502.22   10.26
   7 -13   1  484.89   13.34
  -7 -13  -2    7.66    1.08
   7 -13   2    9.30    2.00
  -7 -13  -3    7.55    1.18
   7 -13   3    4.02    1.50
  -7 -13  -4   65.27    3.15
   7 -13   4   59.14    4.22
  -7 -13  -5  156.06    5.39
   7 -13   5  156.19    6.97
   7 -13   6    5.11    1.69
  -7 -13  -6    5.19    1.30
  -7 -13  -7   20.50    2.14
  -7 -13  -7   19.23    1.68
   7 -13   7   17.54    2.70
  -7 -13  -8   17.28    1.60
  -7 -13  -8   15.78    2.06
   7 -13   8   15.41    2.63
  -7 -13  -9  114.90    4.30
   7 -13   9  104.86    5.87
  -7 -13 -10   25.47    2.14
   7 -13  10   22.92    3.07
  -7 -13 -11   11.16    1.70
   7 -13  11    8.77    2.25
   7 -13  12    5.13    2.20
   7 -13  13   63.19    4.84
   7 -13  14    4.80    1.99
   7 -13  15    4.77    1.94
   7 -14 -18   29.18    3.72
   7 -14 -17   19.72    3.24
   7 -14 -16    7.96    2.54
   7 -14 -15   13.97    2.89
   7 -14 -14    3.16    2.04
  -7 -14  14    4.59    1.64
   7 -14 -13    1.17    1.99
  -7 -14  13    5.90    1.56
  -7 -14  12  119.07    4.99
   7 -14 -12  111.79    6.43
   7 -14 -11   50.79    4.33
  -7 -14  11   50.43    3.06
   7 -14 -10    3.57    1.94
  -7 -14  10    3.04    1.07
   7 -14  -9    2.58    2.07
   7 -14  -8    6.43    2.03
  -7 -14   8   12.04    1.86
   7 -14  -7   13.18    2.42
  -7 -14   7   17.58    1.72
  -7 -14   7   13.44    1.94
   7 -14  -6  283.32    9.93
  -7 -14   6  273.88    7.43
  -7 -14   6  261.18    7.85
   7 -14  -5   12.24    2.44
  -7 -14   5   11.12    1.61
   7 -14  -5    9.87    2.36
  -7 -14   5   10.16    1.59
   7 -14  -4    1.93    1.70
  -7 -14   4    2.34    1.19
  -7 -14   4    1.76    1.01
   7 -14  -3    0.33    1.52
  -7 -14   3   -0.79    1.16
   7 -14  -2   24.05    3.00
  -7 -14   2   18.37    2.11
   7 -14  -1   30.00    3.23
  -7 -14   1   31.12    2.69
   7 -14   0   91.90    5.32
  -7 -14   0   78.75    4.28
  -7 -14  -1    9.17    1.26
   7 -14   1    9.46    2.22
  -7 -14  -2   29.13    2.09
   7 -14   2   24.36    2.95
  -7 -14  -3    3.27    0.96
   7 -14   3   -0.81    1.65
   7 -14   4    7.62    2.08
  -7 -14  -4    8.53    1.33
   7 -14   5    5.82    1.94
  -7 -14  -5    5.68    1.33
  -7 -14  -6  139.54    5.40
   7 -14   6  134.75    6.65
  -7 -14  -7    7.04    1.60
   7 -14   7    5.80    1.85
  -7 -14  -8   48.06    2.69
   7 -14   8   44.82    4.00
   7 -14   9   37.82    3.64
   7 -14  10    6.06    2.18
   7 -14  11    0.36    1.65
   7 -14  12   16.82    3.11
   7 -14  13    2.25    1.69
   7 -14  14   -0.07    1.76
   7 -14  15   26.02    3.16
   7 -15 -16    6.60    2.29
   7 -15 -15   34.54    3.99
   7 -15 -14   25.81    3.56
   7 -15 -13    0.44    2.07
   7 -15 -12   10.69    2.65
   7 -15 -11   14.96    2.85
  -7 -15  11   14.39    1.79
   7 -15 -10    6.16    2.19
  -7 -15  10    6.34    1.28
   7 -15  -9    1.95    1.81
   7 -15  -8   23.53    3.14
   7 -15  -7  141.00    7.13
  -7 -15   7  141.89    5.03
   7 -15  -6    7.61    2.10
   7 -15  -6    3.37    1.84
  -7 -15   6    5.52    1.38
  -7 -15   6    5.21    1.41
   7 -15  -5  360.44   11.83
   7 -15  -5  354.41   11.58
  -7 -15   5  354.59    9.30
  -7 -15   5  339.06    9.32
   7 -15  -4   21.73    3.02
  -7 -15   4   16.80    2.00
  -7 -15   4   16.43    1.84
   7 -15  -3   38.18    3.81
  -7 -15   3   36.46    2.91
   7 -15  -2    3.93    2.02
  -7 -15   2    1.29    1.13
   7 -15  -1   11.40    2.41
  -7 -15   1   10.48    1.92
   7 -15   0    5.06    1.89
  -7 -15   0    3.53    1.51
   7 -15   1   34.81    3.58
  -7 -15  -1   31.58    3.05
   7 -15   2    1.77    1.83
  -7 -15  -2   -0.13    1.45
   7 -15   3   41.63    3.77
   7 -15   4   11.86    2.45
   7 -15   5    4.35    1.99
   7 -15   6    0.67    1.55
   7 -15   7  177.37    7.91
   7 -15   8   43.70    4.08
   7 -15   9   10.03    2.40
   7 -15  10   10.72    2.29
   7 -15  11    8.25    2.48
   7 -15  12   11.01    2.72
   7 -15  13   28.32    3.70
   7 -15  14    4.12    2.18
   7 -16 -14   80.68    5.96
   7 -16 -13    4.44    2.30
   7 -16 -12   16.72    3.21
   7 -16 -11   14.44    2.81
   7 -16 -10    1.52    1.83
   7 -16  -9    5.77    2.25
   7 -16  -8   37.32    3.90
  -7 -16   7   40.36    2.79
   7 -16  -7   39.15    3.98
   7 -16  -6  363.31   12.28
   7 -16  -6  344.82   11.83
  -7 -16   6  346.06    9.29
   7 -16  -5    0.21    1.67
  -7 -16   5    2.53    1.22
   7 -16  -4  116.75    6.63
  -7 -16   4  106.17    4.96
   7 -16  -3    1.60    1.68
  -7 -16   3    2.07    1.39
   7 -16  -2   18.37    2.90
  -7 -16   2   19.47    2.33
   7 -16  -1   31.91    3.57
  -7 -16   1   24.80    2.49
   7 -16   0   13.70    2.55
  -7 -16   0   12.22    2.03
   7 -16   1    4.34    2.04
  -7 -16  -1    5.12    1.97
   7 -16   2  226.31    9.09
  -7 -16  -2  230.33    8.50
   7 -16   3   -0.36    1.73
  -7 -16  -3   -1.12    1.63
   7 -16   4   19.40    2.82
  -7 -16  -4   21.36    2.89
   7 -16   5   26.12    3.33
   7 -16   6  201.32    8.64
   7 -16   7    6.92    2.40
   7 -16   8   84.48    5.58
   7 -16   9    3.52    2.20
   7 -16  10   32.12    3.72
   7 -16  11    1.43    1.82
   7 -16  12   22.69    3.29
   7 -16  13    1.23    2.05
   7 -17 -12   -1.53    1.98
   7 -17 -11    6.69    2.28
   7 -17 -10   -0.57    1.99
   7 -17  -9   25.02    3.50
   7 -17  -8    1.63    1.85
   7 -17  -7  313.57   11.52
   7 -17  -6    4.17    1.99
   7 -17  -6    3.21    2.02
  -7 -17   6    3.26    1.24
   7 -17  -5  322.86   11.76
  -7 -17   5  318.02    9.30
   7 -17  -4   -1.77    1.97
  -7 -17   4    1.55    1.29
   7 -17  -3    4.71    1.84
  -7 -17   3    6.78    1.75
   7 -17  -2   -1.80    1.89
  -7 -17   2    3.93    1.66
   7 -17  -1    4.06    1.88
  -7 -17   1    2.13    1.48
   7 -17   0    3.85    2.07
  -7 -17   0    2.14    1.41
   7 -17   1   57.16    4.72
  -7 -17  -1   49.96    3.90
   7 -17   2    9.79    2.24
  -7 -17  -2   14.21    2.46
   7 -17   3  130.20    6.96
  -7 -17  -3  123.57    6.44
   7 -17   4   35.05    3.70
  -7 -17  -4   32.95    3.60
   7 -17   5   24.71    3.25
  -7 -17  -5   25.51    3.19
   7 -17   6    2.95    1.87
  -7 -17  -6    3.36    1.90
   7 -17   7  208.54    9.12
   7 -17   8    1.33    1.74
   7 -17   9  112.70    6.69
   7 -17  10    7.93    2.44
   7 -17  11   56.25    4.97
   7 -17  12    4.30    2.04
   7 -17  13   53.70    5.11
   7 -18 -10   -1.25    1.91
   7 -18  -9    3.12    1.87
   7 -18  -8   60.93    5.11
   7 -18  -7   16.79    3.15
   7 -18  -7   14.20    2.87
   7 -18  -6  281.87   11.25
   7 -18  -5    3.09    1.81
  -7 -18   5    0.30    1.27
   7 -18  -4   87.23    6.07
  -7 -18   4   86.65    4.74
   7 -18  -3    5.00    2.05
  -7 -18   3    4.77    1.60
   7 -18  -2   -2.52    2.21
  -7 -18   2   -1.83    1.59
   7 -18  -1    1.89    2.17
  -7 -18   1    2.80    1.69
   7 -18   0    4.18    1.92
  -7 -18   0    6.44    1.93
   7 -18   1   27.48    3.52
  -7 -18  -1   22.39    2.88
   7 -18   2   23.11    3.27
  -7 -18  -2   23.32    2.92
   7 -18   3   16.55    2.92
  -7 -18  -3   12.46    2.52
   7 -18   4    6.38    2.18
  -7 -18  -4   17.43    2.89
   7 -18   5    4.98    2.04
  -7 -18  -5    3.58    1.90
  -7 -18  -6  143.90    7.43
   7 -18   6  139.34    7.55
   7 -18   7    5.67    2.14
  -7 -18  -7    5.59    2.13
  -7 -18  -8   67.94    5.43
   7 -18   8   72.02    5.43
  -7 -18  -9    0.87    1.84
   7 -18   9   -3.11    2.00
   7 -18  10   46.79    4.55
   7 -18  11   11.72    2.72
   7 -18  12   91.67    6.50
   7 -19  -6    2.84    2.03
   7 -19  -5  131.30    7.60
   7 -19  -4    1.96    1.97
  -7 -19   4    1.87    1.50
   7 -19  -3   10.44    2.59
  -7 -19   3    8.13    1.93
   7 -19  -2   13.83    2.97
  -7 -19   2    8.03    2.02
   7 -19  -1    1.77    1.88
  -7 -19   1    0.78    1.58
   7 -19   0   12.59    2.84
  -7 -19   0    6.93    1.88
   7 -19   1   17.67    3.19
  -7 -19  -1   20.18    2.98
   7 -19   2   21.56    3.24
  -7 -19  -2   22.48    3.06
   7 -19   3   54.68    4.69
  -7 -19  -3   51.74    4.37
   7 -19   4    6.58    2.28
  -7 -19  -4    7.88    2.37
   7 -19   5    9.22    2.52
  -7 -19  -5    5.97    2.11
   7 -19   6    3.24    2.02
  -7 -19  -6    5.51    2.12
  -7 -19  -7   82.43    5.99
   7 -19   7   84.84    6.07
   7 -19   8   -0.69    1.74
   7 -19   9   10.31    2.65
   7 -19  10   31.34    3.99
   7 -19  11    6.85    2.47
  -7 -20   3    4.92    1.77
  -7 -20   2    9.46    2.28
  -7 -20   1   30.85    3.43
   7 -20   0   68.52    5.61
  -7 -20   0   71.93    4.96
   7 -20   1    8.40    2.56
  -7 -20  -1    9.25    2.54
   7 -20   2    6.80    2.52
  -7 -20  -2    5.57    2.15
   7 -20   3   19.84    3.32
  -7 -20  -3   13.34    2.89
   7 -20   4    6.41    2.41
  -7 -20  -4    5.76    1.97
   7 -20   5    4.72    2.24
  -7 -20  -5    3.95    2.07
   7 -20   6   27.80    3.87
   7 -20   7    0.80    1.91
   7 -20   8   -3.78    2.11
  -7 -21   2    4.23    1.97
  -7 -21   1   37.41    3.87
  -7 -21   0   -0.17    1.67
  -7 -21  -1   71.95    5.35
  -7 -21  -2   10.49    2.64
  -7 -21  -3    5.65    2.34
  -7 -22   0   97.79    6.35
  -7 -22  -1    5.80    2.32
   8   0 -22   10.29    2.60
   8   0 -21   -1.82    1.99
   8   0 -20   50.94    4.60
   8   0 -19    2.98    1.94
   8   0 -18  135.32    7.12
   8   0 -18  136.43    4.08
   8   0 -17   11.08    2.43
   8   0 -17   10.45    1.13
   8   0 -17   15.18    1.11
   8   0 -16    8.20    1.92
   8   0 -16    6.81    0.92
   8   0 -16   11.34    1.15
   8   0 -15    8.83    1.87
   8   0 -15   12.73    1.18
   8   0 -14   90.27    5.07
   8   0 -14   90.33    4.60
   8   0 -14   97.71    3.18
   8   0 -13   13.18    1.75
   8   0 -13   13.94    1.98
   8   0 -13   14.66    1.28
   8   0 -12 2564.48   45.89
   8   0 -12 2660.85   45.20
   8   0 -12 2695.16   42.69
   8   0 -11    8.57    1.70
   8   0 -11    4.95    1.25
   8   0 -11    7.44    1.09
   8   0 -10  393.18   10.26
   8   0 -10  379.51    9.43
   8   0 -10  383.37    8.51
   8   0  -9   10.55    1.67
   8   0  -9    9.30    1.35
   8   0  -9    8.68    1.33
   8   0  -8  265.83    6.86
  -8   0   8  256.25    5.73
   8   0  -8  265.77    6.71
  -8   0   7    4.20    0.93
   8   0  -7    5.47    1.05
  -8   0   7    4.86    0.78
   8   0  -7    5.66    1.22
  -8   0   6   74.69    3.09
  -8   0   6   72.40    2.72
   8   0  -6   79.22    3.45
  -8   0   5   17.32    1.60
  -8   0   5   16.27    1.40
   8   0  -5   19.50    1.89
  -8   0   4  478.71   10.61
   8   0  -4  515.59   11.04
  -8   0   3    0.78    0.89
   8   0  -3   -0.06    1.07
   8   0  -2  532.75   11.62
  -8   0   2  504.38   11.29
   8   0  -1    0.97    1.15
  -8   0   1    1.38    0.98
   8   0   0 2693.56   44.98
  -8   0   0 2706.25   45.09
   8   0   1    7.47    1.52
  -8   0  -1    8.72    1.54
  -8   0  -2 1701.82   29.92
   8   0   2 1593.79   29.34
  -8   0  -3   21.31    2.23
   8   0   3   17.04    2.11
   8   0   4  722.29   15.96
  -8   0  -4  801.30   16.72
   8   0   5   10.78    1.70
  -8   0  -5   16.04    2.21
   8   0   6 1714.93   29.50
   8   0   6 1658.51   31.59
  -8   0  -6 1939.92   33.08
   8   0   7    4.49    1.12
  -8   0  -7    7.49    1.85
   8   0   7    3.53    1.34
   8   0   8  280.76    7.46
   8   0   8  268.73    8.58
  -8   0  -8  311.77    9.61
   8   0   9    2.32    1.34
   8   0   9    0.63    1.42
   8   0   9    0.36    1.15
   8   0  10  314.31    9.28
   8   0  10  309.79    8.50
   8   0  11    2.81    1.64
   8   0  11    1.66    1.14
   8   0  12   14.45    2.41
   8   0  12   13.93    1.96
   8   0  13   -1.37    1.60
   8   0  13    0.80    1.18
   8   0  14   44.12    3.80
   8   0  15   -3.35    1.88
   8   0  16    4.22    1.84
   8   0  17    1.47    1.72
   8   0  18  344.13   12.46
   8   0  19    3.76    2.33
   8   0  20  248.42   10.89
   8  -1 -22    1.71    2.05
   8   1 -22    2.73    2.54
   8  -1 -21   32.05    3.87
   8   1 -21   35.91    4.04
   8  -1 -20   15.25    2.90
   8   1 -20   12.70    2.70
   8   1 -19   30.17    3.51
   8  -1 -19   32.21    3.65
   8  -1 -18   26.72    3.38
   8   1 -18   33.67    3.69
   8  -1 -18   30.86    2.03
   8   1 -17    4.52    1.99
   8  -1 -17    4.23    1.87
   8  -1 -17    0.05    0.77
   8  -1 -17    3.41    0.96
   8   1 -16   12.44    2.32
   8  -1 -16   12.56    2.47
   8  -1 -16   11.86    1.28
   8  -1 -16   14.24    1.44
   8   1 -15    9.53    2.08
   8  -1 -15    7.67    1.84
   8  -1 -15    7.22    1.05
   8  -1 -15    8.69    1.16
   8   1 -15    6.45    0.61
   8  -1 -14   10.47    2.08
   8   1 -14   10.98    1.73
   8   1 -14   10.35    1.97
   8  -1 -14    9.40    1.18
   8   1 -14   13.01    1.04
   8  -1 -14   12.08    1.30
   8   1 -13  184.01    7.07
   8  -1 -13  187.17    7.21
   8  -1 -13  195.53    6.87
   8   1 -13  182.44    6.47
   8  -1 -13  184.09    5.09
   8   1 -13  186.11    4.51
   8  -1 -12   15.18    2.10
   8   1 -12   20.88    2.15
   8   1 -12   20.84    2.40
   8  -1 -12   19.57    2.01
   8   1 -12   19.07    1.33
   8  -1 -12   18.74    1.49
   8   1 -11 1116.25   22.21
   8  -1 -11 1086.64   22.32
   8   1 -11 1120.79   21.24
   8  -1 -11 1134.10   21.67
   8   1 -11 1118.82   19.31
   8  -1 -11 1125.46   19.88
   8   1 -10   10.69    1.77
   8  -1 -10    9.80    1.50
   8   1 -10   11.39    1.54
   8  -1 -10   10.42    1.35
   8   1 -10   12.86    1.32
   8   1  -9   11.54    1.69
   8   1  -9   11.16    1.42
   8  -1  -9   11.09    1.53
   8   1  -9   12.10    1.31
   8  -1  -9    9.59    1.31
  -8  -1   8    6.85    1.02
   8   1  -8    5.81    1.09
   8   1  -8    5.91    1.27
  -8  -1   8    5.92    0.73
  -8   1   8    5.63    0.94
   8  -1  -8    5.00    1.11
   8   1  -8    6.25    1.12
   8   1  -7  101.63    3.54
  -8  -1   7  102.15    3.51
   8   1  -7  104.02    4.08
  -8   1   7  101.96    3.39
  -8  -1   7   96.00    2.89
   8   1  -7  102.09    3.70
   8  -1  -7  106.00    3.89
  -8  -1   6   56.34    2.66
   8   1  -6   60.23    2.50
  -8   1   6   57.80    2.80
  -8  -1   6   55.73    2.23
  -8   1   6   54.87    2.49
   8  -1  -6   58.97    2.95
   8   1  -6   58.73    2.85
  -8   1   5   94.53    3.65
  -8   1   5   92.63    3.38
   8  -1  -5   97.44    3.95
   8   1  -5   97.98    3.74
  -8  -1   5   87.73    3.51
  -8  -1   4   13.61    1.55
  -8   1   4   16.70    1.66
   8  -1  -4   15.71    1.84
   8   1  -4   15.27    1.68
  -8   1   3  906.93   17.84
   8  -1  -3  981.94   18.57
  -8  -1   3  944.82   17.89
   8   1  -3  954.93   17.89
  -8   1   2   13.81    1.71
  -8  -1   2   13.89    1.56
   8  -1  -2   12.58    1.70
   8   1  -2   11.90    1.65
   8  -1  -1  990.22   18.95
  -8  -1   1 1011.35   18.87
  -8   1   1  929.79   18.50
   8   1  -1  948.50   18.47
  -8  -1   0   10.90    1.63
  -8   1   0    8.48    1.31
   8  -1   0    7.69    1.58
   8   1   0    8.16    1.57
  -8   1  -1  138.57    5.21
   8   1   1  135.65    5.10
   8  -1   1  137.66    5.31
  -8  -1  -1  147.02    5.49
  -8   1  -2    3.26    1.26
   8   1   2    3.69    1.30
  -8  -1  -2    3.16    1.18
   8  -1   2    4.82    1.47
   8   1   3  265.05    8.01
  -8  -1  -3  310.95    8.79
   8  -1   3  305.60    8.52
  -8   1  -3  308.91    8.57
   8   1   4    3.22    1.35
  -8  -1  -4    3.30    1.28
  -8   1  -4    6.71    1.58
   8  -1   4    4.59    1.70
   8   1   5  811.55   15.08
   8   1   5  794.92   17.38
  -8  -1  -5  905.52   18.33
  -8   1  -5  913.25   18.29
   8  -1   5  840.03   17.75
   8   1   6   16.67    1.44
   8   1   6   17.89    2.13
  -8   1  -6   24.00    2.46
  -8  -1  -6   19.20    2.23
   8  -1   6   15.54    2.10
   8   1   7  334.61    8.77
   8   1   7  337.33    7.97
   8  -1   7  330.98    9.62
   8   1   7  338.32    9.66
  -8  -1  -7  367.99   10.24
  -8   1  -7  386.47   10.49
   8  -1   8    2.96    1.07
   8   1   8    2.77    0.87
   8   1   8    3.75    1.25
   8  -1   8    0.73    1.26
  -8  -1  -8    3.07    1.34
  -8   1  -8    3.29    1.18
   8  -1   9  227.11    6.87
   8   1   9  224.91    7.29
   8   1   9  222.57    6.50
   8  -1   9  210.37    7.61
  -8   1  -9  253.06    8.43
   8  -1  10    4.87    1.60
   8   1  10    6.22    1.68
   8   1  10    7.01    1.39
   8  -1  10    6.84    1.33
   8   1  11   74.33    4.29
   8  -1  11   62.81    4.08
   8   1  11   66.30    3.56
   8  -1  11   68.77    4.24
   8  -1  11   65.08    3.77
   8   1  12   70.82    4.42
   8  -1  12   75.92    4.60
   8  -1  12   75.79    4.19
   8   1  12   69.81    3.83
   8   1  13   62.07    4.18
   8  -1  13   63.42    4.36
   8   1  13   60.49    3.69
   8   1  14    3.72    1.89
   8  -1  14    1.59    1.54
   8   1  15    5.80    1.83
   8  -1  15    6.15    1.97
   8   1  16    0.09    1.78
   8  -1  16   -1.10    1.91
   8  -1  17  109.05    6.49
   8   1  17  102.31    6.31
   8   1  18    7.46    2.39
   8  -1  18    1.24    2.01
   8  -1  19  322.89   12.42
   8   1  19  330.80   12.36
   8   1  20   20.44    3.30
   8  -1  20   21.66    3.75
   8   2 -22    4.49    2.79
   8  -2 -22    1.15    2.52
   8  -2 -21   25.68    3.67
   8   2 -21   25.56    3.58
   8  -2 -20    0.87    1.82
   8   2 -20    2.68    2.18
   8  -2 -19    8.81    1.46
   8   2 -19    9.04    2.33
   8  -2 -19    9.17    2.42
   8  -2 -18   11.37    1.32
   8  -2 -18   12.25    1.54
   8   2 -18   10.66    2.28
   8  -2 -18    9.72    2.40
   8  -2 -17    2.55    0.88
   8   2 -17    0.89    1.79
   8  -2 -17    3.77    1.61
   8  -2 -17    4.12    1.15
   8  -2 -16   57.56    4.35
   8   2 -16   56.15    4.22
   8  -2 -16   60.00    2.99
   8  -2 -16   61.91    2.82
   8   2 -15   42.72    3.57
   8  -2 -15   46.13    3.81
   8  -2 -15   48.25    2.60
   8  -2 -15   46.06    2.44
   8   2 -14   39.97    3.00
   8   2 -14   41.15    3.36
   8  -2 -14   41.97    3.48
   8  -2 -14   45.49    2.47
   8  -2 -14   41.15    2.32
   8  -2 -13   27.84    2.57
   8  -2 -13   23.75    2.58
   8   2 -13   23.73    2.62
   8   2 -13   20.71    2.09
   8  -2 -13   28.17    1.94
   8   2 -13   24.67    1.06
   8  -2 -13   23.90    1.81
   8  -2 -12  648.73   14.44
   8   2 -12  621.64   13.59
   8   2 -12  624.04   14.54
   8  -2 -12  613.84   14.79
   8   2 -12  592.14   10.73
   8  -2 -12  622.53   12.24
   8  -2 -12  628.61   12.48
   8   2 -11   96.81    4.67
   8   2 -11  104.37    4.28
   8  -2 -11  104.38    4.59
   8  -2 -11  105.14    3.91
   8   2 -11   90.15    2.84
   8   2 -10    7.74    1.31
   8   2 -10    5.98    1.38
   8  -2 -10    8.84    1.38
   8  -2 -10    4.92    1.09
   8   2 -10    6.61    0.95
   8   2  -9   34.03    2.17
   8   2  -9   34.14    2.54
  -8   2   9   30.95    1.86
   8   2  -9   33.94    1.85
   8  -2  -9   32.23    2.16
  -8  -2   8    1.69    0.70
   8  -2  -8    1.49    0.99
   8   2  -8    1.22    0.84
   8   2  -8   -0.26    0.89
  -8   2   8    0.78    0.66
  -8  -2   8    0.86    0.42
   8   2  -8    0.43    0.74
  -8  -2   7    7.62    1.06
   8   2  -7    8.85    1.10
   8   2  -7    9.82    1.41
  -8   2   7    7.05    1.08
  -8  -2   7    8.83    0.82
   8   2  -7    8.82    1.23
   8  -2  -7    7.49    1.36
   8   2  -6  330.69    6.90
   8   2  -6  329.67    7.76
  -8  -2   6  317.08    6.52
  -8   2   6  327.59    7.60
   8  -2  -6  342.08    8.15
   8   2  -6  311.68    7.47
  -8  -2   6  302.66    7.42
  -8   2   5    2.19    1.00
   8   2  -5    2.47    0.68
   8   2  -5    2.98    0.90
  -8   2   5    1.55    0.83
  -8  -2   5    1.90    0.83
   8   2  -5    3.35    1.05
   8  -2  -5    2.71    1.15
  -8   2   4  301.36    7.72
   8   2  -4  298.03    6.71
  -8   2   4  296.49    7.33
  -8  -2   4  301.20    7.55
   8  -2  -4  314.27    7.90
   8   2  -4  284.05    7.33
  -8   2   3   11.21    1.51
   8  -2  -3   11.48    1.69
   8   2  -3    8.08    1.34
  -8  -2   3   11.39    1.43
  -8   2   2  540.89   11.90
   8   2  -2  504.05   11.45
  -8  -2   2  564.26   12.06
   8  -2  -2  566.04   12.27
  -8   2   1    3.08    1.15
   8   2  -1    2.91    1.21
  -8  -2   1    2.07    1.06
   8  -2  -1    4.49    1.50
   8   2   0  723.87   15.35
  -8   2   0  749.79   15.80
  -8  -2   0  802.25   16.11
   8  -2   0  808.82   16.37
  -8   2  -1    7.01    1.39
  -8  -2  -1    5.85    1.33
   8  -2   1    6.57    1.73
   8   2   1    5.72    1.49
  -8   2  -2   17.66    1.87
   8  -2   2   20.86    2.31
  -8  -2  -2   20.65    2.08
   8   2   2   17.25    2.05
   8   2   3   30.93    2.70
  -8   2  -3   36.49    2.74
   8  -2   3   39.09    3.00
  -8  -2  -3   42.13    2.89
   8   2   4    9.74    0.91
   8   2   4    9.01    1.78
   8  -2   4    8.76    1.70
  -8   2  -4    9.95    1.74
  -8  -2  -4   10.14    1.76
   8   2   5   74.76    3.21
   8   2   5   69.78    2.55
   8   2   5   71.97    3.92
  -8   2  -5   85.83    4.32
   8  -2   5   76.83    4.16
  -8  -2  -5   78.84    4.13
   8   2   6  704.21   14.38
   8   2   6  682.87   13.17
  -8   2  -6  781.14   16.55
   8  -2   6  729.34   16.05
  -8  -2  -6  790.49   16.59
   8   2   7   21.43    1.60
   8   2   7   21.40    2.00
  -8   2  -7   22.49    2.42
  -8  -2  -7   24.36    2.54
   8  -2   7   24.25    2.61
   8   2   8   28.32    1.96
   8   2   8   27.92    2.37
  -8  -2  -8   33.04    2.95
   8  -2   8   31.52    2.90
  -8   2  -8   33.44    2.95
   8  -2   9   30.24    2.45
   8   2   9   30.37    2.51
   8   2   9   29.05    2.11
   8  -2   9   34.21    3.00
  -8   2  -9   39.08    3.19
   8   2  10  239.52    7.70
   8  -2  10  231.90    7.43
   8   2  10  227.54    6.71
   8  -2  10  221.94    7.93
   8   2  11   21.54    2.11
   8  -2  11   20.22    2.22
   8   2  11   21.73    2.47
   8  -2  11   20.99    2.48
   8   2  12   73.50    4.37
   8  -2  12   65.12    4.27
   8  -2  12   72.66    4.57
   8   2  12   69.26    3.78
   8   2  13   51.66    3.90
   8  -2  13   45.07    3.81
   8   2  13   49.20    3.28
   8   2  14    3.08    1.67
   8  -2  14    0.02    1.55
   8   2  15   12.16    2.43
   8  -2  15   10.52    2.28
   8   2  16    9.48    2.31
   8  -2  16   10.21    2.55
   8  -2  17   56.11    4.87
   8   2  17   58.76    4.66
   8  -2  18  139.07    7.70
   8   2  18  141.11    7.59
   8  -2  19   95.68    6.53
   8   2  19   92.63    6.30
   8   2  20   53.86    5.10
   8   3 -22    7.90    2.67
   8  -3 -21    6.81    2.58
   8   3 -21    9.12    2.81
   8   3 -20   16.70    3.11
   8  -3 -20   17.02    2.97
   8  -3 -19   71.49    3.68
   8  -3 -19   78.26    5.64
   8   3 -19   73.76    5.32
   8  -3 -18   32.66    2.21
   8  -3 -18   34.37    2.51
   8   3 -18   29.33    3.29
   8  -3 -18   29.12    3.43
   8  -3 -17  169.51    5.37
   8  -3 -17  177.99    5.87
   8   3 -17  174.12    7.71
   8  -3 -17  168.59    7.77
   8  -3 -16   32.28    2.28
   8  -3 -16   33.13    2.41
   8   3 -16   36.76    3.47
   8  -3 -16   36.94    3.64
   8  -3 -15   34.14    2.28
   8  -3 -15   37.79    2.53
   8  -3 -15   31.38    3.29
   8   3 -15   31.75    3.14
   8  -3 -14    9.22    1.30
   8  -3 -14   11.04    1.54
   8  -3 -14    8.71    1.76
   8   3 -14    8.65    1.81
   8  -3 -13   54.73    2.85
   8  -3 -13   61.56    3.07
   8  -3 -13   50.08    3.70
   8   3 -13   56.03    3.73
   8  -3 -12   22.70    2.35
   8  -3 -12   25.30    2.03
   8  -3 -12   23.24    1.90
   8   3 -12   23.42    2.44
   8  -3 -11   28.60    2.43
   8  -3 -11   28.28    2.07
   8  -3 -11   26.69    1.98
   8   3 -11   30.40    2.58
   8   3 -11   25.50    2.06
   8  -3 -10   72.15    3.70
   8  -3 -10   67.44    3.23
   8   3 -10   64.74    3.07
   8   3 -10   67.62    3.68
  -8  -3   9    1.16    0.64
   8  -3  -9    3.14    1.14
   8   3  -9    3.83    1.29
   8   3  -9    2.86    0.92
  -8   3   9    0.24    0.71
   8   3  -9    1.94    0.77
  -8  -3   8   26.59    1.58
   8   3  -8   27.89    1.75
   8   3  -8   26.88    2.15
   8   3  -8   28.28    1.69
  -8   3   8   27.11    1.91
  -8  -3   8   25.26    0.89
   8  -3  -8   31.19    2.19
   8   3  -7  154.36    4.12
   8   3  -7  151.49    4.87
  -8   3   7  146.60    4.71
  -8  -3   7  146.37    3.27
   8   3  -7  144.26    4.31
  -8  -3   7  140.77    4.29
   8  -3  -7  154.68    5.07
   8  -3  -6    2.70    1.02
   8   3  -6    2.39    0.67
   8   3  -6    4.14    1.02
  -8   3   6    2.37    0.88
   8   3  -6    3.42    0.99
  -8  -3   6    3.57    0.94
   8   3  -5  227.97    4.81
   8   3  -5  231.76    5.72
  -8   3   5  227.91    6.26
   8   3  -5  220.11    5.93
  -8  -3   5  228.25    6.11
   8  -3  -5  228.36    6.55
   8   3  -4   76.36    2.11
  -8   3   4   84.71    3.72
   8   3  -4   81.34    2.81
  -8   3   4   80.61    3.47
   8   3  -4   75.50    3.23
  -8  -3   4   79.47    3.42
   8  -3  -4   76.06    3.60
   8   3  -3   86.36    2.07
  -8   3   3   93.33    3.93
   8   3  -3   88.04    2.73
  -8   3   3   90.93    3.74
   8   3  -3   85.23    3.56
   8  -3  -3   93.81    4.05
  -8  -3   3   97.54    4.01
   8   3  -2    7.96    0.78
  -8   3   2    8.15    1.41
   8  -3  -2    7.87    1.57
  -8  -3   2    7.45    1.40
   8   3  -2    8.84    1.45
  -8   3   1  138.60    5.06
   8   3  -1  136.90    3.00
   8   3  -1  131.78    4.81
   8  -3  -1  140.36    5.22
  -8  -3   1  141.54    5.04
  -8   3   0   15.11    1.84
   8   3   0   16.81    1.89
   8  -3   0   19.83    2.22
  -8  -3   0   18.60    1.96
   8   3   1   62.49    3.36
   8  -3   1   59.40    3.62
  -8   3  -1   60.44    3.42
  -8  -3  -1   64.62    3.43
   8   3   2    9.41    0.98
  -8   3  -2    8.65    1.54
  -8  -3  -2   12.08    1.74
   8  -3   2    8.60    1.83
   8   3   3   17.67    1.48
   8   3   3    4.40    0.93
  -8   3  -3    5.31    1.37
   8  -3   3    1.57    1.30
  -8  -3  -3    7.95    1.49
   8   3   4    0.02    0.73
   8   3   4   -0.27    0.44
  -8   3  -4    0.23    1.12
   8  -3   4    0.99    1.36
  -8  -3  -4   -0.42    1.18
   8   3   5  199.43    4.64
   8   3   5  205.58    5.69
  -8  -3  -5  229.07    7.29
   8  -3   5  215.48    7.32
  -8   3  -5  211.44    7.09
   8   3   6    5.36    0.82
   8   3   6    3.67    1.04
  -8  -3  -6    5.40    1.53
   8  -3   6    6.70    1.66
  -8   3  -6    6.20    1.52
   8   3   7  335.25    7.60
   8   3   7  345.84    8.77
   8  -3   7  362.26   10.12
  -8   3  -7  361.64   10.08
  -8  -3  -7  378.38   10.27
   8   3   8    4.45    1.25
   8   3   8    6.71    1.12
   8  -3   8    1.96    1.48
  -8   3  -8    7.71    1.67
   8   3   9   -1.40    0.94
   8   3   9    0.28    1.14
   8  -3   9    1.64    1.48
   8   3  10   55.86    3.56
   8  -3  10   57.38    3.97
   8  -3  10   59.26    3.64
   8   3  11  227.63    7.73
   8  -3  11  224.13    7.66
   8  -3  11  203.65    7.77
   8   3  12   52.78    3.72
   8  -3  12   43.78    3.45
   8   3  13  270.39    9.07
   8  -3  13  245.24    8.82
   8  -3  13  270.32    9.56
   8   3  14   18.72    2.61
   8  -3  14   15.18    2.65
   8   3  15    3.43    1.86
   8  -3  15    3.00    1.86
   8   3  16    5.28    2.01
   8  -3  16    3.99    1.91
   8   3  17   11.01    2.58
   8  -3  17    9.51    2.52
   8   3  18   30.15    3.69
   8  -3  18   34.43    4.18
   8   3  19   55.37    4.96
   8  -3  19   52.93    4.99
   8   3  20   17.55    3.17
   8  -4 -21   17.77    3.25
   8  -4 -20   39.47    4.20
   8   4 -20   44.15    4.57
   8  -4 -19   75.55    3.99
   8  -4 -19   79.11    5.67
   8   4 -19   87.44    5.84
   8  -4 -18  515.67   11.74
   8  -4 -18  530.24   12.46
   8   4 -18  509.67   15.02
   8  -4 -18  493.21   15.02
   8  -4 -17   10.22    1.44
   8  -4 -17   12.01    1.73
   8   4 -17   11.60    2.31
   8  -4 -17    5.59    2.01
   8  -4 -16   53.94    3.08
   8  -4 -16   52.86    3.27
   8   4 -16   56.53    4.28
   8  -4 -16   56.64    4.52
   8  -4 -15  105.30    4.31
   8  -4 -15   99.33    4.40
   8   4 -15   87.40    5.10
   8  -4 -15   92.93    5.47
   8  -4 -14   95.32    4.11
   8  -4 -14  101.87    4.30
   8   4 -14   99.57    5.20
   8  -4 -14   93.40    5.28
   8  -4 -13   17.31    1.87
   8  -4 -13   13.22    1.77
   8   4 -13   15.12    2.07
   8  -4 -12   -0.76    0.99
   8  -4 -12    1.34    1.14
   8   4 -12    4.60    1.61
   8  -4 -11   29.28    2.27
   8  -4 -11   27.01    2.50
   8  -4 -11   28.95    2.23
   8   4 -11   30.46    2.65
   8  -4 -10  456.76   10.58
   8  -4 -10  463.46   10.42
   8   4 -10  463.02   11.19
   8  -4  -9   44.39    2.70
  -8  -4   9   47.19    1.96
  -8   4   9   42.22    2.50
   8   4  -9   45.86    2.88
  -8  -4   8    2.00    0.69
   8  -4  -8    2.38    1.12
   8   4  -8    1.64    0.93
  -8   4   8    1.27    0.78
   8  -4  -7   10.05    1.50
   8   4  -7   10.15    1.36
  -8  -4   7   10.89    0.67
  -8   4   7   13.66    1.56
  -8  -4   7    8.83    1.10
   8   4  -6  494.58   10.25
  -8   4   6  499.60   10.96
   8  -4  -6  494.98   11.17
  -8  -4   6  490.91   10.34
   8  -4  -5    3.85    1.28
   8   4  -5    3.49    0.86
  -8   4   5    3.42    1.14
  -8  -4   5    1.46    0.91
   8   4  -4  470.56    9.18
  -8   4   4  490.36   10.85
  -8  -4   4  472.78   10.63
   8  -4  -4  494.42   11.12
  -8   4   3   51.34    3.02
   8   4  -3   49.95    1.86
  -8   4   3   47.98    2.84
   8  -4  -3   52.88    3.10
  -8  -4   3   52.38    2.85
  -8   4   2   11.23    1.61
   8   4  -2    8.28    0.68
  -8   4   2   11.02    1.51
  -8  -4   2    9.62    1.43
   8  -4  -2    9.89    1.68
  -8   4   1   10.99    1.50
  -8  -4   1   10.41    1.53
   8  -4  -1   13.11    1.86
   8   4   0  138.09    2.77
  -8   4   0  139.64    5.28
  -8  -4   0  144.57    5.16
   8  -4   0  147.82    5.46
   8   4   1   18.55    1.03
  -8   4  -1   18.45    2.03
   8  -4   1   19.62    2.21
  -8  -4  -1   21.74    2.10
   8   4   2  956.24   16.26
  -8   4  -2  936.45   19.24
   8  -4   2  988.44   19.80
  -8  -4  -2 1007.01   19.35
   8   4   3    6.76    0.97
  -8   4  -3    5.61    1.43
   8  -4   3    5.38    1.72
  -8  -4  -3    5.73    1.45
   8   4   4  902.30   16.26
   8  -4   4  913.44   19.19
  -8  -4  -4  977.14   19.00
  -8   4  -4  845.57   18.46
   8   4   5   18.24    1.61
  -8   4  -5   14.48    1.81
  -8  -4  -5   16.28    2.03
   8  -4   5   16.85    2.25
   8   4   6   36.25    2.33
   8  -4   6   36.58    3.12
  -8  -4  -6   40.18    3.01
  -8   4  -6   35.59    2.84
  -8   4  -7    3.22    1.34
   8   4   7   -0.69    1.02
   8  -4   7    2.55    1.47
  -8  -4  -7    3.18    1.27
   8   4   8   55.44    3.20
  -8   4  -8   53.47    3.62
   8  -4   8   62.12    4.01
   8   4   9   14.15    1.89
   8  -4   9   13.46    2.05
   8   4  10   23.59    2.36
   8  -4  10   21.03    2.58
   8   4  11   12.45    2.05
   8  -4  11    9.04    2.06
   8   4  12  532.69   13.47
   8  -4  12  504.64   13.63
   8   4  13   83.57    4.81
   8  -4  13   74.72    4.63
   8   4  14   28.17    2.99
   8  -4  14   27.24    3.00
   8   4  15    8.33    2.20
   8  -4  15    8.81    2.27
   8   4  16  134.80    6.89
   8  -4  16  137.72    7.39
   8   4  17   10.20    2.45
   8  -4  17    7.55    2.50
   8   4  18    1.42    1.88
   8  -4  18    7.26    2.36
   8   4  19   17.87    2.96
   8  -4  19   11.96    2.93
   8   4  20    4.94    2.33
   8  -5 -21   20.37    3.59
   8  -5 -20   10.88    1.93
   8  -5 -20   15.38    2.97
   8  -5 -19  386.28   10.13
   8  -5 -19  417.65   11.07
   8  -5 -19  392.15   13.28
   8  -5 -18   37.77    2.79
   8  -5 -18   33.36    2.84
   8  -5 -18   37.89    3.93
   8  -5 -17  330.85    9.00
   8  -5 -17  337.52    9.55
   8  -5 -17  308.40   11.27
   8  -5 -16   27.20    2.42
   8  -5 -16   25.46    2.45
   8   5 -16   29.66    3.18
   8  -5 -16   28.57    3.28
   8  -5 -15   54.03    3.28
   8  -5 -15   51.46    3.36
   8   5 -15   54.84    4.02
   8  -5 -15   57.51    4.32
   8  -5 -14    8.88    1.57
   8  -5 -14    8.30    1.75
   8   5 -14    6.97    1.58
   8  -5 -13  116.29    4.80
   8  -5 -13  118.36    4.86
   8   5 -13  112.20    5.37
   8  -5 -12    9.62    1.63
   8  -5 -12    9.38    1.73
   8   5 -12    9.61    1.76
   8  -5 -11   83.51    3.92
   8  -5 -11   81.84    3.93
   8   5 -11   79.80    4.15
  -8  -5  10    7.88    0.74
   8  -5 -10    8.91    1.56
   8   5 -10    9.19    1.61
   8  -5 -10    8.25    1.56
   8  -5  -9   70.03    3.56
   8   5  -9   68.05    3.44
   8  -5  -9   70.78    3.52
  -8   5   9   63.91    3.23
  -8  -5   9   64.28    2.37
   8  -5  -8   47.48    2.92
   8   5  -8   46.66    2.72
  -8   5   8   49.79    2.95
  -8  -5   8   48.44    2.23
   8  -5  -7  239.77    7.06
   8   5  -7  249.68    6.58
  -8   5   7  228.72    6.61
  -8  -5   7  251.80    6.23
   8  -5  -6    6.14    1.43
   8   5  -6    8.17    1.21
  -8   5   6    7.62    1.40
  -8  -5   6    9.55    1.28
   8  -5  -5 1643.72   29.06
  -8   5   5 1680.23   28.95
  -8  -5   5 1589.33   28.00
  -8   5   4   84.34    3.82
   8  -5  -4   74.65    3.75
  -8  -5   4   75.49    3.35
  -8   5   3  614.58   13.14
  -8  -5   3  602.28   12.62
   8  -5  -3  588.25   13.21
  -8   5   2   22.33    2.18
   8  -5  -2   17.47    2.01
  -8   5   2   17.99    1.91
  -8  -5   2   18.95    1.87
  -8   5   1  664.20   14.29
  -8   5   1  630.86   13.90
  -8  -5   1  648.91   13.69
   8  -5  -1  641.62   14.11
  -8   5   0   10.20    1.52
  -8  -5   0   10.57    1.59
   8  -5   0    9.23    1.69
  -8   5  -1  216.72    6.96
  -8  -5  -1  227.09    6.91
   8  -5   1  204.92    6.89
  -8   5  -2   63.27    3.61
   8  -5   2   55.14    3.58
  -8  -5  -2   67.41    3.61
   8   5   3 1000.11   17.37
  -8   5  -3 1012.44   20.38
   8  -5   3 1026.34   20.76
  -8  -5  -3 1066.07   20.49
  -8   5  -4   31.86    2.69
   8   5   4   30.80    1.82
  -8  -5  -4   31.18    2.63
   8  -5   4   30.28    2.89
  -8   5  -5  121.61    5.27
   8   5   5  126.40    4.15
   8  -5   5  119.76    5.59
  -8  -5  -5  138.40    5.59
   8   5   6    9.71    1.34
  -8   5  -6    9.04    1.63
   8  -5   6   12.19    2.11
  -8  -5  -6    9.67    1.83
  -8   5  -7   49.73    3.44
   8   5   7   52.20    2.91
   8  -5   7   56.73    3.85
   8   5   8    4.93    1.28
   8  -5   8    4.56    1.73
   8   5   9   87.44    4.16
   8  -5   9   87.92    4.82
   8   5  10    2.83    1.44
   8  -5  10    2.99    1.61
   8   5  11  779.25   17.31
   8  -5  11  783.44   18.15
   8   5  12    4.34    1.65
   8  -5  12    1.89    1.47
   8   5  13  625.25   15.47
   8  -5  13  597.02   15.43
   8   5  14    1.53    1.63
   8  -5  14   -3.04    1.99
   8   5  15    6.96    2.00
   8  -5  15    7.54    1.89
   8  -5  15    9.46    2.46
   8   5  16   -1.08    1.77
   8  -5  16    0.10    1.79
   8   5  17   30.61    3.52
   8  -5  17   30.30    3.78
   8   5  18    8.82    2.42
   8  -5  18    8.62    2.69
   8   5  19    3.96    2.13
   8  -5  19   -2.02    1.99
   8   5  20   14.55    2.70
   8  -6 -21    4.79    2.06
   8  -6 -20  200.10    7.57
   8  -6 -20  192.36    9.12
   8  -6 -19    0.94    1.04
   8  -6 -19    0.13    1.38
   8  -6 -19    3.66    2.17
   8  -6 -18  714.75   15.92
   8  -6 -18  721.53   16.56
   8  -6 -18  685.48   18.88
   8  -6 -17    6.57    1.63
   8  -6 -17    4.21    1.70
   8  -6 -17    6.91    2.26
   8  -6 -16    7.26    1.57
   8  -6 -16    7.44    1.77
   8  -6 -16    7.34    2.15
   8  -6 -15    1.44    1.11
   8  -6 -15   -2.31    1.50
   8  -6 -14   13.22    1.88
   8  -6 -14   17.81    2.16
   8  -6 -13   65.97    3.73
   8  -6 -13   68.92    3.86
   8  -6 -12    0.88    1.20
   8  -6 -12    1.03    1.36
   8  -6 -11    9.46    1.77
   8  -6 -11    5.36    1.45
  -8  -6  10  349.77    6.74
   8  -6 -10  363.50    9.51
   8  -6 -10  359.42    9.41
   8  -6  -9   11.43    1.76
   8  -6  -9    8.85    1.58
  -8  -6   9    9.34    0.98
   8  -6  -8    4.33    1.29
  -8   6   8    4.64    1.16
  -8  -6   8    8.02    1.06
   8  -6  -7   22.56    2.15
  -8   6   7   26.63    2.19
  -8  -6   7   24.82    0.94
  -8  -6   7   22.33    1.70
   8  -6  -6 1678.60   30.00
  -8   6   6 1715.57   29.96
  -8  -6   6 1648.91   28.47
   8  -6  -5   12.37    1.85
  -8   6   5   13.08    1.74
  -8  -6   5   10.34    1.31
   8  -6  -4 1097.06   21.32
  -8   6   4 1118.86   21.26
  -8  -6   4 1098.89   20.24
  -8   6   3   92.52    4.29
  -8  -6   3   93.33    3.86
   8  -6  -3   91.47    4.34
  -8   6   2   92.86    4.23
  -8  -6   2   93.96    3.99
   8  -6  -2   95.73    4.48
  -8   6   1   41.31    2.87
  -8  -6   1   36.22    2.56
   8  -6  -1   37.18    2.80
  -8   6   0 1561.50   28.10
  -8   6   0 1487.91   27.84
  -8  -6   0 1536.14   27.54
   8  -6   0 1502.60   27.96
  -8   6  -1   18.09    2.10
  -8  -6  -1   18.55    2.04
   8  -6   1   20.25    2.23
  -8   6  -2  479.12   11.84
  -8  -6  -2  485.69   11.68
   8  -6   2  472.95   11.93
  -8   6  -3   44.81    3.16
  -8  -6  -3   46.10    3.11
   8  -6   3   48.20    3.35
  -8   6  -4  434.28   11.30
  -8  -6  -4  442.12   11.31
   8  -6   4  437.01   11.62
  -8   6  -5   -1.25    1.02
   8  -6   5    0.94    1.55
  -8  -6  -5    2.47    1.18
  -8   6  -6    9.87    1.65
   8  -6   6    6.41    1.66
   8   6   7    5.30    1.14
   8  -6   7    8.72    2.03
   8   6   8  563.58   12.57
   8  -6   8  565.96   14.28
   8   6   9    7.05    1.63
   8  -6   9    5.28    1.78
   8   6  10  217.66    7.32
   8  -6  10  220.40    8.05
   8   6  11   42.69    3.31
   8  -6  11   44.20    3.68
   8   6  12  740.35   17.08
   8  -6  12  739.68   17.66
   8   6  13    3.57    1.80
   8  -6  13    1.85    1.56
   8   6  14  211.16    8.20
   8  -6  14  209.35    8.29
   8   6  15    4.76    1.82
   8  -6  15    4.20    1.69
   8   6  16   53.69    4.42
   8  -6  16   49.00    3.97
   8  -6  16   57.46    4.85
   8  -6  17    2.21    2.04
   8  -6  18    2.66    2.09
   8  -7 -20    9.81    2.05
   8  -7 -20   13.08    2.83
   8  -7 -19  203.91    7.40
   8  -7 -19  207.03    7.90
   8  -7 -19  189.69    9.11
   8  -7 -18    7.36    1.62
   8  -7 -18    6.04    1.72
   8  -7 -18    5.01    2.19
  -8  -7  17  177.48    7.03
   8  -7 -17  178.05    6.85
   8  -7 -17  198.75    7.47
   8  -7 -17  173.46    8.22
   8  -7 -16    7.61    1.72
  -8  -7  16    6.52    1.65
   8  -7 -16    6.51    1.75
   8  -7 -15   17.58    2.23
  -8  -7  15   20.31    2.28
   8  -7 -15   19.18    2.48
   8  -7 -14    7.00    1.51
  -8  -7  14    4.53    1.33
   8  -7 -14    5.68    1.67
   8  -7 -13    5.24    1.57
  -8  -7  13    7.99    1.43
   8  -7 -13    9.04    1.95
   8  -7 -12   16.33    2.18
  -8  -7  12   17.22    1.78
   8  -7 -12   13.31    2.02
  -8  -7  11   54.62    2.73
  -8  -7  11   45.46    1.27
   8  -7 -11   50.04    3.35
   8  -7 -11   50.53    3.36
   8  -7 -10   -0.11    1.16
  -8  -7  10    0.64    0.73
   8  -7 -10    1.42    1.31
  -8  -7  10    0.59    0.54
   8  -7  -9  368.22    9.95
   8  -7  -9  375.89    9.94
  -8  -7   9  368.71    7.82
   8  -7  -8    2.38    1.30
   8  -7  -8    1.24    1.32
  -8   7   8    2.84    1.29
  -8  -7   8    0.39    0.74
   8  -7  -7   35.50    2.83
  -8  -7   7   34.93    1.21
  -8   7   7   31.16    2.51
  -8  -7   7   33.00    2.02
   8  -7  -6    8.59    1.65
  -8   7   6    7.28    1.52
  -8  -7   6    7.82    1.13
   8  -7  -5 1208.73   23.18
  -8   7   5 1232.26   23.18
  -8  -7   5 1179.37   21.56
   8  -7  -4   24.20    2.43
  -8   7   4   28.25    2.52
  -8  -7   4   27.47    2.07
   8  -7  -3   85.57    4.25
  -8   7   3   91.22    4.28
  -8  -7   3   82.25    3.67
   8  -7  -2   16.14    2.05
  -8   7   2   17.03    2.01
  -8  -7   2   16.17    1.80
  -8   7   1  333.02    9.21
  -8  -7   1  324.40    8.67
   8  -7  -1  337.67    9.39
   8  -7   0   23.12    2.43
  -8   7   0   24.32    2.31
  -8  -7   0   26.12    2.23
   8  -7   1    5.59    1.63
  -8   7  -1    6.50    1.44
  -8  -7  -1    4.80    1.40
  -8   7  -2   14.86    1.94
   8  -7   2   16.32    2.19
  -8  -7  -2   16.63    2.02
  -8   7  -3  710.12   16.04
  -8  -7  -3  755.95   16.20
   8  -7   3  708.04   16.21
  -8   7  -4   11.10    1.70
  -8  -7  -4    9.38    1.62
   8  -7   4    9.24    1.82
  -8   7  -5  103.28    4.94
   8  -7   5  110.15    5.39
   8  -7   6   28.83    3.00
   8  -7   7    3.74    1.52
   8  -7   8    2.89    1.62
   8  -7   9   60.06    4.22
   8  -7  10   12.50    2.25
   8  -7  11  148.79    6.67
   8  -7  12    0.41    1.62
   8  -7  13  314.26   10.44
   8  -7  14    1.81    1.60
   8  -7  15   10.48    2.19
   8  -7  16    6.31    2.00
   8  -7  17   19.56    2.75
   8  -7  17   26.23    3.71
   8  -7  18    1.29    1.94
   8  -8 -21    3.08    1.63
  -8  -8  20   19.43    2.77
   8  -8 -20   21.30    2.88
   8  -8 -20   20.53    3.52
  -8  -8  19   70.95    4.63
   8  -8 -19   72.81    4.46
   8  -8 -19   75.09    4.86
   8  -8 -19   77.33    5.91
   8  -8 -18  273.02    9.17
  -8  -8  18  266.72    9.21
   8  -8 -18  276.85    9.60
   8  -8 -18  273.48   10.86
   8  -8 -17   60.20    4.09
  -8  -8  17   64.26    4.10
   8  -8 -17   60.92    4.25
  -8  -8  16    7.51    1.87
   8  -8 -16    6.09    1.96
   8  -8 -15    2.69    1.46
  -8  -8  15    1.44    1.27
   8  -8 -15    2.07    1.63
   8  -8 -14    4.43    1.63
  -8  -8  14    2.80    1.30
   8  -8 -14    2.19    1.65
   8  -8 -13    5.71    1.79
  -8  -8  13    3.08    1.17
   8  -8 -13    1.32    1.42
  -8  -8  12  218.56    6.44
   8  -8 -12  211.23    7.53
   8  -8 -12  209.47    7.50
   8  -8 -11    4.07    1.44
  -8  -8  11    5.09    0.54
  -8  -8  11    4.40    1.12
  -8  -8  11    5.24    1.46
   8  -8 -11    3.46    1.37
   8  -8 -10   -1.27    1.22
  -8  -8  10    0.55    0.73
  -8  -8  10   -0.74    1.15
   8  -8 -10    1.46    1.44
  -8  -8  10    0.25    0.63
   8  -8  -9    4.76    1.54
  -8  -8   9    6.44    1.01
  -8  -8   9    4.95    1.16
   8  -8  -9    6.94    1.65
  -8  -8   9    5.55    0.89
  -8  -8   8   67.46    2.44
   8  -8  -8   64.05    3.81
  -8  -8   8   64.61    3.25
  -8   8   8   66.10    3.83
   8  -8  -8   62.74    3.77
  -8  -8   8   65.97    2.80
   8  -8  -7   12.65    1.93
  -8  -8   7   13.53    1.49
  -8  -8   7   13.56    0.91
  -8   8   7   13.20    1.85
  -8  -8   7   14.25    1.38
   8  -8  -6  512.25   12.53
  -8  -8   6  513.22   10.62
  -8  -8   6  498.98    9.40
  -8   8   6  504.27   12.13
  -8  -8   6  512.85   10.89
   8  -8  -5   11.73    1.89
  -8  -8   5   13.17    1.24
  -8   8   5   13.92    1.93
  -8  -8   5   13.88    1.54
   8  -8  -4  184.13    6.59
  -8  -8   4  180.21    4.62
  -8   8   4  191.60    6.66
  -8  -8   4  184.68    5.73
   8  -8  -3    5.67    1.62
  -8   8   3    6.23    1.46
  -8  -8   3    7.89    1.36
   8  -8  -2   -1.29    1.38
  -8   8   2    0.44    1.14
  -8  -8   2   -0.63    0.95
  -8   8   1   42.02    3.06
  -8  -8   1   37.27    2.66
   8  -8  -1   38.59    3.09
  -8   8   0  411.58   10.86
  -8  -8   0  417.47   10.52
   8  -8   0  400.77   10.92
   8  -8   1    1.17    1.29
  -8   8  -1   -1.51    1.23
  -8  -8  -1    0.25    0.95
  -8   8  -2   38.66    3.07
  -8  -8  -2   42.16    3.00
   8  -8   2   38.54    3.11
  -8  -8  -3   36.35    2.90
   8  -8   3   29.11    2.78
   8  -8   4   93.63    4.93
   8  -8   5   15.11    2.25
   8  -8   6  128.16    6.02
   8  -8   7   14.60    2.38
   8  -8   8    3.70    1.57
   8  -8   9    6.15    1.96
   8  -8  10    4.92    1.80
   8  -8  11  149.54    6.83
   8  -8  12  244.97    9.03
   8  -8  13   34.88    3.42
   8  -8  14   54.42    4.30
   8  -8  15    1.78    1.48
   8  -8  16   64.48    4.74
   8  -8  17    5.66    1.71
   8  -8  18   27.58    3.32
  -8  -9  21   24.64    3.23
   8  -9 -21   28.13    3.38
   8  -9 -20   24.01    2.83
  -8  -9  20   30.34    3.37
   8  -9 -20   34.93    3.65
  -8  -9  19   19.12    2.73
   8  -9 -19   18.40    2.75
   8  -9 -19   21.45    3.23
  -8  -9  18   19.98    2.61
   8  -9 -18   20.82    2.88
   8  -9 -18   21.23    3.26
  -8  -9  17   44.80    3.49
   8  -9 -17   41.43    3.79
  -8  -9  16   11.99    2.00
   8  -9 -16   11.06    2.22
  -8  -9  15    7.39    1.68
   8  -9 -15    2.47    1.70
  -8  -9  14   24.94    2.32
   8  -9 -14   27.06    2.95
  -8  -9  13   12.46    1.66
   8  -9 -13   14.87    2.35
   8  -9 -12   38.19    3.26
  -8  -9  12   37.00    2.49
   8  -9 -12   34.17    3.17
  -8  -9  11  147.24    4.86
   8  -9 -11  144.71    6.26
  -8  -9  11  149.39    5.96
   8  -9 -11  154.23    6.41
  -8  -9  11  146.11    3.52
   8  -9 -10    8.24    1.84
  -8  -9  10    7.17    1.10
  -8  -9  10    7.14    1.45
   8  -9 -10    9.97    2.08
  -8  -9  10    7.98    1.06
   8  -9  -9   21.04    2.59
  -8  -9   9   22.40    1.58
  -8  -9   9   24.30    2.14
   8  -9  -9   22.71    2.64
  -8  -9   9   21.71    1.61
   8  -9  -8    6.31    1.79
  -8  -9   8    6.25    0.83
  -8  -9   8    7.94    1.39
   8  -9  -8    6.91    1.84
  -8  -9   8    6.36    1.07
   8  -9  -7   10.35    1.82
  -8  -9   7   11.71    0.95
  -8  -9   7   10.76    1.41
  -8  -9   7   10.76    0.94
   8  -9  -7   12.84    2.20
  -8  -9   7   10.87    1.36
   8  -9  -6   -1.04    1.41
  -8  -9   6    0.41    0.42
  -8  -9   6    0.82    0.75
  -8  -9   6   -0.44    0.62
  -8  -9   6    0.91    0.85
   8  -9  -5   73.84    4.26
  -8  -9   5   75.57    3.01
  -8  -9   5   79.55    3.59
  -8  -9   4    0.98    0.68
   8  -9  -4    0.85    1.29
  -8  -9   4    1.01    0.86
   8  -9  -3   93.95    4.68
  -8  -9   3   80.61    2.67
  -8  -9   3   82.18    3.86
  -8  -9   2    8.51    0.77
   8  -9  -2   10.38    2.02
  -8  -9   2   10.27    1.61
   8  -9  -1    4.58    1.59
  -8  -9   1    6.90    1.44
  -8  -9   1    5.78    0.54
   8  -9   0    4.77    1.64
  -8  -9   0    3.79    1.18
  -8  -9  -1  115.16    5.06
   8  -9   1  113.10    5.31
   8  -9   2   22.98    2.56
  -8  -9  -2   23.54    2.42
   8  -9   3   37.66    3.20
   8  -9   4    3.15    1.54
   8  -9   5  125.15    5.86
   8  -9   6   52.16    3.89
   8  -9   7  177.87    7.36
  -8  -9  -8    3.89    0.81
   8  -9   8    2.49    1.70
  -8  -9  -9   19.06    1.53
   8  -9   9   11.61    2.24
   8  -9  10   -0.10    1.67
   8  -9  11    5.36    1.99
   8  -9  12    1.19    1.56
   8  -9  13   73.73    4.98
   8  -9  14    3.05    1.78
   8  -9  15   21.80    3.09
   8  -9  16   17.96    2.84
   8  -9  17    6.63    2.27
   8  -9  18   20.16    2.82
   8 -10 -21    5.85    2.45
  -8 -10  20   54.62    4.31
   8 -10 -20   63.29    4.87
  -8 -10  19    4.01    1.85
   8 -10 -19    6.30    2.29
   8 -10 -19    1.33    2.16
  -8 -10  18    0.47    1.46
   8 -10 -18   -0.62    1.77
  -8 -10  17   28.91    2.98
   8 -10 -17   23.75    3.07
  -8 -10  16   29.86    2.86
   8 -10 -16   35.04    3.58
  -8 -10  15    3.57    1.42
   8 -10 -15    2.67    1.64
  -8 -10  14   36.11    2.81
   8 -10 -14   36.03    3.52
  -8 -10  13   37.59    2.72
   8 -10 -13   34.94    3.33
  -8 -10  12  495.71   11.22
   8 -10 -12  481.93   13.27
   8 -10 -11    0.66    1.46
  -8 -10  11    0.18    0.93
  -8 -10  11   -0.25    1.07
   8 -10 -11    0.00    1.67
  -8 -10  11    0.08    0.58
  -8 -10  10    6.09    1.11
   8 -10 -10    5.26    1.64
  -8 -10  10    6.17    1.41
   8 -10 -10    3.95    1.54
  -8 -10  10    5.63    0.97
  -8 -10   9   84.74    3.14
   8 -10  -9   75.66    4.63
  -8 -10   9   81.80    3.99
   8 -10  -9   78.90    4.63
  -8 -10   9   82.46    3.22
  -8 -10   8   89.65    3.02
   8 -10  -8   91.29    5.06
  -8 -10   8   87.08    3.93
  -8 -10   8   90.07    2.54
   8 -10  -8   86.22    4.79
  -8 -10   8   86.44    3.51
   8 -10  -7    5.63    1.84
  -8 -10   7    5.33    0.79
  -8 -10   7    4.73    1.07
  -8 -10   7    3.75    0.76
   8 -10  -7    5.05    1.92
  -8 -10   7    3.97    1.04
   8 -10  -6    7.74    1.87
  -8 -10   6    6.56    0.68
  -8 -10   6    5.27    1.01
  -8 -10   6    6.80    0.98
  -8 -10   6    7.64    1.27
   8 -10  -5   34.28    3.14
  -8 -10   5   28.87    1.03
  -8 -10   5   31.93    2.37
  -8 -10   5   31.92    1.93
  -8 -10   5   35.25    2.10
   8 -10  -4  263.95    8.70
  -8 -10   4  268.40    7.58
  -8 -10   4  250.52    6.18
   8 -10  -3   24.33    2.69
  -8 -10   3   23.13    2.16
  -8 -10   3   21.58    1.42
   8 -10  -2  141.86    6.09
  -8 -10   2  157.79    5.77
  -8 -10   2  146.58    3.79
   8 -10  -1   22.48    2.62
  -8 -10   1   19.78    2.14
  -8 -10   1   20.86    1.12
  -8 -10   0   89.92    2.19
   8 -10   0   97.51    5.00
  -8 -10  -1    6.30    0.69
   8 -10   1    6.56    1.79
  -8 -10  -2   11.97    1.01
   8 -10   2   11.88    2.21
  -8 -10  -3   36.81    1.87
   8 -10   3   39.04    3.33
  -8 -10  -4   29.79    1.84
   8 -10   4   30.62    2.96
  -8 -10  -5   36.53    2.18
  -8 -10  -5   33.59    1.24
   8 -10   5   34.58    3.26
  -8 -10  -6  200.90    4.37
   8 -10   6  197.68    7.77
  -8 -10  -7   18.18    1.22
   8 -10   7   19.35    2.72
  -8 -10  -8   24.58    1.54
   8 -10   8   27.25    3.14
  -8 -10  -9    6.71    1.07
   8 -10   9    6.67    2.14
  -8 -10 -10  262.43    6.72
   8 -10  10  255.35    9.63
  -8 -10 -11   22.91    1.93
   8 -10  11   22.04    3.00
  -8 -10 -12    6.56    1.25
   8 -10  12    6.38    2.13
  -8 -10 -13    6.46    1.52
   8 -10  13    4.04    1.79
   8 -10  14   22.86    3.06
   8 -10  15    3.01    2.04
   8 -10  16    5.85    1.95
   8 -10  17   -0.42    1.67
   8 -11 -21    5.45    2.37
   8 -11 -20    0.62    1.80
   8 -11 -19    2.20    1.82
  -8 -11  18    1.53    1.50
   8 -11 -18    0.28    1.84
  -8 -11  17    0.85    1.50
   8 -11 -17    2.54    1.76
  -8 -11  16   16.25    2.19
   8 -11 -16   14.59    2.61
  -8 -11  15   -2.67    1.41
   8 -11 -15    1.81    1.90
  -8 -11  14    6.73    1.43
   8 -11 -14    8.81    2.39
  -8 -11  13  418.64   10.46
   8 -11 -13  434.32   12.74
  -8 -11  12   23.39    2.04
   8 -11 -12   22.87    2.84
  -8 -11  11  325.36    8.17
   8 -11 -11  323.69   10.52
  -8 -11  10    4.92    1.07
   8 -11 -10    3.73    1.68
  -8 -11  10    6.17    1.62
   8 -11 -10    4.45    1.78
  -8 -11  10    4.26    0.94
  -8 -11   9  110.62    3.72
   8 -11  -9  103.00    5.51
  -8 -11   9  102.21    4.63
   8 -11  -9  105.03    5.57
  -8 -11   9  105.25    3.88
   8 -11  -8   -0.07    1.64
  -8 -11   8    1.40    0.73
  -8 -11   8   -0.77    0.93
  -8 -11   8    0.68    0.56
   8 -11  -8   -1.01    2.04
  -8 -11   8    0.74    0.85
  -8 -11   7  226.54    5.16
   8 -11  -7  216.84    8.19
  -8 -11   7  224.57    6.68
   8 -11  -7  218.06    8.06
  -8 -11   7  220.62    5.42
  -8 -11   7  219.57    6.48
   8 -11  -6   23.49    2.82
  -8 -11   6   24.33    1.29
  -8 -11   6   21.99    1.90
  -8 -11   6   21.05    1.60
  -8 -11   6   17.58    1.74
   8 -11  -5   57.37    4.04
  -8 -11   5   50.81    1.67
  -8 -11   5   53.59    3.14
  -8 -11   5   49.40    2.52
  -8 -11   5   50.55    2.62
   8 -11  -4    9.67    2.01
  -8 -11   4    8.65    1.44
  -8 -11   4    7.68    1.22
  -8 -11   4    6.92    1.09
  -8 -11   4    5.51    0.50
  -8 -11   3  305.96    6.46
   8 -11  -3  317.88    9.57
  -8 -11   2   20.20    1.36
  -8 -11   2   14.53    0.69
   8 -11  -2   22.09    2.81
  -8 -11   1   16.65    1.16
  -8 -11   1   15.33    0.82
   8 -11  -1   17.97    2.45
  -8 -11   0    0.49    0.47
  -8 -11   0    1.76    0.53
   8 -11   0    1.71    1.46
  -8 -11  -1  456.88    8.16
   8 -11   1  469.90   12.71
  -8 -11  -1  474.91    8.73
  -8 -11  -2    2.66    0.72
   8 -11   2    1.81    1.62
  -8 -11  -3  115.31    2.65
  -8 -11  -3  132.66    3.90
   8 -11   3  122.05    5.80
  -8 -11  -4    9.75    0.70
  -8 -11  -4    8.45    1.14
   8 -11   4    8.51    1.84
  -8 -11  -5  504.10    9.04
  -8 -11  -5  520.21   10.93
   8 -11   5  516.43   13.76
  -8 -11  -6    1.24    0.53
  -8 -11  -6    2.99    1.07
   8 -11   6    0.90    1.53
  -8 -11  -7  428.73   10.24
  -8 -11  -7  424.50    8.44
   8 -11   7  420.94   12.44
  -8 -11  -8   14.60    1.84
  -8 -11  -8   12.68    1.20
   8 -11   8   16.80    2.76
  -8 -11  -9   94.43    3.43
   8 -11   9   83.22    5.39
  -8 -11 -10   73.25    3.18
   8 -11  10   72.12    5.10
  -8 -11 -11   46.15    2.65
   8 -11  11   44.65    4.02
   8 -11  12    2.89    1.78
   8 -11  13   -0.23    1.62
   8 -11  14    0.02    2.59
   8 -11  15   13.93    2.59
   8 -11  16   -1.60    1.68
   8 -11  17   69.99    5.05
   8 -12 -21    7.30    2.52
   8 -12 -20    6.80    2.43
   8 -12 -19    7.05    2.28
   8 -12 -18    5.52    2.39
   8 -12 -17   -0.27    1.79
  -8 -12  16    9.36    1.94
   8 -12 -16    6.55    2.24
  -8 -12  15    2.68    1.38
   8 -12 -15    3.93    2.14
  -8 -12  14   23.99    2.34
   8 -12 -14   19.72    2.97
  -8 -12  13   12.28    1.76
   8 -12 -13   14.06    2.63
  -8 -12  12  641.39   13.82
   8 -12 -12  644.04   16.77
  -8 -12  11   48.78    2.78
   8 -12 -11   46.35    3.93
   8 -12 -10   50.88    4.14
  -8 -12  10   47.14    2.56
  -8 -12  10   44.93    3.28
   8 -12 -10   47.40    4.06
   8 -12  -9    2.19    1.53
  -8 -12   9    3.89    1.02
  -8 -12   9    2.65    1.20
   8 -12  -9   -0.69    1.70
  -8 -12   9    3.02    1.05
   8 -12  -8    1.71    1.56
  -8 -12   8    2.40    0.75
  -8 -12   8    1.76    0.99
  -8 -12   8    2.06    0.78
   8 -12  -8    3.14    1.74
  -8 -12   8    1.23    0.94
   8 -12  -7    3.95    1.65
  -8 -12   7    1.47    0.96
   8 -12  -7    3.97    1.96
  -8 -12   7    2.52    0.82
  -8 -12   7    3.82    0.80
  -8 -12   7    3.47    1.12
   8 -12  -6   25.38    2.89
  -8 -12   6   21.21    2.07
  -8 -12   6   19.84    1.73
  -8 -12   6   21.14    1.94
  -8 -12   6   20.81    1.30
   8 -12  -5   50.93    3.98
  -8 -12   5   43.96    2.52
  -8 -12   5   44.54    2.57
   8 -12  -4   78.44    4.82
  -8 -12   4   74.50    3.52
  -8 -12   4   76.51    3.23
   8 -12  -3   37.58    3.46
  -8 -12   3   35.14    2.51
  -8 -12   3   36.30    2.09
  -8 -12   2  119.53    3.77
  -8 -12   2  122.82    2.99
   8 -12  -2  131.33    6.24
  -8 -12   1   -0.49    0.55
  -8 -12   1    0.97    0.51
   8 -12  -1    1.39    1.66
  -8 -12   0   93.91    2.88
  -8 -12   0   92.83    2.78
   8 -12   0   91.31    5.15
  -8 -12  -1    8.84    0.95
   8 -12   1    8.46    2.06
  -8 -12  -2  175.22    4.68
   8 -12   2  178.28    7.33
  -8 -12  -3    4.27    0.95
   8 -12   3    3.38    1.79
  -8 -12  -4  152.76    3.68
  -8 -12  -4  157.85    4.84
   8 -12   4  154.12    6.87
  -8 -12  -5   71.34    2.35
  -8 -12  -5   77.89    3.43
   8 -12   5   75.84    4.93
  -8 -12  -6  835.24   14.68
  -8 -12  -6  862.55   16.77
   8 -12   6  834.01   19.67
  -8 -12  -7   61.14    2.44
  -8 -12  -7   57.64    3.24
   8 -12   7   59.54    4.40
  -8 -12  -8    3.47    0.84
  -8 -12  -8    5.06    1.42
   8 -12   8    5.53    2.13
  -8 -12  -9   78.89    3.15
   8 -12   9   69.96    5.04
   8 -12  10   81.50    5.52
   8 -12  11   16.30    2.85
   8 -12  12    7.11    2.11
   8 -12  13   31.96    3.76
   8 -12  14   -0.18    1.69
   8 -12  15    1.57    2.12
   8 -12  16   -0.52    1.69
   8 -13 -20    3.82    2.24
   8 -13 -19   -0.13    1.94
   8 -13 -18   24.66    3.31
   8 -13 -17   17.68    2.93
   8 -13 -16    2.41    2.03
   8 -13 -15   56.62    4.81
   8 -13 -14    0.83    2.84
  -8 -13  13  142.08    5.47
   8 -13 -13  152.89    7.43
  -8 -13  12   18.52    1.95
   8 -13 -12   15.61    2.66
  -8 -13  11  203.00    6.17
   8 -13 -11  209.98    8.67
  -8 -13  10   50.94    2.76
   8 -13 -10   49.56    4.11
   8 -13  -9   -0.55    1.69
   8 -13  -9    3.01    1.83
  -8 -13   9    1.64    0.95
  -8 -13   9    1.54    1.21
   8 -13  -8    3.02    1.73
  -8 -13   8    2.01    0.92
  -8 -13   8    3.45    0.89
   8 -13  -8    3.76    1.98
  -8 -13   8    3.43    0.89
  -8 -13   8    3.67    1.28
   8 -13  -7    3.14    1.76
  -8 -13   7    3.07    1.05
   8 -13  -7    2.11    1.85
  -8 -13   7    3.16    0.95
  -8 -13   7    2.10    1.14
  -8 -13   7    2.78    0.81
   8 -13  -6    4.94    2.13
  -8 -13   6    2.90    0.95
  -8 -13   6    4.82    1.27
   8 -13  -5    3.42    1.95
  -8 -13   5    3.54    1.02
  -8 -13   5    4.36    1.09
   8 -13  -4    1.13    1.70
  -8 -13   4    0.15    0.92
  -8 -13   4    0.50    1.29
   8 -13  -3  248.10    9.13
  -8 -13   3  259.03    7.67
  -8 -13   3  240.74    6.43
   8 -13  -2   12.30    2.36
  -8 -13   2    9.27    1.55
  -8 -13   2   10.96    1.23
  -8 -13   1    7.12    1.01
   8 -13  -1   11.24    2.31
  -8 -13   1    6.71    0.82
  -8 -13   0    4.67    0.77
   8 -13   0    2.50    1.69
  -8 -13  -1  144.11    4.12
   8 -13   1  134.94    6.57
  -8 -13  -2    0.86    0.77
   8 -13   2    2.51    1.81
  -8 -13  -3    8.55    1.26
   8 -13   3    8.79    2.24
  -8 -13  -4   21.53    1.85
   8 -13   4   19.40    2.75
  -8 -13  -5  182.62    4.57
  -8 -13  -5  189.31    5.82
   8 -13   5  190.02    7.92
  -8 -13  -6    5.23    0.93
  -8 -13  -6    4.81    1.29
   8 -13   6    3.71    1.76
  -8 -13  -7   67.37    2.72
   8 -13   7   75.26    5.10
   8 -13   8    1.26    1.63
   8 -13   9   65.99    4.94
   8 -13  10   28.68    3.59
   8 -13  11   30.11    3.70
   8 -13  12   -2.34    2.22
   8 -13  13   -0.66    1.83
   8 -13  14   14.49    2.82
   8 -13  15   12.71    2.67
   8 -13  16   16.53    2.96
   8 -14 -18   60.21    5.23
   8 -14 -17   -1.53    2.26
   8 -14 -16   19.08    3.25
   8 -14 -15   -0.72    1.90
   8 -14 -14    4.26    2.34
   8 -14 -13    5.74    2.25
   8 -14 -12  105.54    6.30
   8 -14 -11   64.14    4.91
   8 -14 -10   -3.09    2.25
   8 -14  -9   13.29    2.58
   8 -14  -9   17.42    2.89
  -8 -14   9   13.41    1.47
   8 -14  -8    1.03    1.68
  -8 -14   8    0.21    0.75
   8 -14  -8    2.14    1.97
  -8 -14   8    0.78    0.82
   8 -14  -7   12.96    2.51
   8 -14  -7   15.19    2.75
  -8 -14   7   12.76    1.42
  -8 -14   7   14.37    1.91
   8 -14  -6  148.19    7.22
  -8 -14   6  138.83    4.93
  -8 -14   6  144.12    5.38
   8 -14  -5   34.83    3.62
  -8 -14   5   34.02    2.51
  -8 -14   5   31.17    2.34
   8 -14  -4    2.86    1.94
  -8 -14   4    1.51    1.10
  -8 -14   4    1.06    0.88
   8 -14  -3    7.46    2.28
  -8 -14   3    7.67    1.48
  -8 -14   3    6.96    1.21
   8 -14  -2   22.69    3.07
  -8 -14   2   22.14    2.36
  -8 -14   2   20.35    1.67
   8 -14  -1   31.24    3.37
  -8 -14   1   28.28    2.66
   8 -14   0   65.02    4.57
   8 -14   1   11.16    2.30
   8 -14   2   12.17    2.34
   8 -14   3    3.02    1.63
   8 -14   4   -0.78    1.74
   8 -14   5   26.92    3.19
   8 -14   6   85.35    5.49
   8 -14   7    3.92    1.89
   8 -14   8   41.33    4.02
   8 -14   9   42.52    4.08
   8 -14  10    1.11    1.86
   8 -14  11    6.43    2.21
   8 -14  12   22.44    3.28
   8 -14  13    1.02    1.89
   8 -14  14    1.82    1.83
   8 -14  15    5.31    2.31
   8 -15 -16    1.75    2.21
   8 -15 -15    0.04    1.86
   8 -15 -14    5.85    2.43
   8 -15 -13   12.17    2.82
   8 -15 -12   10.72    2.77
   8 -15 -11    4.52    1.98
   8 -15 -10   19.74    3.02
   8 -15 -10   15.22    2.71
   8 -15  -9   37.75    4.00
   8 -15  -9   34.34    3.87
   8 -15  -8    2.99    1.94
   8 -15  -8    2.63    1.79
   8 -15  -7    6.55    2.34
   8 -15  -7   11.60    2.56
  -8 -15   7    8.53    1.32
   8 -15  -6    0.30    1.68
  -8 -15   6    0.65    1.02
   8 -15  -5  235.57    9.44
  -8 -15   5  232.94    7.12
   8 -15  -4    3.73    1.91
  -8 -15   4    1.94    1.28
   8 -15  -3    0.92    1.61
  -8 -15   3    0.28    1.14
   8 -15  -2   11.61    2.48
  -8 -15   2    6.87    1.57
   8 -15  -1   35.53    3.69
  -8 -15   1   40.74    3.31
   8 -15   0   20.10    2.87
  -8 -15   0   17.86    2.45
   8 -15   1   59.42    4.61
  -8 -15  -1   47.31    3.61
   8 -15   2    6.84    2.11
   8 -15   3  217.95    8.96
   8 -15   4    7.44    2.17
   8 -15   5    2.43    1.83
   8 -15   6    2.26    1.70
   8 -15   7   30.96    3.48
   8 -15   8    7.94    2.43
   8 -15   9    6.36    2.20
   8 -15  10   18.13    3.07
   8 -15  11   41.26    4.31
   8 -15  12   37.22    4.23
   8 -15  13  132.30    7.52
   8 -15  14   18.95    3.27
   8 -16 -14   12.94    2.96
   8 -16 -13    0.43    1.96
   8 -16 -12   28.39    3.75
   8 -16 -11   13.61    2.79
   8 -16 -10   33.23    3.92
   8 -16 -10   31.86    3.79
   8 -16  -9    4.80    2.38
   8 -16  -9   -0.12    2.02
   8 -16  -8    1.07    1.81
   8 -16  -8    0.37    1.86
   8 -16  -7    8.12    2.43
   8 -16  -6  230.30    9.70
  -8 -16   6  217.80    6.93
   8 -16  -5    0.39    1.93
  -8 -16   5    4.03    1.50
   8 -16  -4  170.25    8.20
  -8 -16   4  172.02    6.30
   8 -16  -3   -0.14    1.96
  -8 -16   3    0.30    1.21
   8 -16  -2   27.09    3.49
  -8 -16   2   32.73    2.98
   8 -16  -1   60.77    4.83
  -8 -16   1   56.38    3.89
   8 -16   0   21.39    2.96
  -8 -16   0   28.09    3.05
   8 -16   1   23.53    3.25
  -8 -16  -1   18.27    2.59
   8 -16   2  169.85    8.05
  -8 -16  -2  160.86    7.05
   8 -16   3    3.07    1.77
  -8 -16  -3    1.93    1.63
   8 -16   4  108.71    6.45
   8 -16   5   20.06    3.10
   8 -16   6    4.21    2.04
   8 -16   7    0.35    1.72
   8 -16   8   11.59    2.56
   8 -16   9   -0.32    1.73
   8 -16  10   38.37    4.23
   8 -16  11   13.59    2.87
   8 -16  12  128.76    7.64
   8 -16  13   12.34    3.03
   8 -16  14   70.59    5.53
   8 -17 -11   56.49    5.20
   8 -17 -10    1.04    1.83
   8 -17 -10    0.39    1.89
   8 -17  -9   30.98    3.80
   8 -17  -9   30.37    3.81
   8 -17  -8    0.95    1.92
   8 -17  -8    0.01    1.94
   8 -17  -7   80.72    5.90
   8 -17  -6    4.37    2.15
   8 -17  -5  394.13   13.34
  -8 -17   5  378.05   10.31
   8 -17  -4   11.83    2.76
  -8 -17   4   10.38    1.92
   8 -17  -3  137.70    7.48
  -8 -17   3  125.45    5.69
   8 -17  -2    5.03    2.33
  -8 -17   2    2.32    1.49
   8 -17  -1  155.36    7.79
  -8 -17   1  130.27    5.98
   8 -17   0   29.12    3.55
  -8 -17   0   29.59    2.95
   8 -17   1   -0.88    1.90
  -8 -17  -1    0.29    1.45
   8 -17   2    7.69    2.36
  -8 -17  -2    4.36    1.90
   8 -17   3  172.88    8.29
  -8 -17  -3  165.89    7.55
   8 -17   4   24.19    3.38
  -8 -17  -4   22.61    3.05
   8 -17   5   23.74    3.22
  -8 -17  -5   19.85    2.92
   8 -17   6    6.49    2.28
   8 -17   7   32.79    3.88
   8 -17   8    3.59    2.06
   8 -17   9   68.04    5.42
   8 -17  10    7.20    2.59
   8 -17  11  193.59    9.35
   8 -17  12   -2.11    2.39
   8 -17  13  227.06   10.52
   8 -18  -8   -1.29    2.22
   8 -18  -7    5.74    2.55
   8 -18  -6  201.05    9.58
   8 -18  -5    3.51    2.08
   8 -18  -4  143.84    7.88
  -8 -18   4  126.34    5.76
   8 -18  -3    6.40    2.46
  -8 -18   3    7.05    1.85
   8 -18  -2   24.99    3.48
  -8 -18   2   22.90    2.79
   8 -18  -1    6.61    2.32
  -8 -18   1    5.26    1.70
   8 -18   0   37.03    4.08
  -8 -18   0   34.14    3.30
   8 -18   1    7.64    2.32
  -8 -18  -1    6.75    2.02
   8 -18   2   34.19    3.87
  -8 -18  -2   34.89    3.62
   8 -18   3   33.32    3.78
  -8 -18  -3   36.81    3.94
  -8 -18  -4   85.67    5.62
   8 -18   4   87.66    6.38
   8 -18   5   15.23    3.09
  -8 -18  -5    8.78    2.46
   8 -18   6    3.63    2.24
  -8 -18  -6   -0.25    1.84
  -8 -18  -7    6.36    2.24
   8 -18   7   12.15    2.85
  -8 -18  -8   17.54    3.09
   8 -18   8   17.96    3.18
   8 -18   9   -0.53    1.92
   8 -18  10   54.20    5.09
   8 -18  11   25.77    3.77
   8 -18  12  166.55    9.04
   8 -19  -4   11.84    2.84
   8 -19  -3    2.35    2.05
  -8 -19   3    4.97    1.79
   8 -19  -2   -2.89    2.26
  -8 -19   2   -1.88    1.68
   8 -19  -1   32.77    4.09
  -8 -19   1   23.64    2.94
   8 -19   0    5.24    2.51
  -8 -19   0    6.05    2.15
   8 -19   1   35.75    4.12
  -8 -19  -1   35.86    3.52
   8 -19   2   31.13    3.88
  -8 -19  -2   29.28    3.31
   8 -19   3   76.77    5.78
  -8 -19  -3   67.99    5.10
   8 -19   4    1.80    2.07
  -8 -19  -4    1.75    1.83
   8 -19   5    2.67    1.98
  -8 -19  -5    0.63    2.17
   8 -19   6    3.19    2.13
  -8 -19  -6    3.16    2.00
   8 -19   7   27.48    3.91
   8 -19   8    1.13    2.32
   8 -19   9   11.56    3.01
  -8 -20   2   -0.91    1.51
  -8 -20   1   17.09    2.76
  -8 -20   0   16.71    2.67
  -8 -20  -1   20.43    3.03
  -8 -20  -2    3.54    1.92
  -8 -20  -3   13.21    2.54
  -8 -20  -4    1.78    1.98
  -8 -20  -5    1.55    2.02
  -8 -21   0   -3.88    2.14
  -8 -21  -1   41.75    4.11
  -8 -21  -2    3.23    1.98
  -8 -21  -3    8.36    2.61
   9   0 -21    5.42    2.19
   9   0 -20    3.99    2.40
   9   0 -19    9.73    2.68
   9   0 -18    9.88    2.50
   9   0 -17   -0.49    1.40
   9   0 -16  317.46   10.84
   9   0 -16  331.10    7.20
   9   0 -15   -1.14    1.31
   9   0 -15    0.03    0.71
   9   0 -14   16.06    2.40
   9   0 -14   14.96    1.39
   9   0 -13    0.31    1.26
   9   0 -13   -0.18    1.29
   9   0 -13   -0.49    0.72
   9   0 -12  829.05   18.46
   9   0 -12  841.58   17.66
   9   0 -12  863.48   16.15
   9   0 -11    6.01    1.56
   9   0 -11    5.75    1.39
   9   0 -11    5.33    1.16
   9   0 -10  598.44   14.15
   9   0 -10  620.45   13.36
   9   0 -10  634.52   12.98
   9   0  -9   52.29    2.91
   9   0  -9   52.57    3.30
  -9   0   9   47.21    2.21
   9   0  -9   48.99    2.88
   9   0  -8  907.17   17.19
  -9   0   8  900.71   16.09
   9   0  -8  933.95   17.63
  -9   0   7    3.32    0.91
  -9   0   7    4.26    0.90
   9   0  -7    4.28    1.17
  -9   0   6  743.97   14.87
  -9   0   6  751.62   14.10
   9   0  -6  764.75   15.29
  -9   0   5    0.34    0.80
   9   0  -5   -0.61    1.12
   9   0  -4   73.45    3.57
  -9   0   4   62.51    3.23
  -9   0   3    1.79    1.09
   9   0  -3    1.69    1.18
   9   0  -2 1008.13   19.43
  -9   0   2  979.14   19.23
   9   0  -1    1.09    1.16
  -9   0   1    3.08    1.23
  -9   0   0    4.19    1.35
   9   0   0    3.88    1.48
  -9   0  -1    0.03    1.04
   9   0   1    1.04    1.22
   9   0   2   78.87    4.13
  -9   0  -2   79.52    4.16
  -9   0  -3   14.79    2.02
   9   0   3    9.54    1.91
  -9   0  -4  516.11   12.67
   9   0   4  464.60   12.00
  -9   0  -5   14.59    2.16
   9   0   5    8.73    1.92
   9   0   6 2235.38   41.78
  -9   0  -6 2574.42   43.11
   9   0   7    9.52    1.36
   9   0   7    6.66    1.70
   9   0   8  255.18    8.54
   9   0   8  264.60    7.21
   9   0   9   -0.03    1.37
   9   0   9    1.47    1.18
   9   0   9    1.11    1.01
   9   0  10   99.50    4.93
   9   0  10   99.95    4.41
   9   0  11    0.79    1.49
   9   0  11    1.72    1.27
   9   0  12    5.83    1.84
   9   0  12    5.18    1.49
   9   0  13    1.24    1.57
   9   0  14   51.61    4.14
   9   0  15   -0.44    1.59
   9   0  16   88.98    5.75
   9   0  17   -0.41    1.90
   9   0  18  206.12    9.48
   9   0  19    3.94    2.30
   9   1 -22    5.84    2.39
   9  -1 -21    2.15    2.29
   9   1 -21   -3.01    2.06
   9   1 -20   11.63    2.54
   9  -1 -20   18.07    3.04
   9  -1 -19    6.03    2.31
   9   1 -19    2.20    1.79
   9   1 -18   12.18    2.61
   9  -1 -18    6.18    2.22
   9   1 -17    6.30    1.92
   9  -1 -17    3.23    1.61
   9  -1 -17    0.77    0.93
   9   1 -16    5.05    1.64
   9  -1 -16    3.96    1.58
   9   1 -16    3.92    0.47
   9  -1 -16    2.68    0.76
   9  -1 -15  181.04    7.64
   9   1 -15  186.30    7.67
   9   1 -15  191.85    4.34
   9  -1 -15  193.90    5.43
   9   1 -14   48.10    3.71
   9  -1 -14   43.94    3.60
   9   1 -14   48.10    3.31
   9   1 -14   49.57    2.06
   9  -1 -14   51.52    2.60
   9  -1 -13   16.44    2.37
   9   1 -13   15.75    2.03
   9   1 -13   15.25    2.38
   9  -1 -13   14.84    1.98
   9   1 -13   12.89    1.18
   9  -1 -13   16.93    1.62
   9  -1 -12    3.05    1.57
   9   1 -12    2.83    1.16
   9   1 -12    2.19    1.38
   9  -1 -12    3.44    1.31
   9   1 -12    1.64    0.72
   9  -1 -12    3.86    1.02
   9  -1 -11  578.49   14.24
   9   1 -11  597.77   14.18
   9   1 -11  605.03   13.34
   9  -1 -11  604.27   13.67
   9   1 -11  632.36   12.17
   9  -1 -11  609.12   12.58
   9   1 -10   73.88    4.04
   9   1 -10   71.12    3.51
   9  -1 -10   71.42    3.66
   9  -1 -10   73.04    3.40
   9   1 -10   74.26    3.12
   9   1  -9  291.85    7.54
   9  -1  -9  292.89    7.86
   9   1  -9  287.98    8.28
  -9   1   9  296.95    6.93
  -9  -1   9  290.45    6.11
   9  -1  -9  288.01    7.67
   9   1  -9  309.40    7.46
   9   1  -8   26.38    1.92
  -9  -1   8   23.36    1.79
   9   1  -8   25.73    2.28
  -9  -1   8   21.82    1.38
  -9   1   8   21.63    1.68
   9   1  -8   25.28    2.03
   9  -1  -8   24.64    2.14
   9   1  -7  324.97    7.47
  -9  -1   7  315.58    7.71
   9   1  -7  306.99    8.08
  -9  -1   7  320.61    6.89
  -9   1   7  316.24    7.41
   9   1  -7  329.16    7.99
   9  -1  -7  323.35    8.29
  -9  -1   6   45.04    2.57
  -9   1   6   46.96    2.66
  -9  -1   6   45.71    2.19
  -9   1   6   48.56    2.49
   9  -1  -6   47.33    2.86
   9   1  -6   48.63    2.73
  -9   1   5  129.05    4.66
  -9   1   5  124.85    4.25
   9  -1  -5  133.90    5.07
  -9  -1   5  116.62    4.43
   9   1  -5  131.59    4.68
  -9  -1   4    3.06    1.02
  -9   1   4    3.76    1.11
   9  -1  -4    3.42    1.36
   9   1  -4    2.37    1.19
  -9   1   3  300.85    8.26
   9  -1  -3  336.57    8.89
  -9  -1   3  328.55    8.44
   9   1  -3  319.37    8.40
  -9   1   2    9.31    1.59
   9  -1  -2    8.93    1.66
  -9  -1   2    9.41    1.42
   9   1  -2    5.05    1.24
  -9   1   1  435.83   10.86
   9   1  -1  461.32   10.97
  -9  -1   1  480.74   11.16
   9  -1  -1  450.65   11.10
  -9   1   0    5.02    1.30
   9  -1   0    4.06    1.34
  -9  -1   0    2.57    1.19
   9   1   0    5.81    1.49
   9  -1   1   14.86    1.99
  -9  -1  -1   18.18    2.18
   9   1   1   15.60    2.04
  -9   1  -1   13.66    1.86
  -9  -1  -2    0.19    1.06
   9   1   2   -0.74    1.30
  -9   1  -2    1.56    1.22
   9  -1   2    0.78    1.22
   9   1   3   26.48    2.52
  -9   1  -3   26.75    2.56
   9  -1   3   27.22    2.60
  -9  -1  -3   29.17    2.76
  -9   1  -4    5.20    1.59
   9   1   4    4.98    1.54
   9  -1   4    4.13    1.60
  -9  -1  -4    3.87    1.26
   9   1   5  255.91    6.25
   9   1   5  240.34    8.10
  -9  -1  -5  291.48    9.09
  -9   1  -5  293.72    8.86
   9  -1   5  270.70    8.51
   9   1   6   41.65    2.24
   9   1   6   38.76    3.13
  -9  -1  -6   43.34    3.42
   9  -1   6   40.92    3.26
  -9   1  -6   51.08    3.60
   9   1   7 1182.07   21.11
   9   1   7 1154.52   23.71
   9  -1   7 1221.70   24.06
   9  -1   8   59.46    3.45
   9   1   8   54.42    3.34
   9   1   8   56.47    2.94
   9  -1   8   57.80    3.89
   9   1   9   27.62    2.19
   9   1   9   26.89    2.58
   9  -1   9   25.53    2.24
   9  -1   9   27.56    2.95
   9  -1  10   44.45    3.57
   9   1  10   46.85    2.92
   9   1  10   47.05    3.37
   9  -1  10   47.57    3.16
   9   1  11  128.95    5.83
   9  -1  11  124.17    5.98
   9   1  11  124.66    5.08
   9  -1  11  123.81    5.82
   9  -1  11  132.17    5.46
   9  -1  12    5.96    1.63
   9   1  12    8.13    1.58
   9   1  12    6.78    1.73
   9  -1  12   12.71    2.30
   9   1  13   15.27    1.99
   9   1  13   18.69    2.61
   9  -1  13   15.64    2.41
   9   1  14   -0.63    1.61
   9  -1  14   -0.32    1.66
   9  -1  15  145.26    7.23
   9   1  15  142.67    7.11
   9   1  16    2.98    1.80
   9  -1  16   -1.91    2.17
   9   1  17    5.45    2.27
   9  -1  17    2.73    1.86
   9  -1  18   -0.34    2.15
   9   1  18    2.75    2.00
   9  -1  19  139.86    8.01
   9   1  19  146.17    8.07
   9   2 -22   21.10    3.47
   9  -2 -21    0.90    1.98
   9   2 -21    3.74    2.15
   9  -2 -20    7.86    2.44
   9   2 -20    4.53    2.03
   9   2 -19   -0.39    1.56
   9  -2 -19    0.80    1.87
   9   2 -18   -2.94    2.02
   9  -2 -18   -0.45    1.78
   9  -2 -18    0.82    0.84
   9  -2 -17   -1.16    1.72
   9   2 -17   -0.02    1.88
   9  -2 -17    2.62    0.97
   9  -2 -17    2.32    0.95
   9  -2 -16   28.67    3.27
   9   2 -16   27.57    3.05
   9  -2 -16   30.14    2.06
   9  -2 -15    1.55    0.79
   9  -2 -15    3.08    1.67
   9   2 -15    6.59    1.71
   9  -2 -14    0.50    0.88
   9  -2 -14    0.04    1.35
   9   2 -14   -0.89    1.40
   9   2 -14   -0.40    1.11
   9  -2 -13   18.95    1.70
   9  -2 -13   19.84    2.57
   9   2 -13   18.58    2.36
   9   2 -13   17.73    2.10
   9   2 -13   18.96    1.21
   9  -2 -12  335.84    9.42
   9   2 -12  333.94    8.86
   9   2 -12  328.71    9.69
   9  -2 -12  333.30   10.00
   9   2 -12  303.35    6.82
   9  -2 -12  338.37    8.20
   9   2 -11  109.49    5.04
   9   2 -11  116.10    4.57
   9  -2 -11  121.86    5.08
   9   2 -11  110.77    3.54
   9  -2 -11  111.77    4.29
   9   2 -10   15.91    1.71
   9   2 -10   15.09    1.91
   9  -2 -10   11.40    1.67
   9   2 -10   13.59    1.33
   9  -2 -10   12.76    1.59
  -9  -2   9   18.73    1.48
   9   2  -9   18.16    1.64
   9   2  -9   22.59    2.17
  -9   2   9   20.14    1.71
   9  -2  -9   19.09    1.90
   9   2  -9   22.19    1.66
   9   2  -8  125.42    4.11
  -9  -2   8  123.78    4.09
   9   2  -8  125.06    4.72
  -9   2   8  125.11    4.19
  -9  -2   8  125.81    3.23
   9  -2  -8  128.23    4.71
   9   2  -8  126.03    4.18
   9   2  -7    8.56    1.12
  -9  -2   7    6.17    1.07
   9   2  -7    6.44    1.17
  -9   2   7    6.70    1.07
  -9  -2   7    5.40    0.77
   9  -2  -7    7.30    1.41
   9   2  -7    6.72    1.11
  -9   2   6  939.59   18.04
   9   2  -6  930.12   16.29
   9   2  -6  948.61   17.51
  -9   2   6  946.81   17.47
   9   2  -6  936.93   17.58
   9  -2  -6  975.25   18.32
  -9  -2   6  868.47   17.37
   9   2  -5  142.31    3.79
  -9   2   5  146.76    5.13
   9   2  -5  141.52    4.44
  -9   2   5  143.77    4.77
   9   2  -5  142.88    4.88
   9  -2  -5  152.54    5.35
  -9  -2   5  142.68    4.84
  -9   2   4   75.17    3.61
  -9   2   4   68.90    3.21
  -9  -2   4   76.32    3.53
   9   2  -4   73.01    3.50
   9  -2  -4   74.14    3.79
  -9   2   3   35.96    2.61
   9   2  -3   35.63    2.50
   9  -2  -3   34.67    2.69
  -9  -2   3   37.59    2.54
  -9   2   2  356.33    9.45
   9   2  -2  355.24    9.23
   9  -2  -2  387.13   10.04
  -9  -2   2  414.77    9.93
  -9   2   1    0.21    1.04
  -9  -2   1    2.28    1.13
   9   2  -1    3.13    1.27
   9  -2  -1    2.92    1.37
   9   2   0   74.92    3.84
  -9   2   0   79.18    4.00
  -9  -2   0   82.85    4.17
   9  -2   0   68.50    3.92
  -9   2  -1    2.20    1.22
   9  -2   1    0.38    1.30
   9   2   1    1.47    1.23
  -9  -2  -1    3.69    1.21
  -9   2  -2   16.53    2.00
   9  -2   2   16.54    2.17
   9   2   2   11.66    1.96
  -9  -2  -2   16.31    2.06
   9  -2   3    3.94    1.45
   9   2   3    4.38    1.38
  -9  -2  -3    6.34    1.60
  -9   2  -3    6.83    1.51
   9   2   4   82.03    2.67
   9   2   4   88.34    4.47
   9  -2   4   89.32    4.60
  -9   2  -4   98.71    4.74
  -9  -2  -4   97.56    4.83
   9   2   5   19.49    1.77
   9   2   5   21.55    1.40
   9   2   5   20.04    2.26
  -9   2  -5   26.02    2.61
  -9  -2  -5   21.46    2.39
   9  -2   5   22.77    2.54
   9   2   6  888.28   17.65
   9   2   6  874.93   16.33
  -9   2  -6 1036.85   20.45
   9  -2   6  961.76   19.90
  -9  -2  -6  978.32   20.17
   9   2   7   48.64    2.41
   9   2   7   49.11    2.95
   9  -2   7   52.26    3.74
   9   2   8    5.14    1.37
   9   2   8    5.47    1.09
   9  -2   8    6.78    1.81
   9   2   9  106.40    4.85
   9  -2   9  108.49    4.80
   9   2   9  100.80    4.00
   9  -2   9  114.77    5.56
   9  -2  10    1.75    1.06
   9   2  10    1.34    0.93
   9   2  10    4.19    1.51
   9  -2  10    2.33    1.41
   9   2  11   53.97    3.73
   9  -2  11   52.84    3.94
   9  -2  11   53.97    3.54
   9   2  11   51.69    3.12
   9  -2  12   16.40    2.51
   9   2  12   15.01    1.95
   9   2  12   13.95    2.35
   9  -2  12   15.03    2.33
   9  -2  13  189.09    7.89
   9   2  13  182.20    6.68
   9   2  13  196.79    7.82
   9  -2  14   14.19    2.56
   9   2  14   15.39    2.62
   9  -2  15    1.19    1.71
   9   2  15    2.68    1.76
   9   2  16   68.97    5.07
   9  -2  16   73.82    5.35
   9  -2  17    9.12    2.48
   9   2  17    8.04    3.49
   9  -2  18   69.91    5.52
   9   2  18   74.79    5.64
   9  -2  19   37.42    4.32
   9   2  19   40.34    4.27
   9  -3 -21   27.52    3.70
   9   3 -21   43.37    4.48
   9  -3 -20    5.08    2.36
   9   3 -20    6.32    2.27
   9  -3 -19   67.76    5.38
   9   3 -19   68.56    5.16
   9  -3 -18   95.61    6.09
   9   3 -18   92.42    5.85
   9  -3 -18  107.06    4.43
   9  -3 -18  100.59    4.03
   9   3 -17   94.21    5.66
   9  -3 -17   90.79    5.76
   9  -3 -17  102.13    4.25
   9  -3 -17  101.98    4.07
   9   3 -16   57.35    4.35
   9  -3 -16   58.51    4.52
   9  -3 -16   64.60    3.27
   9  -3 -16   61.16    3.14
   9   3 -15   93.49    5.30
   9  -3 -15   82.06    5.29
   9  -3 -15   95.54    4.00
   9  -3 -15   91.37    3.91
   9   3 -14    7.38    1.93
   9  -3 -14    4.27    1.51
   9  -3 -14    5.43    1.17
   9   3 -13  141.21    6.17
   9  -3 -13  147.62    5.13
   9   3 -12    2.96    1.35
   9   3 -12    1.75    1.06
   9  -3 -12    2.08    1.00
   9  -3 -12    1.98    1.18
   9   3 -11   11.31    1.89
   9   3 -11    8.02    1.40
   9  -3 -11   10.12    1.58
   9  -3 -11    7.65    1.45
   9   3 -10   41.90    2.47
   9   3 -10   41.86    2.98
   9   3 -10   41.01    2.07
   9  -3 -10   42.20    2.71
  -9  -3   9    1.39    0.63
   9  -3  -9    2.48    1.20
   9   3  -9    2.41    1.19
   9   3  -9    0.71    0.76
   9   3  -9    1.50    0.83
  -9   3   9    0.76    0.83
   9  -3  -8   10.81    1.64
  -9  -3   8   10.41    1.18
   9   3  -8   11.98    1.24
   9   3  -8   12.61    1.65
  -9   3   8   12.22    1.35
  -9  -3   8   11.70    0.79
   9   3  -8   11.53    1.35
   9   3  -7  236.41    5.56
   9   3  -7  241.01    6.58
  -9   3   7  246.77    6.65
  -9  -3   7  235.23    5.08
   9   3  -7  237.88    6.22
   9  -3  -7  241.40    6.95
  -9  -3   7  222.94    6.16
   9   3  -6    5.21    0.81
   9   3  -6    4.12    1.01
  -9   3   6    5.07    1.09
   9   3  -6    4.05    0.98
   9  -3  -6    4.97    1.30
  -9  -3   6    4.74    1.06
  -9   3   5  435.71   10.29
   9   3  -5  417.87    7.85
   9   3  -5  423.88    8.95
  -9   3   5  424.07    9.86
   9   3  -5  394.18    9.46
   9  -3  -5  444.77   10.48
  -9  -3   5  427.74    9.84
  -9   3   4    1.04    1.09
   9   3  -4    0.63    0.47
   9   3  -4    2.69    0.82
  -9   3   4    1.92    1.03
  -9  -3   4    1.20    1.00
   9  -3  -4    1.39    1.12
   9   3  -4    1.19    1.08
  -9   3   3    3.41    1.19
   9   3  -3    2.45    0.70
  -9   3   3    2.15    1.02
  -9  -3   3    4.12    1.22
   9   3  -3    3.29    1.26
   9  -3  -3    3.12    1.30
   9   3  -2   12.40    0.95
  -9   3   2   13.86    1.78
   9  -3  -2   14.95    2.12
   9   3  -2   13.27    1.85
  -9  -3   2   16.76    1.89
  -9   3   1  126.62    5.11
   9   3  -1  130.63    3.04
   9   3  -1  126.70    4.92
   9  -3  -1  148.49    5.67
  -9  -3   1  139.72    5.35
  -9   3   0    5.06    1.36
   9   3   0    5.32    1.44
  -9  -3   0    6.03    1.42
   9  -3   0    3.44    1.50
   9   3   1  139.38    5.39
  -9   3  -1  141.41    5.56
   9  -3   1  144.45    5.94
  -9  -3  -1  149.02    5.66
   9   3   2    4.47    0.45
   9   3   2    4.81    0.84
  -9   3  -2    4.24    1.35
  -9  -3  -2    3.88    1.39
   9  -3   2    3.72    1.53
   9   3   3    2.26    0.81
   9   3   3    1.88    0.44
  -9   3  -3    2.85    1.32
  -9  -3  -3    2.43    1.35
   9  -3   3    1.63    1.48
   9   3   4    3.84    0.61
   9   3   4    3.88    1.02
  -9   3  -4    2.40    1.27
   9  -3   4    2.34    1.49
  -9  -3  -4    0.98    1.13
   9   3   5   65.01    2.26
   9   3   5   70.53    3.14
  -9   3  -5   76.22    4.22
   9  -3   5   77.52    4.34
  -9  -3  -5   76.16    4.26
   9   3   6  110.89    3.38
   9   3   6  111.73    4.25
   9  -3   6  121.83    5.55
  -9   3  -6  134.57    5.71
   9   3   7  484.99    9.92
   9   3   7  498.26   11.35
   9  -3   7  526.48   13.20
   9   3   8   93.76    3.48
   9   3   8   95.64    4.32
   9  -3   8   97.38    5.15
   9   3   9    5.09    1.42
   9   3   9    3.13    1.01
   9  -3   9    4.10    1.73
   9   3  10   50.57    3.41
   9  -3  10   46.84    3.27
   9   3  10   45.56    2.69
   9  -3  10   50.54    3.81
   9   3  11   22.38    2.47
   9  -3  11   25.20    2.91
   9   3  12   14.97    2.28
   9  -3  12    7.95    1.86
   9   3  13  323.24   10.30
   9  -3  13  298.31   10.21
   9   3  14  100.25    5.60
   9  -3  14   95.52    5.72
   9   3  15   13.28    2.52
   9  -3  15   12.43    2.66
   9   3  16    2.90    1.77
   9  -3  16   -1.55    1.82
   9   3  17    5.81    2.19
   9  -3  17    5.48    2.10
   9   3  18    5.88    1.90
   9  -3  18    3.15    2.20
   9   3  19   46.87    4.68
   9  -3  19   48.68    4.92
   9  -4 -21    1.75    2.16
   9   4 -21    3.41    2.30
   9  -4 -20   26.53    3.54
   9   4 -20   28.30    3.70
   9  -4 -19   32.30    2.70
   9  -4 -19   28.70    3.57
   9   4 -19   36.18    3.97
   9  -4 -18  456.89   10.81
   9  -4 -18  456.59   11.25
   9   4 -18  438.94   13.80
   9  -4 -18  436.77   14.03
   9  -4 -17   43.24    2.82
   9  -4 -17   46.90    3.07
   9  -4 -17   43.50    4.13
   9   4 -17   42.21    3.87
   9  -4 -16   23.51    2.10
   9  -4 -16   26.95    2.32
   9  -4 -16   22.80    3.09
   9   4 -16   22.20    2.78
   9  -4 -15   57.61    3.24
   9  -4 -15   58.20    3.34
   9   4 -15   55.04    4.09
   9  -4 -15   48.67    4.09
   9  -4 -14   31.88    2.43
   9  -4 -14   35.71    2.61
   9   4 -14   34.06    3.18
   9  -4 -13   23.75    2.16
   9  -4 -13   25.78    2.24
   9   4 -13   25.26    2.67
   9   4 -12   80.11    4.39
   9  -4 -12   83.62    3.92
   9   4 -11   12.17    1.83
   9  -4 -11   12.91    1.76
   9   4 -10  486.25   11.71
  -9  -4  10  489.21    9.47
   9  -4 -10  495.55   11.42
   9  -4  -9   -0.05    1.06
  -9  -4   9    0.73    0.62
   9   4  -9   -1.12    1.03
  -9   4   9    0.66    0.90
   9   4  -8  106.46    4.20
  -9   4   8  101.68    4.07
  -9  -4   8  105.87    2.30
   9  -4  -8  113.24    4.63
  -9  -4   8   98.51    3.59
   9  -4  -7    1.43    1.20
   9   4  -7   -0.16    0.81
  -9   4   7    0.20    0.84
  -9  -4   7    0.44    0.81
   9   4  -6  195.52    5.44
  -9   4   6  205.08    6.19
   9  -4  -6  203.25    6.45
  -9  -4   6  190.88    5.74
   9   4  -5    5.05    1.00
  -9   4   5    4.97    1.19
  -9  -4   5    2.55    0.84
   9  -4  -5    4.82    1.43
   9   4  -4  120.03    3.52
  -9   4   4  122.03    4.72
  -9  -4   4  132.11    4.89
   9  -4  -4  123.56    4.98
  -9   4   3   16.88    1.96
   9   4  -3   16.07    1.08
  -9   4   3   14.65    1.73
  -9  -4   3   15.30    1.83
   9  -4  -3   15.64    2.00
   9   4  -2  281.61    5.44
  -9   4   2  307.10    8.47
  -9  -4   2  296.82    8.17
   9  -4  -2  300.69    8.47
  -9   4   1    6.00    1.43
  -9  -4   1    3.72    1.17
   9  -4  -1    4.75    1.35
   9   4   0 1060.29   17.15
  -9   4   0 1093.98   21.47
   9  -4   0 1148.55   21.94
  -9  -4   0 1147.71   21.48
  -9   4  -1    5.80    1.42
   9   4   1    3.33    0.63
   9  -4   1    4.01    1.55
  -9  -4  -1    4.00    1.32
  -9   4  -2   98.58    4.66
   9   4   2   96.60    3.00
   9  -4   2  104.05    5.15
  -9  -4  -2  110.70    4.88
  -9   4  -3    2.92    1.12
   9   4   3    4.20    0.89
  -9  -4  -3    1.36    1.01
   9  -4   3    3.70    1.56
   9   4   4  875.54   16.24
  -9  -4  -4  955.02   19.30
  -9   4  -4  882.51   19.05
   9  -4   4  914.15   19.44
   9   4   5  172.75    5.17
  -9   4  -5  183.77    6.86
  -9  -4  -5  184.88    6.83
   9  -4   5  172.82    6.89
   9   4   6    7.06    1.34
   9  -4   6    8.08    1.71
   9   4   7    0.90    1.08
   9  -4   7    0.90    1.44
   9   4   8  174.15    5.98
   9  -4   8  176.67    7.07
   9   4   9   47.92    3.20
   9  -4   9   47.69    3.77
   9   4  10   18.03    2.23
   9  -4  10   18.40    2.58
   9   4  11   10.35    2.03
   9  -4  11    8.36    2.11
   9   4  12  299.91    9.56
   9  -4  12  298.69   10.15
   9   4  13    2.25    1.41
   9  -4  13    1.42    1.52
   9   4  14  154.79    6.93
   9  -4  14  145.41    6.88
   9   4  15   47.45    4.01
   9  -4  15   51.28    4.53
   9   4  16   53.38    4.53
   9  -4  16   57.25    4.94
   9   4  17    0.74    1.68
   9  -4  17    5.35    2.21
   9   4  18   21.07    3.22
   9  -4  18   15.72    3.11
   9   4  19    2.82    2.13
   9  -5 -20   -2.27    2.08
   9  -5 -19  248.59    8.09
   9  -5 -19  233.55   10.03
   9  -5 -18   19.32    1.99
   9  -5 -18   20.80    2.41
   9  -5 -18   21.99    3.34
   9  -5 -17  531.17   12.53
   9  -5 -17  541.89   12.94
   9   5 -17  519.20   14.95
   9  -5 -17  495.56   15.23
   9  -5 -16   11.28    1.89
   9  -5 -16   10.70    1.92
   9   5 -16   11.83    2.26
   9  -5 -16   14.25    2.68
   9  -5 -15   51.32    3.29
   9  -5 -15   56.30    3.43
   9   5 -15   48.61    3.79
   9  -5 -14   28.47    2.46
   9  -5 -14   27.28    2.49
   9   5 -14   24.97    2.82
   9  -5 -13   18.40    2.00
   9  -5 -13   23.35    2.31
   9   5 -13   23.14    2.55
   9  -5 -12   28.09    2.38
   9  -5 -12   26.88    2.38
   9   5 -12   27.30    2.65
   9   5 -11    1.22    1.19
   9  -5 -11    1.04    1.11
   9   5 -10    7.69    1.52
   9  -5 -10   10.16    1.67
  -9  -5  10    7.20    0.83
   9  -5  -9  533.03   12.05
   9   5  -9  503.36   11.51
  -9   5   9  514.29   11.62
  -9  -5   9  470.54    9.91
   9  -5  -8   31.96    2.54
   9   5  -8   33.63    2.31
  -9   5   8   31.92    2.39
  -9  -5   8   30.79    1.91
   9   5  -7   86.05    3.53
  -9   5   7   88.11    3.97
   9  -5  -7   86.25    4.13
  -9  -5   7   84.42    3.44
   9  -5  -6   -1.12    1.20
   9   5  -6    3.03    0.98
  -9   5   6    1.70    0.94
  -9  -5   6   -0.04    0.79
   9   5  -5  765.89   14.18
  -9   5   5  811.92   16.26
  -9  -5   5  761.20   15.72
   9  -5  -5  795.08   16.45
  -9   5   4   46.85    2.97
   9  -5  -4   44.34    3.05
  -9  -5   4   43.38    2.74
  -9   5   3  404.24   10.15
   9  -5  -3  400.62   10.32
  -9  -5   3  390.26    9.77
  -9   5   2   16.74    2.01
  -9   5   2   15.71    1.92
  -9  -5   2   15.63    1.81
   9  -5  -2   13.23    2.01
  -9   5   1 1159.13   22.60
   9  -5  -1 1170.21   22.85
  -9  -5   1 1158.46   22.22
  -9   5   0   29.13    2.53
  -9  -5   0   32.63    2.60
   9  -5   0   32.47    2.74
  -9   5  -1  768.19   16.78
   9  -5   1  764.14   16.93
  -9  -5  -1  784.51   16.57
   9   5   2    2.18    0.63
  -9   5  -2    2.34    1.24
   9  -5   2    0.70    1.33
  -9  -5  -2    2.65    1.23
   9   5   3  140.67    3.91
  -9   5  -3  139.14    5.71
   9  -5   3  142.11    6.19
  -9  -5  -3  151.27    5.90
  -9   5  -4   41.11    3.09
   9   5   4   40.15    2.11
  -9  -5  -4   40.99    3.16
   9  -5   4   36.51    3.26
   9   5   5  437.90    9.44
   9  -5   5  433.38   12.05
   9   5   6   24.38    1.97
   9  -5   6   25.84    2.82
   9   5   7   34.49    2.46
   9  -5   7   39.86    3.46
   9   5   8   34.73    2.54
   9  -5   8   35.82    3.30
   9   5   9   66.68    3.72
   9  -5   9   67.73    4.46
   9   5  10    1.57    1.18
   9  -5  10    0.76    1.46
   9   5  11   80.06    4.48
   9  -5  11   91.45    5.30
   9   5  12   59.81    4.07
   9  -5  12   57.37    4.29
   9   5  13  618.17   15.54
   9  -5  13  606.16   16.05
   9   5  14   18.51    2.73
   9  -5  14   13.86    2.24
   9   5  15   28.86    3.21
   9  -5  15   23.03    3.08
   9   5  16    6.48    2.15
   9  -5  16    7.74    2.33
   9   5  17   13.73    2.72
   9  -5  17   12.71    2.63
   9   5  18    0.65    1.78
   9  -5  18   -3.34    2.60
   9   5  19   -3.40    2.20
   9  -6 -20   14.97    3.10
   9  -6 -19    0.99    1.22
   9  -6 -19    0.43    1.31
   9  -6 -19    3.02    2.26
   9  -6 -18  622.91   14.62
   9  -6 -18  648.21   15.24
   9  -6 -18  616.11   17.71
   9  -6 -17   13.09    1.97
   9  -6 -17   13.45    2.19
   9  -6 -17   14.87    2.82
   9  -6 -16  161.54    6.26
   9  -6 -16  153.05    6.25
   9  -6 -15   14.95    2.19
   9  -6 -15   17.45    2.35
   9  -6 -14  346.48    9.70
   9  -6 -14  339.33    9.70
   9  -6 -13   11.35    1.89
   9  -6 -13   11.45    1.79
   9  -6 -12    3.64    1.43
   9  -6 -12    5.80    1.45
   9  -6 -11   41.80    3.05
  -9  -6  11   40.50    1.58
   9  -6 -11   45.43    3.17
   9  -6 -10  310.97    8.82
  -9  -6  10  297.28    6.46
   9  -6  -9   29.59    2.52
  -9   6   9   27.75    2.34
  -9  -6   9   27.23    1.71
   9  -6  -8  436.89   11.01
  -9   6   8  431.58   10.73
  -9  -6   8  433.10    9.43
   9  -6  -7    0.43    1.21
  -9   6   7    4.74    1.30
  -9  -6   7    2.66    0.91
   9  -6  -6  216.90    7.07
  -9   6   6  230.16    7.12
  -9  -6   6  203.72    6.22
   9  -6  -5    4.62    1.47
  -9   6   5    4.15    1.45
  -9  -6   5    3.00    0.99
  -9   6   4  605.81   13.58
  -9  -6   4  584.52   12.84
   9  -6  -4  598.63   13.82
   9  -6  -3   15.74    2.18
  -9   6   3   16.48    2.07
  -9  -6   3   19.54    1.96
  -9   6   2  543.98   12.76
  -9  -6   2  529.85   12.20
   9  -6  -2  526.79   12.74
  -9   6   1   38.17    2.94
  -9   6   1   38.65    2.96
  -9  -6   1   38.45    2.80
   9  -6  -1   39.77    3.09
  -9   6   0 2825.97   47.88
  -9   6   0 2741.73   47.51
   9  -6   0 2748.87   47.71
  -9  -6   0 2835.81   47.28
  -9   6  -1   47.94    3.28
  -9  -6  -1   51.90    3.31
   9  -6   1   46.67    3.42
  -9   6  -2    3.86    1.45
   9  -6   2   -0.59    1.43
  -9  -6  -2    2.53    1.25
  -9   6  -3    0.15    1.08
   9  -6   3    2.37    1.53
  -9  -6  -3    0.94    1.09
   9  -6   4  281.68    9.28
   9  -6   5   15.34    2.44
   9   6   6  124.62    4.40
   9  -6   6  123.21    5.97
   9   6   7    4.67    1.26
   9  -6   7    2.49    1.53
   9   6   8   64.01    3.46
   9  -6   8   71.89    4.59
   9   6   9    0.47    1.27
   9  -6   9    2.42    1.74
   9   6  10   43.54    3.14
   9  -6  10   41.55    3.63
   9   6  11  124.27    5.59
   9  -6  11  122.44    6.23
   9   6  12  306.68    9.72
   9  -6  12  323.14   10.66
   9   6  13   20.89    2.69
   9  -6  13   22.20    2.83
   9   6  14  357.80   11.29
   9  -6  14  364.25   11.74
   9   6  15    3.17    1.67
   9  -6  15    0.92    1.66
   9   6  16    0.70    1.77
   9  -6  16   -1.87    1.67
   9  -6  16    1.23    1.73
   9  -6  17    1.92    2.07
   9  -6  18   29.15    4.19
   9  -7 -20   16.42    2.42
   9  -7 -20   12.77    2.97
   9  -7 -19  151.31    6.33
   9  -7 -19  165.35    6.92
   9  -7 -19  158.71    8.42
   9  -7 -18    3.93    1.59
   9  -7 -18    5.46    1.85
   9  -7 -18    4.89    2.20
   9  -7 -17  330.93    9.91
   9  -7 -17  346.30   10.34
   9  -7 -17  285.16   11.18
   9  -7 -16   54.19    3.78
   9  -7 -16   62.69    4.15
   9  -7 -15   47.28    3.51
   9  -7 -15   51.12    3.69
   9  -7 -14    5.22    1.50
   9  -7 -14    4.36    1.49
   9  -7 -13  189.02    6.93
   9  -7 -13  190.46    7.01
   9  -7 -12    3.74    1.62
   9  -7 -12    1.95    1.33
  -9  -7  11  108.67    2.88
   9  -7 -11  118.36    5.27
   9  -7 -11  108.55    5.00
  -9  -7  10    4.51    0.79
   9  -7 -10    4.88    1.55
   9  -7  -9  221.27    7.42
  -9   7   9  210.58    7.08
  -9  -7   9  217.62    5.66
   9  -7  -8    5.73    1.47
  -9   7   8    6.39    1.39
  -9  -7   8    6.53    1.17
   9  -7  -7  229.09    7.48
  -9   7   7  218.51    7.05
  -9  -7   7  222.11    6.31
   9  -7  -6   68.64    3.94
  -9   7   6   74.51    3.93
  -9  -7   6   69.77    3.30
   9  -7  -5  501.13   12.37
  -9   7   5  510.99   12.31
  -9  -7   5  489.06   11.15
   9  -7  -4   12.72    2.01
  -9   7   4   12.74    1.74
  -9  -7   4   12.50    1.57
  -9   7   3  166.59    6.22
   9  -7  -3  170.82    6.50
  -9  -7   3  169.99    5.78
   9  -7  -2   33.10    2.93
  -9   7   2   30.84    2.77
  -9  -7   2   38.39    2.75
  -9   7   1  565.55   13.55
   9  -7  -1  552.40   13.51
  -9  -7   1  574.60   13.08
  -9   7   0    6.32    1.72
   9  -7   0    6.51    1.76
  -9  -7   0    5.08    1.29
  -9   7  -1  187.64    6.91
   9  -7   1  189.71    7.05
  -9  -7  -1  205.15    6.96
   9  -7   2   -0.30    1.44
  -9  -7  -2    0.36    1.00
   9  -7   3  298.50    9.38
   9  -7   4    3.11    1.70
   9  -7   5  349.78   10.79
   9  -7   6   88.90    5.24
   9  -7   7  357.69   11.23
   9  -7   8   35.19    3.36
   9  -7   9   45.71    3.88
   9  -7  10    6.67    2.07
   9  -7  11    0.49    1.65
   9  -7  12   24.67    3.13
   9  -7  13  378.41   12.04
   9  -7  14   24.23    3.13
   9  -7  15   17.40    2.84
   9  -7  16    9.42    2.25
   9  -7  17    0.48    1.69
   9  -7  17    5.19    2.27
   9  -8 -20    9.83    2.20
   9  -8 -19   33.46    3.14
   9  -8 -19   32.75    3.18
   9  -8 -19   29.73    3.90
   9  -8 -18  173.38    7.16
   9  -8 -18  183.18    7.56
   9  -8 -18  179.37    8.70
   9  -8 -17  106.10    5.44
   9  -8 -17  112.11    5.81
   9  -8 -16   11.29    2.13
   9  -8 -16   12.84    2.31
   9  -8 -15   26.98    2.89
   9  -8 -15   18.37    2.46
   9  -8 -14   11.87    2.11
   9  -8 -14   10.55    2.03
   9  -8 -13    5.35    1.74
   9  -8 -13    6.99    1.89
   9  -8 -12  120.47    5.63
   9  -8 -12  118.82    5.53
   9  -8 -11   -0.49    1.38
  -9  -8  11    1.01    0.52
   9  -8 -11    0.30    1.38
   9  -8 -10    8.31    1.91
   9  -8 -10   10.67    2.02
  -9  -8  10    9.58    1.10
   9  -8  -9   19.16    2.35
  -9  -8   9   15.64    1.47
   9  -8  -8   49.15    3.56
  -9  -8   8   46.63    1.24
  -9  -8   8   51.44    2.71
   9  -8  -7    6.42    1.57
  -9  -8   7    6.93    0.78
  -9  -8   7    5.34    0.97
   9  -8  -6  156.84    6.27
  -9   8   6  162.61    6.29
  -9  -8   6  160.83    5.29
   9  -8  -5    4.82    1.60
  -9   8   5    4.12    1.39
  -9  -8   5    4.03    1.08
   9  -8  -4  124.11    5.56
  -9   8   4  125.52    5.47
  -9  -8   4  128.23    4.91
   9  -8  -3   24.23    2.68
  -9  -8   3   21.48    2.08
   9  -8  -2   56.00    3.84
  -9  -8   2   59.64    3.42
   9  -8  -1   23.57    2.53
  -9  -8   1   24.64    2.33
  -9  -8   0  624.87   14.16
   9  -8   0  584.75   14.42
  -9  -8  -1   16.99    2.12
   9  -8   1   15.53    2.26
   9  -8   2    2.68    1.65
   9  -8   3   54.51    3.87
   9  -8   4   42.96    3.52
   9  -8   5    8.20    1.93
   9  -8   6   87.76    5.16
   9  -8   7  185.04    7.91
   9  -8   8   17.42    2.79
   9  -8   9    2.58    1.67
   9  -8  10    4.53    2.04
   9  -8  11   40.55    3.73
   9  -8  12  147.04    7.10
   9  -8  13   30.55    3.51
   9  -8  14   74.17    5.13
   9  -8  15    6.05    1.94
   9  -8  16   15.79    2.73
   9  -8  17    3.94    1.68
   9  -8  18   18.54    2.76
   9  -9 -20    4.80    2.10
   9  -9 -19   14.84    2.34
   9  -9 -19   14.50    2.66
   9  -9 -19   18.09    3.17
   9  -9 -18    2.19    1.68
   9  -9 -18    2.06    1.96
   9  -9 -17    5.40    1.77
   9  -9 -17    6.74    1.98
  -9  -9  16   59.22    3.70
   9  -9 -16   59.94    4.29
   9  -9 -16   61.28    4.46
   9  -9 -15   27.51    3.04
  -9  -9  15   28.58    2.55
   9  -9 -15   28.71    3.07
   9  -9 -14    0.30    1.47
  -9  -9  14   -0.84    1.03
   9  -9 -14   -0.62    1.54
  -9  -9  13   50.77    2.99
   9  -9 -13   53.60    3.97
   9  -9 -13   47.63    3.71
   9  -9 -12    2.69    1.66
  -9  -9  12    0.52    0.88
   9  -9 -12    1.07    1.47
   9  -9 -11  186.63    7.31
   9  -9 -11  186.71    7.22
  -9  -9  11  176.75    4.45
   9  -9 -10   22.86    2.72
   9  -9 -10   25.28    2.66
  -9  -9  10   21.68    1.63
   9  -9  -9    6.07    1.72
  -9  -9   9    6.86    1.18
   9  -9  -8   17.28    2.29
  -9  -9   8   19.61    0.93
  -9  -9   8   19.03    1.67
   9  -9  -7  119.37    5.60
  -9  -9   7  118.96    3.19
  -9  -9   7  112.48    4.33
   9  -9  -6   31.95    3.03
  -9  -9   6   33.40    1.76
  -9  -9   6   32.06    2.37
   9  -9  -5  247.65    8.40
  -9  -9   5  250.91    7.26
   9  -9  -4   12.47    2.10
  -9  -9   4   13.56    1.69
   9  -9  -3   54.98    3.83
  -9  -9   3   54.98    3.31
   9  -9  -2    7.47    1.86
  -9  -9   2    5.77    1.38
  -9  -9   1   43.37    3.09
   9  -9  -1   42.40    3.36
   9  -9   0   13.86    2.24
  -9  -9   0   10.06    1.72
   9  -9   1  101.52    5.18
   9  -9   2   -0.46    1.46
   9  -9   3   20.25    2.76
   9  -9   4    7.48    1.94
   9  -9   5   90.77    5.13
   9  -9   6   10.60    2.42
   9  -9   7  271.33    9.84
   9  -9   8   93.55    5.64
   9  -9   9    3.61    1.83
   9  -9  10    9.29    2.19
   9  -9  11   15.85    2.67
   9  -9  12   14.21    2.61
   9  -9  13   49.66    4.40
   9  -9  14   55.28    4.49
   9  -9  15   82.72    5.49
   9  -9  16    9.95    2.38
   9  -9  17    0.22    1.77
   9  -9  18    5.47    2.18
   9 -10 -20   12.55    2.58
   9 -10 -19   10.58    2.17
   9 -10 -19    9.57    2.50
   9 -10 -18    2.87    1.70
   9 -10 -18    8.73    2.30
   9 -10 -17   28.07    3.25
  -9 -10  17   31.75    3.02
   9 -10 -17   27.00    3.26
  -9 -10  16  159.89    6.29
   9 -10 -16  164.14    7.36
   9 -10 -16  152.13    7.35
   9 -10 -15    0.50    1.56
  -9 -10  15    1.33    1.17
   9 -10 -15   -0.16    1.63
   9 -10 -14    3.11    1.87
  -9 -10  14    5.37    1.25
   9 -10 -14    5.00    1.91
   9 -10 -13   18.34    2.48
  -9 -10  13   17.59    1.83
   9 -10 -13   22.06    2.87
  -9 -10  12  169.97    5.40
   9 -10 -12  164.23    7.13
   9 -10 -12  161.24    7.06
   9 -10 -11    5.22    1.90
  -9 -10  11    3.99    0.99
  -9 -10  11    4.70    1.34
   9 -10 -11    1.72    1.53
  -9 -10  10  137.92    4.19
   9 -10 -10  138.19    6.43
  -9 -10  10  129.44    5.40
   9 -10 -10  136.54    6.26
  -9 -10  10  136.60    4.37
  -9 -10   9   69.68    3.68
  -9 -10   9   71.89    2.62
   9 -10  -9   66.48    4.44
  -9 -10   9   68.95    3.13
   9 -10  -8  185.71    7.41
  -9 -10   8  180.63    5.93
  -9 -10   8  183.44    4.07
  -9 -10   8  185.04    5.68
   9 -10  -7   19.38    2.64
  -9 -10   7   16.31    1.84
  -9 -10   7   17.08    1.29
  -9 -10   7   18.67    1.83
   9 -10  -6  319.24   10.09
  -9 -10   6  315.00    7.74
  -9 -10   6  322.61    7.18
  -9 -10   6  319.19    8.48
   9 -10  -5   28.77    2.97
  -9 -10   5   28.55    2.37
  -9 -10   5   27.72    1.83
   9 -10  -4  156.63    6.56
  -9 -10   4  147.18    4.14
  -9 -10   4  150.60    5.64
   9 -10  -3    3.06    1.71
  -9 -10   3    0.58    1.01
   9 -10  -2  245.31    8.54
  -9 -10   2  246.52    7.86
   9 -10  -1   34.92    3.20
  -9 -10   1   40.05    3.02
   9 -10   0    2.02    1.75
   9 -10   1    5.02    1.65
   9 -10   2   12.61    2.25
   9 -10   3   11.78    2.24
   9 -10   4    0.96    1.58
   9 -10   5   26.82    3.11
   9 -10   6  492.04   13.85
   9 -10   7   40.43    3.85
   9 -10   8  189.13    8.30
   9 -10   9   29.87    3.43
   9 -10  10   84.62    5.49
   9 -10  11   41.70    3.99
   9 -10  12    0.86    1.68
   9 -10  13    5.57    2.04
   9 -10  14   43.71    4.09
   9 -10  15    6.40    2.25
   9 -10  16   80.05    5.54
   9 -10  17    5.60    2.06
   9 -11 -21   16.49    2.89
   9 -11 -20    1.57    2.14
   9 -11 -19    4.29    1.93
   9 -11 -19    9.09    2.56
   9 -11 -18    1.85    1.77
   9 -11 -18    2.18    2.04
   9 -11 -17    3.53    2.12
   9 -11 -17    6.54    2.27
   9 -11 -16    8.95    2.01
   9 -11 -16   17.76    2.93
   9 -11 -15   77.48    5.19
   9 -11 -15   78.35    5.21
   9 -11 -14    4.89    2.01
  -9 -11  14    4.02    1.28
   9 -11 -14    1.76    1.68
  -9 -11  13   80.57    3.78
   9 -11 -13   74.80    5.03
   9 -11 -13   73.17    4.94
  -9 -11  12    8.99    1.40
   9 -11 -12    8.03    2.13
   9 -11 -12    7.39    2.06
  -9 -11  11  365.26    8.45
   9 -11 -11  359.72   11.43
   9 -11 -11  350.21   11.23
  -9 -11  10    8.93    1.30
   9 -11 -10    7.61    1.98
  -9 -11  10    8.50    1.65
   9 -11 -10    4.97    1.83
  -9 -11   9  171.34    4.45
   9 -11  -9  165.49    7.28
  -9 -11   9  160.12    5.90
   9 -11  -9  162.71    7.13
  -9 -11   9  161.70    5.21
   9 -11  -8   25.22    3.08
  -9 -11   8   25.09    1.35
  -9 -11   8   24.60    2.17
  -9 -11   8   23.18    1.34
  -9 -11   8   27.08    2.16
   9 -11  -7  745.52   17.53
  -9 -11   7  691.41   14.45
  -9 -11   7  706.32   14.82
  -9 -11   7  706.86   13.03
   9 -11  -6   16.01    2.58
  -9 -11   6   15.21    1.59
  -9 -11   6   11.69    1.20
  -9 -11   6   13.92    1.72
   9 -11  -5  128.40    6.18
  -9 -11   5  123.08    4.12
  -9 -11   5  124.02    5.10
  -9 -11   5  122.86    4.22
  -9 -11   4    4.80    0.88
   9 -11  -4    6.13    2.09
  -9 -11   4    5.50    1.40
   9 -11  -3  216.57    8.15
  -9 -11   3  213.34    5.11
  -9 -11   3  224.76    7.43
  -9 -11   2   17.11    1.07
   9 -11  -2   19.50    2.72
  -9 -11   2   15.92    2.15
   9 -11  -1   94.52    5.30
   9 -11   0   -0.20    1.57
   9 -11   1   32.08    3.12
   9 -11   2   -1.25    1.48
   9 -11   3   15.54    2.42
   9 -11   4   14.80    2.46
   9 -11   5  420.02   12.59
   9 -11   6   34.85    3.53
   9 -11   7 1032.18   23.47
   9 -11   8    2.17    1.70
   9 -11   9    4.39    2.08
   9 -11  10    0.92    1.74
   9 -11  11    3.56    2.05
   9 -11  12   -0.52    1.68
   9 -11  13    5.66    1.98
   9 -11  14    1.07    1.87
   9 -11  15  158.31    7.89
   9 -11  16    1.14    1.79
   9 -11  17   -0.51    1.76
   9 -12 -20    1.36    1.96
   9 -12 -20    5.72    2.42
   9 -12 -19    3.62    2.04
   9 -12 -19    6.87    2.47
   9 -12 -18    1.66    1.88
   9 -12 -18    0.29    1.99
   9 -12 -17    4.36    2.09
   9 -12 -17    2.54    2.18
   9 -12 -16   57.76    4.73
   9 -12 -16   57.43    4.87
   9 -12 -15   21.39    3.15
   9 -12 -15   19.83    3.85
   9 -12 -14   42.46    4.08
   9 -12 -14   43.41    4.12
   9 -12 -13   30.47    3.47
   9 -12 -13   27.37    3.19
   9 -12 -12  283.18   10.39
   9 -12 -12  291.03   10.34
   9 -12 -11   19.67    2.98
  -9 -12  11   16.71    1.61
   9 -12 -11   16.38    2.74
  -9 -12  10  269.22    6.62
   9 -12 -10  287.22   10.12
   9 -12 -10  277.18    9.88
   9 -12  -9   11.31    2.46
  -9 -12   9   11.64    1.16
   9 -12  -9   12.71    2.41
  -9 -12   9   14.36    1.86
  -9 -12   8  122.25    3.30
   9 -12  -8  122.88    6.43
  -9 -12   8  113.84    4.74
  -9 -12   8  115.02    3.47
  -9 -12   8  116.45    4.65
   9 -12  -7    7.82    2.07
  -9 -12   7    8.88    0.76
  -9 -12   7    7.44    1.35
  -9 -12   7    9.70    1.19
  -9 -12   7   10.61    1.60
   9 -12  -6  437.35   12.66
  -9 -12   6  402.34    9.53
  -9 -12   6  411.02    9.12
  -9 -12   6  405.69   10.49
   9 -12  -5    1.07    1.49
  -9 -12   5    6.13    1.11
  -9 -12   5    3.53    1.03
  -9 -12   5    3.82    1.24
   9 -12  -4   42.22    3.68
  -9 -12   4   37.69    2.53
  -9 -12   4   35.34    2.95
  -9 -12   4   38.74    2.13
  -9 -12   3    6.61    0.95
   9 -12  -3    8.33    2.25
  -9 -12   2  171.83    4.29
   9 -12  -2  179.20    7.52
  -9 -12   1   20.59    1.14
   9 -12  -1   20.65    2.84
  -9 -12   0   17.87    0.85
   9 -12   0   25.23    3.02
   9 -12   1    4.31    1.95
   9 -12   2    9.62    2.11
   9 -12   3    0.82    1.62
   9 -12   4   45.51    3.91
   9 -12   5   35.48    3.66
   9 -12   6  708.58   18.01
   9 -12   7    7.16    2.20
   9 -12   8  156.16    7.64
   9 -12   9    8.18    2.29
   9 -12  10   33.45    3.83
   9 -12  11    7.20    2.27
   9 -12  12   -2.65    1.89
   9 -12  13   21.51    3.45
   9 -12  14   54.40    4.70
   9 -12  15    3.63    1.98
   9 -12  16   44.44    4.40
   9 -13 -19   24.22    3.46
   9 -13 -19   23.12    3.58
   9 -13 -18   21.95    3.25
   9 -13 -18   21.72    3.42
   9 -13 -17    1.19    1.74
   9 -13 -17    0.04    1.82
   9 -13 -16   -0.21    1.97
   9 -13 -16   -3.09    2.13
   9 -13 -15   41.20    4.14
   9 -13 -15   50.96    4.55
   9 -13 -14   17.35    2.85
   9 -13 -14   14.10    2.73
   9 -13 -13   50.95    4.49
   9 -13 -13   48.58    4.36
   9 -13 -12    8.32    2.39
   9 -13 -12    4.27    1.98
   9 -13 -11  164.91    7.81
   9 -13 -11  160.95    7.71
   9 -13 -10   16.95    2.83
   9 -13 -10    9.81    2.26
   9 -13  -9    5.33    2.19
   9 -13  -9    2.97    1.69
   9 -13  -8   23.09    3.08
  -9 -13   8   16.11    1.40
  -9 -13   8   22.74    2.26
   9 -13  -7   84.55    5.43
  -9 -13   7   79.51    3.87
  -9 -13   7   83.03    3.31
  -9 -13   7   82.29    4.12
   9 -13  -6   11.59    2.31
  -9 -13   6   12.21    1.55
  -9 -13   6   11.69    1.49
  -9 -13   6   10.75    1.64
   9 -13  -5   48.82    4.14
  -9 -13   5   49.76    2.82
  -9 -13   5   51.52    3.42
  -9 -13   5   51.91    2.77
   9 -13  -4   12.09    2.29
  -9 -13   4    8.61    1.46
  -9 -13   4   12.69    1.40
   9 -13  -3  150.60    7.10
  -9 -13   3  146.67    5.46
  -9 -13   3  150.64    4.44
  -9 -13   2    7.51    0.98
   9 -13  -2    9.46    2.35
  -9 -13   1   17.11    1.23
   9 -13  -1   18.74    2.70
  -9 -13   0    0.76    0.51
  -9 -13   0    0.37    0.41
   9 -13   0    0.24    1.56
   9 -13   1    6.20    2.07
   9 -13   2    5.99    2.18
   9 -13   3    0.61    1.64
   9 -13   4    3.24    1.62
   9 -13   5   71.64    5.01
   9 -13   6   10.14    2.55
   9 -13   7  105.60    6.22
   9 -13   8    1.15    1.88
   9 -13   9    4.68    2.26
   9 -13  10   -1.53    2.22
   9 -13  11    4.31    2.14
   9 -13  12    1.84    1.79
   9 -13  13   -2.25    2.15
   9 -13  14   28.92    3.70
   9 -13  15   43.02    4.33
   9 -13  16    0.03    1.91
   9 -14 -18  109.75    6.91
   9 -14 -17    3.03    2.40
   9 -14 -17   -0.19    1.86
   9 -14 -16   10.55    2.68
   9 -14 -16    4.61    2.55
   9 -14 -15   21.92    3.31
   9 -14 -15   21.94    3.35
   9 -14 -14    3.49    1.99
   9 -14 -14   -0.85    2.10
   9 -14 -13    4.92    2.21
   9 -14 -13    2.42    2.07
   9 -14 -12   46.21    4.43
   9 -14 -12   41.62    4.22
   9 -14 -11   31.06    3.62
   9 -14 -11   28.03    3.50
   9 -14 -10    4.25    1.95
   9 -14 -10    3.47    1.99
   9 -14  -9   16.69    2.94
   9 -14  -8    0.75    1.70
   9 -14  -7    6.37    2.21
  -9 -14   7    1.98    0.89
   9 -14  -6  191.60    8.42
  -9 -14   6  177.61    5.71
   9 -14  -5   45.03    4.09
  -9 -14   5   43.04    2.80
   9 -14  -4   13.63    2.56
  -9 -14   4   16.31    1.89
   9 -14  -3    1.64    3.98
  -9 -14   3    1.81    1.30
   9 -14  -2    1.99    1.87
  -9 -14   2    3.54    1.29
   9 -14  -1   44.71    4.02
   9 -14   0  117.04    6.42
   9 -14   1   11.81    2.57
   9 -14   2    8.11    2.31
   9 -14   3    6.47    2.18
   9 -14   4    5.99    2.07
   9 -14   5   29.61    3.48
   9 -14   6   39.75    3.93
   9 -14   7    0.25    1.71
   9 -14   8   22.40    3.27
   9 -14   9   16.78    3.03
   9 -14  10   -0.19    1.93
   9 -14  11    2.38    1.93
   9 -14  12   32.33    3.94
   9 -14  13   13.98    2.76
   9 -14  14    4.48    2.14
   9 -14  15   20.48    3.27
   9 -15 -16    8.63    2.52
   9 -15 -15   10.84    2.70
   9 -15 -15    9.18    2.51
   9 -15 -14    4.59    2.30
   9 -15 -14   10.47    2.95
   9 -15 -13    8.64    2.68
   9 -15 -13   10.14    2.64
   9 -15 -12    9.29    2.70
   9 -15 -12    9.67    2.42
   9 -15 -11    3.77    2.28
   9 -15 -11    4.02    2.08
   9 -15 -10   11.95    2.62
   9 -15 -10    5.48    2.04
   9 -15  -9   59.38    4.94
   9 -15  -8    3.05    1.97
   9 -15  -7    6.32    2.37
   9 -15  -6   15.69    2.82
  -9 -15   6   16.38    1.79
   9 -15  -5   70.37    5.13
  -9 -15   5   63.89    3.50
   9 -15  -4    1.15    1.79
  -9 -15   4   -0.40    1.15
   9 -15  -3   -6.16    2.44
  -9 -15   3    1.53    1.27
   9 -15  -2   11.67    2.37
  -9 -15   2    9.56    1.93
   9 -15  -1  155.01    7.67
  -9 -15   1  154.01    6.33
   9 -15   0    8.28    2.25
  -9 -15   0    7.18    1.87
   9 -15   1  126.31    6.88
   9 -15   2   15.05    2.85
   9 -15   3  132.39    7.13
   9 -15   4   17.43    2.98
   9 -15   5    3.09    1.98
   9 -15   6    8.79    2.50
   9 -15   7    1.16    1.78
   9 -15   8    8.45    2.35
   9 -15   9   12.87    2.84
   9 -15  10    0.25    2.00
   9 -15  11   19.10    3.42
   9 -15  12    5.21    2.17
   9 -15  13  119.78    7.26
   9 -15  14   28.59    3.90
   9 -16 -13   -1.46    2.07
   9 -16 -13    4.48    2.23
   9 -16 -12    0.13    1.87
   9 -16 -12    0.30    1.90
   9 -16 -11    8.05    2.59
   9 -16 -11    1.10    1.94
   9 -16 -10   65.09    5.34
   9 -16 -10   66.21    5.19
   9 -16  -9    1.25    1.81
   9 -16  -8  120.86    7.08
   9 -16  -7   20.52    3.29
   9 -16  -6   36.12    4.07
   9 -16  -5    3.00    2.21
  -9 -16   5    4.04    1.31
   9 -16  -4   70.80    5.40
  -9 -16   4   72.58    4.02
   9 -16  -3   -1.42    2.03
  -9 -16   3    0.78    1.18
   9 -16  -2  108.11    6.56
  -9 -16   2  104.41    5.10
   9 -16  -1   20.99    3.17
  -9 -16   1   18.38    2.51
   9 -16   0  249.58   10.05
  -9 -16   0  228.63    8.37
   9 -16   1   29.72    3.57
  -9 -16  -1   26.62    2.94
   9 -16   2    5.66    2.10
   9 -16   3    0.59    1.85
   9 -16   4   92.55    6.13
   9 -16   5    2.88    2.03
   9 -16   6   47.29    4.40
   9 -16   7   -0.17    1.97
   9 -16   8   10.86    2.68
   9 -16   9    2.40    2.03
   9 -16  10    6.29    2.54
   9 -16  11   13.02    3.05
   9 -16  12  140.84    8.21
   9 -16  13   28.97    3.89
   9 -17 -10    7.49    2.84
   9 -17  -9  144.88    8.10
   9 -17  -8    4.28    2.13
   9 -17  -7    1.19    2.01
   9 -17  -6    7.98    2.48
   9 -17  -5  149.13    8.00
   9 -17  -4   12.04    2.94
  -9 -17   4   11.55    1.88
   9 -17  -3   99.18    6.48
  -9 -17   3   92.55    4.91
   9 -17  -2    4.68    2.14
  -9 -17   2    4.63    1.66
   9 -17  -1  328.67   11.99
  -9 -17   1  304.97    9.86
   9 -17   0   16.92    2.92
  -9 -17   0   20.77    2.74
   9 -17   1  132.09    7.32
  -9 -17  -1  112.82    6.17
   9 -17   2    0.23    1.93
  -9 -17  -2    0.22    1.56
  -9 -17  -3   58.37    4.58
   9 -17   3   66.89    5.36
   9 -17   4   -2.08    2.26
   9 -17   5   21.94    3.86
   9 -17   6   -5.55    2.36
   9 -17   7    6.72    2.27
   9 -17   8    1.57    2.10
   9 -17   9    8.98    2.58
   9 -17  10    3.04    2.18
   9 -17  11   54.22    5.36
   9 -17  12    0.99    2.44
   9 -18  -6   43.05    4.67
   9 -18  -5    5.49    2.35
   9 -18  -4   27.74    3.84
   9 -18  -3    6.96    2.59
  -9 -18   3    4.72    1.56
   9 -18  -2   30.10    3.85
  -9 -18   2   35.58    3.37
   9 -18  -1   14.64    2.92
  -9 -18   1    7.78    2.01
   9 -18   0  197.79    9.38
  -9 -18   0  183.30    7.65
   9 -18   1   12.22    2.98
  -9 -18  -1   14.24    2.53
   9 -18   2    6.41    2.30
  -9 -18  -2    3.97    1.88
   9 -18   3   27.04    5.82
  -9 -18  -3   19.22    3.06
  -9 -18  -4   58.82    4.70
   9 -18   4   64.61    5.38
   9 -18   5   16.12    3.23
  -9 -18  -5   15.09    2.83
  -9 -18  -6   15.81    2.84
   9 -18   6   16.03    3.13
   9 -18   7    1.57    1.81
   9 -18   8    7.27    2.68
   9 -18   9   -0.94    1.92
  -9 -19   2    3.21    1.79
  -9 -19   1   57.25    4.36
  -9 -19   0    3.68    1.82
  -9 -19  -1   31.68    3.38
  -9 -19  -2   15.57    2.75
  -9 -19  -3   60.73    4.91
  -9 -19  -4    3.33    1.89
  -9 -19  -5    3.83    2.04
  -9 -20   0   11.38    2.40
  -9 -20  -1   14.15    2.87
  -9 -20  -2    2.43    1.73
  -9 -20  -3    0.68    2.02
  -9 -20  -4    0.10    1.76
  -9 -21  -1   -1.72    1.77
  -9 -21  -2    3.88    2.21
  10   0 -21    1.66    1.74
  10   0 -20   75.70    5.75
  10   0 -19   -1.72    1.73
  10   0 -18   27.38    3.40
  10   0 -17    0.60    1.54
  10   0 -16  156.33    7.39
  10   0 -16  169.94    4.73
  10   0 -15    7.12    2.03
  10   0 -15    7.39    1.04
  10   0 -14  135.13    6.42
  10   0 -14  143.30    4.65
  10   0 -13    1.67    1.48
  10   0 -13    5.04    1.58
  10   0 -13    5.28    1.28
  10   0 -12    2.67    1.44
  10   0 -12    4.24    1.27
  10   0 -12    8.13    1.45
  10   0 -11   -0.04    1.21
  10   0 -11    0.07    0.93
  10   0 -11    1.38    1.01
  10   0 -10   56.49    3.17
  10   0 -10   56.99    3.64
 -10   0  10   56.21    2.36
  10   0 -10   62.92    3.22
  10   0  -9   21.54    2.04
  10   0  -9   20.16    2.26
 -10   0   9   17.59    1.40
  10   0  -9   21.56    2.11
  10   0  -8  206.25    5.99
 -10   0   8  209.95    6.16
 -10   0   8  205.25    5.43
  10   0  -8  216.49    6.53
 -10   0   7    5.21    1.13
 -10   0   7    5.67    0.99
  10   0  -7    6.25    1.47
 -10   0   6  823.46   16.91
 -10   0   6  853.65   16.11
  10   0  -6  905.31   17.46
 -10   0   5   13.42    1.63
  10   0  -5   14.59    1.84
  10   0  -4  156.53    5.70
 -10   0   4  142.16    5.32
 -10   0   3    0.07    1.03
  10   0  -3    0.13    1.14
 -10   0   2  107.71    4.70
  10   0  -2  108.05    4.78
 -10   0   1    2.88    1.13
  10   0  -1   -0.08    1.17
  10   0   0   45.60    3.27
 -10   0   0   46.08    3.15
  10   0   1    7.31    1.81
 -10   0  -1    5.92    1.56
  10   0   2  442.46   11.76
 -10   0  -2  480.90   12.11
  10   0   3    0.64    1.47
 -10   0  -3    0.60    1.23
  10   0   4   38.09    3.17
 -10   0  -4   35.97    3.12
  10   0   5   -0.15    1.51
  10   0   6  515.99   13.39
  10   0   7    9.39    1.36
  10   0   7    6.03    1.74
  10   0   8  337.87   10.42
  10   0   8  324.88    8.40
  10   0   9    5.07    1.74
  10   0   9    5.24    1.63
  10   0   9    9.33    1.58
  10   0  10   16.49    1.99
  10   0  10   17.49    2.37
  10   0  11    0.12    1.39
  10   0  11   -0.18    1.01
  10   0  12  178.52    6.60
  10   0  12  181.84    7.48
  10   0  13   -0.98    1.67
  10   0  14   32.84    3.56
  10   0  15   -2.08    1.75
  10   0  16  158.82    8.24
  10   0  17   -2.49    2.08
  10   0  18   -1.71    2.05
  10   0  19    2.21    2.10
  10   1 -21   13.24    2.74
  10  -1 -21   11.00    2.99
  10   1 -20    0.97    1.69
  10  -1 -20    5.95    2.51
  10  -1 -19  163.94    8.17
  10   1 -19  158.31    7.97
  10   1 -18   39.46    3.98
  10  -1 -18   36.15    3.90
  10   1 -17   30.45    3.42
  10  -1 -17   25.65    3.21
  10   1 -16   40.91    3.78
  10  -1 -16   38.07    3.62
  10  -1 -16   43.67    2.45
  10   1 -15  242.49    9.07
  10  -1 -15  249.03    9.21
  10   1 -15  259.88    5.83
  10  -1 -15  260.32    6.94
  10  -1 -14   27.74    2.99
  10   1 -14   28.60    3.01
  10   1 -14   29.69    2.75
  10  -1 -14   24.07    1.91
  10   1 -14   35.39    1.93
  10  -1 -13   16.20    2.31
  10   1 -13   18.08    2.16
  10   1 -13   16.02    2.40
  10  -1 -13   18.11    2.21
  10  -1 -13   17.36    1.84
  10   1 -13   21.73    1.70
  10   1 -12   32.82    3.03
  10  -1 -12   37.79    3.29
  10   1 -12   35.73    2.72
  10  -1 -12   40.07    3.05
  10   1 -12   37.81    2.25
  10  -1 -12   30.95    2.34
  10  -1 -11  107.57    5.21
  10   1 -11  108.68    5.10
  10  -1 -11  112.05    4.84
  10   1 -11  109.62    4.58
  10  -1 -11  111.08    4.48
  10   1 -11  115.65    4.16
  10  -1 -10   27.88    2.33
  10   1 -10   23.86    2.10
  10   1 -10   24.85    2.45
 -10   1  10   22.76    1.66
  10  -1 -10   29.81    2.40
  10   1 -10   26.15    2.03
  10  -1  -9   35.20    2.47
  10   1  -9   36.94    2.40
  10   1  -9   35.11    2.79
 -10  -1   9   36.70    1.74
 -10   1   9   36.36    2.08
  10  -1  -9   41.06    2.75
  10   1  -9   38.04    2.46
 -10  -1   8    8.39    1.24
  10   1  -8    7.95    1.17
  10   1  -8   10.31    1.62
 -10  -1   8    6.98    0.96
 -10   1   8    8.10    1.19
  10   1  -8    7.78    1.38
  10  -1  -8    9.13    1.56
  10   1  -7  594.84   11.97
 -10  -1   7  575.88   12.62
 -10   1   7  611.44   13.10
 -10  -1   7  603.16   11.70
 -10   1   7  601.48   12.25
  10  -1  -7  619.33   13.62
  10   1  -7  637.70   13.10
 -10   1   6    3.99    1.12
 -10  -1   6    4.40    1.02
 -10  -1   6    4.27    0.99
 -10   1   6    4.31    0.97
  10  -1  -6    4.26    1.34
  10   1  -6    3.62    1.15
 -10   1   5  848.46   17.41
 -10   1   5  848.21   16.64
  10  -1  -5  896.87   18.05
  10   1  -5  910.29   17.53
 -10  -1   5  848.87   17.22
 -10  -1   4   13.89    1.72
 -10   1   4   10.36    1.58
  10  -1  -4   11.46    1.78
  10   1  -4   10.01    1.67
 -10   1   3   30.81    2.47
  10  -1  -3   28.42    2.56
 -10  -1   3   28.43    2.44
  10   1  -3   28.53    2.44
 -10   1   2    2.36    1.26
 -10  -1   2    3.38    1.32
  10  -1  -2    2.91    1.46
  10   1  -2    4.74    1.46
  10   1  -1   41.14    3.01
 -10   1   1   39.84    2.91
  10  -1  -1   37.91    2.98
 -10  -1   1   39.27    2.95
 -10   1   0   26.39    2.40
  10  -1   0   29.92    2.77
  10   1   0   24.86    2.47
 -10  -1   0   27.34    2.52
  10   1   1   48.87    3.34
 -10  -1  -1   56.19    3.60
  10  -1   1   57.13    3.64
 -10   1  -1   58.02    3.56
 -10   1  -2   28.67    2.68
 -10  -1  -2   28.64    2.73
  10   1   2   19.40    2.28
  10  -1   2   24.74    2.57
  10   1   3  216.64    7.64
 -10   1  -3  245.51    8.07
  10  -1   3  227.25    7.81
 -10  -1  -3  240.84    8.12
 -10   1  -4   44.83    3.39
 -10  -1  -4   41.99    3.31
  10   1   4   34.76    3.07
  10  -1   4   38.64    3.21
  10   1   5   14.38    1.35
  10   1   5   14.43    2.25
  10  -1   5   17.14    2.34
  10   1   6   13.22    1.36
  10  -1   6   11.98    2.29
  10   1   6   10.59    1.90
  10   1   7  592.28   12.29
  10   1   7  606.48   15.01
  10  -1   7  640.07   15.34
  10  -1   8   10.60    1.60
  10   1   8    9.14    1.39
  10   1   8   11.21    1.75
  10  -1   8    9.21    1.90
  10  -1   9  188.21    7.51
  10  -1   9  162.53    5.89
  10   1   9  167.32    5.52
  10   1   9  163.26    6.31
  10  -1  10    1.23    1.54
  10  -1  10    3.50    1.25
  10   1  10    5.89    1.62
  10   1  10    3.37    1.12
  10   1  11   75.37    4.52
  10  -1  11   68.13    4.63
  10   1  11   66.83    3.72
  10  -1  11   66.72    4.43
  10  -1  11   70.68    3.99
  10   1  12    4.26    1.37
  10   1  12    3.69    1.55
  10  -1  12    2.16    1.52
  10   1  13   13.51    2.03
  10   1  13   15.55    2.46
  10  -1  13   15.57    2.61
  10   1  14    0.82    1.56
  10  -1  14    1.07    1.62
  10  -1  15  206.81    8.87
  10   1  15  201.87    8.67
  10  -1  16    3.92    2.22
  10   1  16    2.26    1.85
  10  -1  17   32.65    3.86
  10   1  17   28.57    3.57
  10  -1  18    2.32    1.91
  10   1  18    6.07    2.53
  10   1  19    8.17    2.77
  10  -2 -21   38.26    4.26
  10   2 -21   30.83    3.90
  10  -2 -20   18.30    3.24
  10   2 -20    9.81    2.29
  10   2 -19    4.90    2.09
  10  -2 -19    4.20    1.79
  10   2 -18   35.26    3.66
  10  -2 -18   31.85    3.54
  10  -2 -17    2.19    1.69
  10   2 -17    3.87    1.46
  10  -2 -17    0.94    0.96
  10  -2 -16    2.68    1.55
  10   2 -16    3.99    1.62
  10  -2 -16    4.61    1.02
  10  -2 -15   18.77    2.59
  10   2 -15   12.26    2.30
  10  -2 -15   24.12    2.02
  10  -2 -14    2.04    1.41
  10   2 -14    2.62    1.45
  10   2 -14    3.85    1.42
  10   2 -14    5.40    0.88
  10  -2 -14    3.08    1.06
  10   2 -13    6.57    1.74
  10   2 -13   10.03    1.65
  10  -2 -13    8.09    1.77
  10   2 -13    7.00    1.01
  10  -2 -13    8.53    1.47
  10  -2 -12   86.84    4.40
  10   2 -12   76.96    3.86
  10   2 -12   78.38    4.51
  10   2 -12   80.17    3.08
  10  -2 -12   84.38    3.86
  10   2 -11   -0.89    0.95
  10   2 -11    0.05    1.12
  10  -2 -11    1.02    1.15
  10  -2 -11    0.21    1.03
  10   2 -11    2.03    0.97
  10  -2 -10    1.81    1.06
  10   2 -10   -0.47    0.97
  10   2 -10    0.59    1.09
 -10   2  10    1.85    0.85
  10  -2 -10    1.13    1.03
  10   2 -10    2.63    0.97
 -10  -2   9    0.73    0.80
  10   2  -9    3.24    0.97
  10   2  -9    2.35    1.21
 -10  -2   9    2.01    0.51
 -10   2   9    2.63    0.96
  10   2  -9    3.60    1.16
  10  -2  -9    2.04    1.27
  10   2  -8   20.75    1.67
 -10  -2   8   21.27    1.76
  10   2  -8   21.85    2.07
 -10   2   8   21.56    1.80
 -10  -2   8   26.36    1.46
  10   2  -8   26.39    2.05
  10  -2  -8   21.62    2.12
 -10  -2   7    6.19    1.11
  10   2  -7   10.25    1.19
  10   2  -7    8.51    1.30
 -10   2   7    8.45    1.33
 -10  -2   7    5.75    0.92
  10  -2  -7    7.79    1.62
  10   2  -7    7.93    1.37
  10   2  -6  856.12   15.33
 -10   2   6  866.40   17.45
  10   2  -6  836.16   16.46
 -10   2   6  873.97   16.82
 -10  -2   6  827.86   16.89
  10   2  -6  900.07   17.18
  10  -2  -6  891.79   17.84
 -10   2   5   23.72    2.14
 -10  -2   5   22.90    1.99
  10   2  -5   20.73    1.69
 -10   2   5   21.21    1.87
  10  -2  -5   22.81    2.36
  10   2  -5   19.39    1.99
 -10   2   4   31.77    2.56
  10   2  -4   29.39    2.43
 -10  -2   4   32.13    2.46
  10  -2  -4   30.51    2.71
 -10   2   3    0.99    0.99
  10   2  -3    2.15    1.21
 -10  -2   3    0.60    0.97
  10  -2  -3    1.47    1.38
 -10   2   2   41.47    2.98
  10   2  -2   39.64    2.80
  10  -2  -2   40.03    3.05
 -10  -2   2   42.74    2.93
 -10   2   1    4.33    1.26
 -10  -2   1    3.04    1.11
  10   2  -1    4.33    1.50
  10  -2  -1    3.41    1.42
  10   2   0  128.08    5.38
 -10  -2   0  142.47    5.75
 -10   2   0  139.69    5.68
  10  -2   0  135.05    5.71
  10   2   1   72.16    4.05
 -10  -2  -1   82.53    4.52
 -10   2  -1   82.33    4.37
  10  -2   1   83.44    4.60
  10   2   2   98.32    4.85
 -10   2  -2  111.68    5.15
 -10  -2  -2  108.94    5.33
  10  -2   2  109.67    5.22
  10   2   3   47.36    3.40
 -10  -2  -3   56.11    3.86
  10  -2   3   55.50    3.71
 -10   2  -3   52.65    3.55
  10   2   4   46.23    1.97
  10   2   4   48.54    3.47
  10  -2   4   57.21    3.91
  10   2   5    8.85    1.39
  10   2   5   11.17    1.10
  10   2   5   10.34    1.93
  10  -2   5   13.86    2.31
  10   2   6  625.26   13.45
  10   2   6  616.98   12.05
  10  -2   6  711.19   16.06
  10   2   7   39.54    2.19
  10   2   7   39.79    2.73
  10  -2   7   43.81    3.57
  10   2   8   74.56    3.92
  10   2   8   75.63    3.21
  10  -2   8   86.12    4.97
  10   2   9   15.58    1.66
  10   2   9   21.52    2.41
  10  -2   9   16.39    1.97
  10  -2   9   21.23    2.75
  10  -2  10    1.59    1.19
  10   2  10    0.99    1.04
  10   2  10   -0.07    1.37
  10  -2  10    3.77    1.81
  10   2  11    5.11    1.28
  10  -2  11    4.39    1.48
  10   2  11    5.64    1.70
  10  -2  11    9.38    2.24
  10   2  12  101.42    5.42
  10  -2  12  107.78    5.94
  10  -2  12  109.22    5.83
  10   2  12  109.62    4.80
  10  -2  13   39.84    3.73
  10   2  13   35.12    2.94
  10   2  13   37.34    3.41
  10  -2  14    5.70    2.08
  10   2  14    5.11    1.95
  10  -2  15   48.90    4.42
  10   2  15   51.95    4.36
  10   2  16   89.59    5.79
  10  -2  16   88.76    5.95
  10  -2  17   10.52    2.65
  10   2  17    7.78    2.39
  10  -2  18    2.13    2.06
  10   2  18    2.12    1.95
  10   2  19    4.20    2.02
  10   3 -21   61.60    5.22
  10  -3 -21   55.17    5.15
  10   3 -20   18.55    3.18
  10  -3 -20   16.14    2.93
  10  -3 -19   74.60    5.55
  10   3 -19   77.04    5.50
  10  -3 -18   21.72    3.30
  10   3 -18   19.57    2.85
  10   3 -17   61.70    4.68
  10  -3 -17   71.63    5.14
  10  -3 -17   74.05    3.51
  10  -3 -16    5.64    1.97
  10   3 -16    7.81    2.05
  10  -3 -16    2.67    0.93
  10   3 -15   16.23    2.54
  10  -3 -15   15.37    2.43
  10  -3 -15   15.31    1.72
  10  -3 -14  117.64    6.08
  10   3 -14  122.36    5.97
  10  -3 -14  129.67    4.88
  10   3 -13  144.29    6.32
  10  -3 -13  152.79    5.40
  10   3 -12   13.80    2.16
  10   3 -12   16.74    1.83
  10  -3 -12   19.68    2.09
  10   3 -11   69.95    3.40
  10   3 -11   73.31    4.14
  10  -3 -11   78.70    4.15
  10  -3 -11   80.65    3.87
 -10  -3  10    1.64    0.75
  10   3 -10    1.26    1.17
  10   3 -10    0.46    0.83
 -10   3  10    1.16    0.77
  10   3 -10    0.89    0.85
  10  -3 -10    2.79    1.27
 -10  -3   9   31.33    1.98
  10   3  -9   32.93    2.07
  10   3  -9   29.30    2.39
 -10  -3   9   33.23    1.29
 -10   3   9   31.74    2.25
  10   3  -9   33.09    2.12
  10  -3  -9   31.60    2.49
 -10  -3   8   64.85    3.01
  10   3  -8   67.39    2.76
  10   3  -8   71.02    3.54
 -10   3   8   67.27    3.26
 -10  -3   8   70.53    2.28
  10   3  -8   71.99    3.21
  10  -3  -8   72.16    3.72
  10   3  -7  135.88    3.90
  10   3  -7  142.51    4.84
 -10  -3   7  138.69    3.81
  10   3  -7  134.75    4.70
 -10   3   7  144.66    5.00
  10  -3  -7  145.88    5.48
 -10  -3   7  138.55    4.82
  10   3  -6    0.61    0.62
  10   3  -6    1.71    0.94
 -10   3   6    2.32    1.02
  10  -3  -6    1.11    1.18
  10   3  -6   -1.61    1.13
 -10  -3   6    0.22    0.93
  10   3  -5  283.27    5.82
 -10   3   5  304.41    8.45
  10   3  -5  283.34    6.84
 -10   3   5  294.51    7.93
  10   3  -5  262.91    7.57
  10  -3  -5  305.38    8.55
 -10  -3   5  294.67    7.98
  10   3  -4   59.59    1.91
 -10   3   4   54.39    3.36
  10   3  -4   59.37    2.48
 -10   3   4   60.22    3.32
  10   3  -4   52.78    3.11
  10  -3  -4   65.43    3.81
 -10  -3   4   63.22    3.43
 -10   3   3   61.29    3.60
  10   3  -3   60.77    2.32
  10   3  -3   54.61    3.28
 -10  -3   3   66.03    3.62
  10  -3  -3   60.74    3.75
  10   3  -2   17.49    1.15
 -10   3   2   17.64    2.02
  10  -3  -2   23.58    2.54
 -10  -3   2   20.53    2.10
  10   3  -2   16.12    1.87
 -10   3   1  181.26    6.52
  10   3  -1  184.96    4.05
  10   3  -1  177.72    6.29
  10  -3  -1  201.87    7.24
 -10  -3   1  216.31    7.19
 -10   3   0   17.00    2.08
  10   3   0   12.22    1.67
  10  -3   0   14.88    2.08
 -10  -3   0   17.41    2.14
 -10   3  -1  368.91   10.27
  10   3   1  341.25    9.78
  10  -3   1  376.49   10.58
 -10  -3  -1  394.99   10.73
 -10   3  -2   -0.92    1.05
  10   3   2    0.15    0.33
  10   3   2   -0.41    0.67
  10   3   2    0.13    1.23
 -10  -3  -2   -1.19    1.10
  10  -3   2   -2.59    1.66
  10   3   3    3.10    0.90
  10   3   3    2.59    0.48
 -10   3  -3    4.05    1.52
  10  -3   3    2.78    1.49
 -10  -3  -3    2.67    1.38
  10   3   4    4.43    0.62
  10   3   4    6.74    1.15
  10  -3   4    6.60    1.76
  10   3   5    2.16    0.60
  10   3   5    5.83    1.17
  10  -3   5    1.19    1.55
  10   3   6    3.36    0.78
  10   3   6    3.13    1.14
  10  -3   6    5.04    1.73
  10   3   7   93.79    3.29
  10   3   7   98.18    4.27
  10  -3   7  110.42    5.63
  10   3   8    0.73    0.73
  10   3   8    1.10    1.17
  10  -3   8    1.91    1.69
  10   3   9    2.69    1.22
  10   3   9    2.73    0.95
  10  -3   9    3.97    1.80
  10  -3  10    5.06    1.41
  10   3  10    2.32    1.24
  10  -3  10    1.92    1.47
  10   3  11    2.36    1.30
  10  -3  11    1.30    1.51
  10   3  12    3.16    1.51
  10  -3  12    2.76    1.59
  10   3  13  255.96    9.17
  10  -3  13  259.24    9.64
  10  -3  14   25.74    3.20
  10   3  14   18.83    2.72
  10  -3  15    0.48    1.70
  10   3  15    1.38    1.66
  10  -3  16   -0.15    1.72
  10   3  16    4.00    3.17
  10  -3  17   10.16    2.61
  10   3  17    7.10    2.19
  10  -3  18   21.59    3.48
  10   3  18   15.20    3.05
  10   3  19   52.99    5.01
  10   4 -21   18.00    3.22
  10   4 -20    6.21    2.36
  10  -4 -20   -0.80    1.98
  10   4 -19   -0.49    1.54
  10  -4 -19   -0.93    1.84
  10   4 -18  181.68    8.44
  10  -4 -18  193.03    8.81
  10  -4 -17   27.49    3.32
  10   4 -17   24.98    3.09
  10  -4 -17   27.37    2.39
  10   4 -16   45.75    3.99
  10  -4 -16   47.44    4.25
  10  -4 -16   51.56    3.24
  10  -4 -15   10.67    2.34
  10   4 -15   16.27    2.55
  10  -4 -15   13.54    1.82
  10   4 -14  140.06    6.41
  10  -4 -14  153.05    5.64
  10   4 -13    5.12    1.62
  10  -4 -13    8.93    1.64
  10   4 -12  386.41   10.81
  10  -4 -12  397.06   10.13
  10  -4 -11    6.46    1.39
  10   4 -11    5.03    1.47
  10  -4 -10   19.35    2.06
 -10  -4  10   18.86    1.50
 -10   4  10   18.49    1.85
  10   4 -10   17.19    2.06
  10  -4  -9    3.63    1.32
 -10  -4   9    2.58    0.74
  10   4  -9    3.01    1.17
 -10   4   9    1.93    1.08
  10   4  -8  266.71    7.39
 -10   4   8  273.92    7.64
 -10  -4   8  276.52    5.43
  10  -4  -8  270.58    7.99
 -10  -4   8  261.37    6.98
  10   4  -7    6.00    1.23
 -10   4   7    4.88    1.20
  10  -4  -7    4.82    1.33
 -10  -4   7    5.95    1.11
  10   4  -6   62.47    2.85
 -10   4   6   64.17    3.42
 -10  -4   6   64.78    3.31
  10  -4  -6   60.95    3.61
  10   4  -5    9.99    1.13
 -10   4   5   12.61    1.65
 -10  -4   5   11.63    1.55
  10  -4  -5   11.96    1.81
 -10   4   4   21.21    2.23
  10   4  -4   18.15    1.32
 -10   4   4   20.58    2.10
 -10  -4   4   19.75    2.03
  10  -4  -4   26.35    2.44
 -10   4   3   51.80    3.32
  10   4  -3   48.06    1.89
 -10   4   3   51.14    3.18
 -10  -4   3   55.34    3.39
  10  -4  -3   54.84    3.49
  10   4  -2   56.10    1.77
 -10   4   2   58.40    3.66
 -10  -4   2   63.68    3.70
  10  -4  -2   60.64    3.79
 -10   4   1   37.54    2.94
 -10  -4   1   41.96    3.06
  10  -4  -1   42.92    3.34
 -10   4   0 1289.31   24.97
  10   4   0 1248.26   20.26
  10  -4   0 1354.49   25.72
 -10  -4   0 1375.08   25.17
  10   4   1   35.86    1.57
 -10   4  -1   36.39    2.96
  10  -4   1   36.23    3.25
 -10  -4  -1   36.45    2.94
  10   4   2   31.24    1.65
 -10   4  -2   32.17    2.83
  10  -4   2   33.97    3.14
 -10  -4  -2   37.51    3.04
  10   4   3   67.19    2.70
 -10  -4  -3   71.51    4.22
  10  -4   3   64.88    4.20
  10   4   4    5.57    1.03
  10  -4   4    6.49    1.90
  10   4   5   42.26    2.48
  10  -4   5   49.28    3.77
  10   4   6   86.02    3.73
  10  -4   6   94.42    5.19
  10   4   7   31.35    2.41
  10  -4   7   36.39    3.43
  10   4   8   11.70    1.74
  10  -4   8   15.08    2.35
  10   4   9   34.07    2.89
  10  -4   9   37.95    3.51
  10   4  10  126.33    5.50
  10  -4  10  127.69    6.38
  10   4  11    8.99    1.87
  10  -4  11   11.28    2.44
  10   4  12  140.27    6.34
  10  -4  12  154.00    7.25
  10   4  13   13.52    2.24
  10  -4  13   16.18    2.60
  10   4  14   62.82    4.48
  10  -4  14   61.26    4.66
  10   4  15   52.62    4.33
  10  -4  15   52.46    4.69
  10   4  16   -0.31    1.92
  10  -4  16    0.03    2.05
  10   4  17    6.84    2.22
  10  -4  17    5.34    2.11
  10   4  18   53.48    4.78
  10  -4  18   53.73    5.10
  10   4  19    7.47    2.44
  10  -5 -20    4.71    2.21
  10  -5 -19   40.09    4.23
  10  -5 -18   -0.96    1.27
  10  -5 -18    0.00    1.25
  10   5 -18   -1.39    1.75
  10  -5 -18    1.31    1.80
  10  -5 -17  240.43    7.63
  10  -5 -17  244.74    7.72
  10   5 -17  224.32    9.14
  10  -5 -17  217.81    9.47
  10   5 -16   12.40    2.24
  10  -5 -16   13.13    2.48
  10  -5 -16   14.17    2.03
  10   5 -15   75.61    4.85
  10  -5 -15   79.62    4.17
  10   5 -14    0.61    1.31
  10  -5 -14    5.40    1.54
  10   5 -13  383.23   11.11
  10  -5 -13  395.83   10.34
  10   5 -12   10.93    1.93
  10  -5 -12   11.58    1.84
  10   5 -11  168.09    6.34
 -10  -5  11  182.71    4.60
  10  -5 -11  184.81    6.48
  10  -5 -10    7.28    1.55
 -10  -5  10    8.08    1.07
  10   5 -10    6.51    1.56
 -10   5  10    9.36    1.52
  10   5  -9  313.95    8.50
 -10   5   9  327.25    8.83
 -10  -5   9  307.68    7.54
  10  -5  -9  340.60    9.33
  10  -5  -8    7.82    1.64
  10   5  -8   12.94    1.60
 -10   5   8   10.96    1.60
 -10  -5   8    8.65    0.69
 -10  -5   8   10.69    1.35
  10   5  -7  292.48    7.51
 -10   5   7  312.97    8.63
  10  -5  -7  313.64    8.93
 -10  -5   7  308.00    7.93
  10  -5  -6   19.42    2.32
  10   5  -6   16.65    1.53
 -10   5   6   16.96    1.88
 -10  -5   6   18.81    1.87
  10   5  -5    4.07    0.90
 -10   5   5    6.73    1.47
 -10  -5   5    7.25    1.47
  10  -5  -5    5.58    1.52
 -10   5   4    2.29    1.24
  10  -5  -4    4.80    1.63
 -10  -5   4    2.30    1.23
 -10   5   3   63.36    3.72
 -10   5   3   67.88    3.75
 -10  -5   3   62.87    3.56
  10  -5  -3   64.67    3.88
 -10   5   2   58.51    3.61
 -10   5   2   51.10    3.29
 -10  -5   2   54.49    3.38
  10  -5  -2   55.44    3.67
 -10   5   1  844.70   18.05
 -10  -5   1  837.61   17.79
  10  -5  -1  824.72   18.09
 -10   5   0   31.28    2.87
 -10  -5   0   36.91    2.95
  10  -5   0   41.54    3.44
  10  -5   1 1657.80   31.77
 -10  -5  -1 1710.11   31.31
  10   5   2   96.78    2.85
  10  -5   2  102.17    5.35
 -10  -5  -2  107.05    5.09
  10   5   3   26.93    1.60
  10  -5   3   28.08    2.99
  10   5   4   18.67    1.56
  10  -5   4   20.13    2.58
  10   5   5   11.81    1.39
  10  -5   5   15.33    2.35
  10   5   6    0.94    0.89
  10  -5   6    2.57    1.66
  10   5   7    4.49    1.24
  10  -5   7    5.36    1.97
  10   5   8   13.23    1.82
  10  -5   8   16.08    2.44
  10   5   9  208.83    6.99
  10  -5   9  227.80    8.57
  10   5  10   17.47    2.17
  10  -5  10   18.00    2.76
  10   5  11    5.82    1.66
  10  -5  11    5.24    1.99
  10   5  12   -1.06    1.55
  10  -5  12   -1.11    1.58
  10   5  13  321.86   10.40
  10  -5  13  330.74   11.28
  10   5  14   17.64    2.76
  10  -5  14   13.34    2.51
  10   5  15   31.13    3.45
  10  -5  15   33.87    3.63
  10   5  16   42.04    3.93
  10  -5  16   47.20    4.56
  10   5  17  105.25    6.37
  10  -5  17   94.75    6.57
  10   5  18   -0.49    1.91
  10   5  19   45.93    4.65
  10  -6 -20   37.17    4.45
  10  -6 -19    0.07    1.68
  10  -6 -18  170.48    6.53
  10  -6 -18  182.65    6.90
  10  -6 -18  163.90    8.35
  10  -6 -17   18.33    2.30
  10  -6 -17   19.83    2.39
  10  -6 -17   17.02    2.85
  10  -6 -16  154.11    6.19
  10  -6 -16  159.19    6.30
  10  -6 -15   24.52    2.54
  10  -6 -15   23.48    2.49
  10  -6 -14  352.50    9.99
  10  -6 -13   12.75    1.87
  10  -6 -12   38.07    3.01
  10  -6 -11   -0.01    1.17
 -10  -6  11    0.52    0.57
  10  -6 -10   79.35    4.24
 -10   6  10   76.99    4.01
 -10  -6  10   75.43    2.94
  10  -6  -9   11.31    1.96
 -10   6   9   13.53    1.89
 -10  -6   9   11.61    1.28
 -10   6   8  407.29   10.49
  10  -6  -8  420.99   11.06
 -10  -6   8  418.03    9.59
  10  -6  -7    4.64    1.51
 -10   6   7    3.79    1.32
 -10  -6   7    2.99    1.04
  10  -6  -6    1.49    1.39
 -10   6   6    2.02    1.14
 -10  -6   6    1.41    1.15
  10  -6  -5   23.18    2.53
 -10   6   5   22.80    2.40
 -10  -6   5   20.58    2.08
 -10   6   4   90.22    4.41
  10  -6  -4   90.92    4.64
 -10  -6   4   89.25    4.19
 -10   6   3   17.30    2.11
 -10  -6   3   19.47    2.11
  10  -6  -3   20.88    2.42
 -10   6   2  163.92    6.29
  10  -6  -2  165.94    6.50
 -10  -6   2  162.04    6.02
 -10   6   1   49.84    3.39
  10  -6  -1   52.89    3.74
 -10  -6   1   54.32    3.48
 -10  -6   0 2619.83   44.51
  10  -6   0 2506.21   44.90
  10  -6   1   18.11    2.55
 -10  -6  -1   17.28    2.15
  10  -6   2  344.29   10.49
  10  -6   3    6.78    2.01
  10  -6   4    1.11    1.61
  10   6   5    9.57    1.31
  10  -6   5   11.34    2.33
  10   6   6   13.45    1.54
  10  -6   6   18.11    2.76
  10   6   7    4.46    1.24
  10  -6   7    2.62    1.62
  10   6   8   83.39    4.02
  10  -6   8   90.28    5.35
  10   6   9    9.50    1.69
  10  -6   9   14.95    2.49
  10   6  10   73.66    4.16
  10  -6  10   78.43    5.04
  10   6  11    5.33    1.80
  10  -6  11    8.00    2.28
  10   6  12  179.95    7.21
  10  -6  12  187.90    8.17
  10   6  13   13.26    2.38
  10  -6  13   12.85    2.50
  10   6  14  201.19    8.16
  10  -6  14  214.27    8.96
  10   6  15    2.43    1.85
  10  -6  15   -2.79    1.95
  10   6  16   74.53    5.26
  10  -6  16   72.10    5.22
  10  -6  16   81.94    5.99
  10  -6  17    8.01    2.63
  10  -7 -19   85.75    4.96
  10  -7 -19   81.33    6.18
  10  -7 -18    3.24    1.38
  10  -7 -18    0.95    1.42
  10  -7 -18   -1.94    1.77
  10  -7 -17  129.34    5.95
  10  -7 -17  133.08    6.10
  10  -7 -16   31.44    3.00
  10  -7 -16   33.95    3.16
  10  -7 -15   43.87    3.41
  10  -7 -15   51.40    3.66
  10  -7 -14    3.57    1.45
  10  -7 -14    7.19    1.93
  10  -7 -13  310.87    9.49
  10  -7 -12   45.68    3.43
 -10  -7  11   30.07    1.62
  10  -7 -11   29.78    2.82
 -10  -7  10    1.59    0.84
  10  -7 -10    2.53    1.52
  10  -7  -9  143.49    6.02
 -10   7   9  147.46    5.94
 -10  -7   9  154.37    4.83
  10  -7  -8   13.99    2.13
 -10   7   8   11.52    1.90
 -10  -7   8   10.30    0.64
 -10  -7   8   11.40    1.44
 -10   7   7  269.03    8.38
 -10  -7   7  270.75    7.71
  10  -7  -7  271.34    8.62
 -10   7   6  281.00    8.57
  10  -7  -6  269.82    8.59
 -10  -7   6  253.65    7.50
  10  -7  -5   -2.44    1.60
 -10   7   5    0.11    1.23
 -10  -7   5    0.14    0.97
 -10   7   4   48.99    3.44
  10  -7  -4   43.57    3.34
 -10  -7   4   48.83    3.07
  10  -7  -3    4.09    1.70
 -10  -7   3    2.09    1.09
  10  -7  -2   36.99    3.18
 -10  -7   2   40.72    2.94
  10  -7  -1  624.53   15.18
 -10  -7   1  648.62   14.71
  10  -7   0   79.99    4.69
 -10  -7   0   84.60    4.43
  10  -7   1  827.97   18.62
  10  -7   2   32.10    3.14
  10  -7   3  115.80    5.85
  10  -7   4   34.32    3.42
  10  -7   5   46.27    4.10
  10  -7   6   10.15    2.38
  10  -7   7    2.70    1.64
  10  -7   8   12.21    2.14
  10  -7   9   62.46    4.61
  10  -7  10    6.39    2.07
  10  -7  11    2.87    1.92
  10  -7  12    2.31    1.70
  10  -7  13  196.85    8.60
  10  -7  14    9.77    2.38
  10  -7  15   20.00    3.10
  10  -7  16   12.02    2.50
  10  -7  17   12.69    2.67
  10  -8 -19    5.02    2.05
  10  -8 -19    1.83    2.10
  10  -8 -18   89.25    5.06
  10  -8 -18  100.57    5.50
  10  -8 -18   79.32    6.01
  10  -8 -17   20.62    2.68
  10  -8 -17   18.57    2.65
  10  -8 -16   25.92    2.80
  10  -8 -16   19.07    2.52
  10  -8 -15   53.55    3.92
  10  -8 -15   53.02    3.96
  10  -8 -14   64.46    4.29
  10  -8 -14   67.52    4.35
  10  -8 -13   29.01    2.99
  10  -8 -12   79.83    4.71
 -10  -8  11    2.51    0.90
  10  -8 -11    4.93    1.74
  10  -8 -10    5.70    1.77
 -10  -8  10    2.67    0.90
  10  -8  -9    2.23    1.45
 -10  -8   9    0.85    0.91
  10  -8  -8   30.11    2.89
 -10  -8   8   33.98    1.17
 -10  -8   8   31.51    2.38
  10  -8  -7    3.46    1.60
 -10  -8   7    5.38    1.22
  10  -8  -6  142.73    6.11
 -10  -8   6  128.19    5.03
  10  -8  -5   96.79    5.02
 -10  -8   5   94.14    4.26
  10  -8  -4   50.47    3.68
 -10  -8   4   48.84    3.11
  10  -8  -3    9.47    2.05
 -10  -8   3   12.23    1.76
  10  -8  -2   11.15    2.10
 -10  -8   2   10.03    1.70
  10  -8  -1    7.51    2.06
 -10  -8   1    9.14    1.74
 -10  -8   0  685.75   15.60
  10  -8   0  648.23   15.91
  10  -8   1   74.87    4.63
  10  -8   2   46.66    3.68
  10  -8   3   12.11    2.21
  10  -8   4   34.15    3.51
  10  -8   5   15.15    2.55
  10  -8   6  216.66    8.84
  10  -8   7  300.52   10.61
  10  -8   8    0.82    1.77
  10  -8   9    6.86    2.12
  10  -8  10    7.22    2.09
  10  -8  11    7.48    2.30
  10  -8  12  184.60    8.29
  10  -8  13    3.57    1.97
  10  -8  14   48.26    4.33
  10  -8  15   10.56    2.57
  10  -8  16    7.37    2.36
  10  -8  17   19.92    2.97
  10  -8  18   43.00    4.20
  10  -9 -19   58.45    4.35
  10  -9 -19   60.62    4.59
  10  -9 -18   13.77    2.42
  10  -9 -18   12.46    2.54
  10  -9 -17    9.11    2.17
  10  -9 -17    6.40    2.03
  10  -9 -16   76.28    4.89
  10  -9 -16   72.76    4.87
  10  -9 -15   51.37    4.09
  10  -9 -15   53.39    4.19
  10  -9 -14    3.19    1.55
  10  -9 -14    3.63    1.76
  10  -9 -13   22.11    2.78
  10  -9 -13   18.79    2.54
  10  -9 -12   10.63    2.04
  10  -9 -11   44.40    3.70
  10  -9 -10    1.24    1.37
 -10  -9  10    0.80    0.77
  10  -9  -9    0.50    1.36
 -10  -9   9    3.66    1.15
  10  -9  -8   28.07    2.95
 -10  -9   8   28.88    1.20
 -10  -9   8   31.83    2.36
  10  -9  -7  145.44    6.44
 -10  -9   7  149.62    3.85
 -10  -9   7  140.63    5.22
  10  -9  -6   95.11    5.15
 -10  -9   6   83.59    4.00
  10  -9  -5  251.14    8.67
 -10  -9   5  246.98    7.55
  10  -9  -4    2.78    1.57
 -10  -9   4    5.07    1.25
  10  -9  -3    9.50    2.04
 -10  -9   3    7.07    1.47
  10  -9  -2    7.06    2.00
 -10  -9   2    3.37    1.22
  10  -9  -1   97.43    5.27
 -10  -9   1   96.99    4.84
  10  -9   0   25.54    2.93
  10  -9   1   37.97    3.45
  10  -9   2   10.39    2.08
  10  -9   3   36.18    3.40
  10  -9   4   37.41    3.55
  10  -9   5   65.70    4.70
  10  -9   6   26.10    3.26
  10  -9   7  339.04   11.71
  10  -9   8   92.88    5.83
  10  -9   9   62.70    4.75
  10  -9  10    2.82    1.69
  10  -9  11   25.08    3.21
  10  -9  12    2.35    1.87
  10  -9  13  105.26    6.39
  10  -9  14   24.31    3.44
  10  -9  15   54.27    4.74
  10  -9  16   15.79    2.88
  10  -9  17   -0.11    1.73
  10  -9  18   36.03    3.97
  10 -10 -20   14.97    2.73
  10 -10 -19    1.97    1.90
  10 -10 -19    2.45    1.72
  10 -10 -18   51.03    4.20
  10 -10 -18   46.88    4.26
  10 -10 -17    2.59    2.08
  10 -10 -17    8.73    2.46
  10 -10 -16   49.81    4.17
  10 -10 -16   52.37    4.19
  10 -10 -15    6.17    2.08
  10 -10 -15    4.18    1.83
  10 -10 -14   49.48    4.11
  10 -10 -14   52.11    4.23
  10 -10 -13    5.89    2.01
  10 -10 -13    2.15    1.76
  10 -10 -12   61.15    4.39
  10 -10 -11    7.38    1.99
  10 -10 -10   12.71    2.19
  10 -10  -9    4.95    1.93
 -10 -10   9    6.48    1.31
  10 -10  -8  207.30    8.07
 -10 -10   8  202.49    4.39
 -10 -10   8  198.24    6.31
  10 -10  -7    6.21    1.80
 -10 -10   7    7.21    0.88
 -10 -10   7    8.20    1.35
  10 -10  -6  677.66   16.52
 -10 -10   6  661.10   12.59
 -10 -10   6  652.83   14.45
  10 -10  -5   58.50    4.20
 -10 -10   5   53.77    3.33
  10 -10  -4    8.60    2.11
 -10 -10   4   13.03    1.82
 -10 -10   3   50.48    3.41
  10 -10  -3   48.90    3.81
  10 -10  -2  199.82    7.97
  10 -10  -1   56.59    4.12
  10 -10   0    1.30    1.60
  10 -10   1    1.31    1.49
  10 -10   2   46.30    3.92
  10 -10   3    8.56    2.23
  10 -10   4   16.22    2.60
  10 -10   5   18.40    2.87
  10 -10   6  440.46   13.44
  10 -10   7   15.90    2.79
  10 -10   8  441.09   13.89
  10 -10   9   32.89    3.70
  10 -10  10    5.67    2.18
  10 -10  11   16.19    2.85
  10 -10  12   55.71    4.64
  10 -10  13    0.07    1.97
  10 -10  14   27.35    3.55
  10 -10  15    0.04    1.74
  10 -10  16  107.98    6.62
  10 -10  17   20.41    3.15
  10 -11 -20    2.79    2.14
  10 -11 -19   21.96    3.26
  10 -11 -19   27.27    3.54
  10 -11 -18    1.81    1.72
  10 -11 -18    2.42    2.42
  10 -11 -17    1.74    1.64
  10 -11 -17    1.52    2.17
  10 -11 -16   22.99    3.15
  10 -11 -16   21.54    3.27
  10 -11 -15  192.92    8.38
  10 -11 -15  183.67    8.21
  10 -11 -14    3.16    1.76
  10 -11 -14    2.45    1.77
  10 -11 -13   17.50    2.71
  10 -11 -13   19.56    2.89
  10 -11 -12    3.18    1.54
  10 -11 -12   -2.60    1.77
  10 -11 -11   91.22    5.50
  10 -11 -10   14.97    2.55
  10 -11  -9    0.08    1.69
  10 -11  -8   15.34    2.53
 -10 -11   8   11.73    1.01
 -10 -11   8   13.75    1.79
  10 -11  -7  757.51   18.09
 -10 -11   7  725.36   13.35
 -10 -11   7  704.55   15.34
  10 -11  -6   21.34    2.87
 -10 -11   6   23.20    1.77
 -10 -11   6   20.21    2.11
  10 -11  -5  447.36   12.97
 -10 -11   5  438.99   11.30
  10 -11  -4   36.86    3.58
 -10 -11   4   36.40    2.94
  10 -11  -3   10.44    2.27
  10 -11  -2  104.58    5.71
  10 -11  -1   32.87    3.40
  10 -11   0   20.42    2.69
  10 -11   1   51.17    4.08
  10 -11   2   47.93    4.05
  10 -11   3   65.53    4.71
  10 -11   4    5.98    1.98
  10 -11   5   65.90    4.87
  10 -11   6    7.45    2.39
  10 -11   7  777.54   19.77
  10 -11   8    9.03    2.61
  10 -11   9  101.51    6.48
  10 -11  10   21.63    3.23
  10 -11  11   77.12    5.57
  10 -11  12   -1.43    1.85
  10 -11  13    5.46    2.08
  10 -11  14    2.39    1.94
  10 -11  15  153.12    8.05
  10 -11  16    2.59    2.17
  10 -11  17   29.50    3.59
  10 -12 -20   26.40    3.71
  10 -12 -19    0.98    1.83
  10 -12 -19   -2.36    2.01
  10 -12 -18    4.98    2.47
  10 -12 -18    5.47    2.22
  10 -12 -17    6.35    2.28
  10 -12 -17    4.90    2.46
  10 -12 -16   34.43    3.68
  10 -12 -16   37.81    4.03
  10 -12 -15   29.04    3.71
  10 -12 -15   31.42    3.87
  10 -12 -14  226.65    9.75
  10 -12 -14  219.71    9.58
  10 -12 -13   16.80    2.96
  10 -12 -13   13.82    2.63
  10 -12 -12   21.79    3.17
  10 -12 -12   18.48    2.98
  10 -12 -11    0.14    1.77
  10 -12 -10   26.25    3.14
  10 -12  -9    8.85    2.39
  10 -12  -8   30.38    3.42
  10 -12  -7    9.02    2.18
 -10 -12   7    7.87    1.09
 -10 -12   7    8.42    1.51
  10 -12  -6  606.53   15.85
 -10 -12   6  558.04   11.48
 -10 -12   6  584.21   13.62
  10 -12  -5   30.14    3.34
 -10 -12   5   33.40    2.81
 -10 -12   5   34.28    2.33
  10 -12  -4   13.93    2.42
  10 -12  -3   43.13    3.86
  10 -12  -2  114.26    6.13
  10 -12  -1   10.27    2.41
  10 -12   0   10.97    2.28
  10 -12   1    6.73    2.24
  10 -12   2   31.20    3.26
  10 -12   3   22.90    3.05
  10 -12   4    9.45    2.30
  10 -12   5   12.74    2.42
  10 -12   6  269.12   10.27
  10 -12   7    8.57    2.50
  10 -12   8  220.14    9.54
  10 -12   9    9.19    2.65
  10 -12  10    4.90    2.10
  10 -12  11   19.35    3.37
  10 -12  12  108.38    6.78
  10 -12  13   14.50    3.00
  10 -12  14   14.76    2.81
  10 -12  15   15.50    2.86
  10 -12  16   85.28    6.05
  10 -13 -19   77.05    5.79
  10 -13 -19   78.69    6.08
  10 -13 -18   -3.02    2.08
  10 -13 -18   -3.07    2.13
  10 -13 -17   -0.30    1.81
  10 -13 -17    8.15    2.60
  10 -13 -16   -1.40    1.75
  10 -13 -16   -0.48    1.80
  10 -13 -15   32.68    3.85
  10 -13 -15   37.54    4.08
  10 -13 -14   20.84    3.29
  10 -13 -14   15.47    2.84
  10 -13 -13    0.81    1.89
  10 -13 -13    2.56    1.94
  10 -13 -12    1.06    1.93
  10 -13 -11   18.88    2.99
  10 -13 -10   15.99    2.89
  10 -13  -9    1.27    1.66
  10 -13  -8   14.23    2.68
  10 -13  -7  139.98    7.15
 -10 -13   7  135.89    4.39
  10 -13  -6   -1.59    1.83
 -10 -13   6    1.39    0.94
  10 -13  -5  130.14    6.78
 -10 -13   5  123.82    4.61
  10 -13  -4   49.07    4.19
 -10 -13   4   47.39    2.95
  10 -13  -3   -3.46    1.86
  10 -13  -2    0.68    3.90
  10 -13  -1   -1.90    1.78
  10 -13   0   12.60    2.74
  10 -13   1   16.14    2.69
  10 -13   2    2.66    1.90
  10 -13   3   42.29    4.00
  10 -13   4   11.75    2.60
  10 -13   5   22.02    3.24
  10 -13   6    3.75    1.98
  10 -13   7  161.44    8.00
  10 -13   8    9.73    2.65
  10 -13   9    7.06    2.34
  10 -13  10    3.97    2.05
  10 -13  11   19.21    3.18
  10 -13  12    5.67    2.21
  10 -13  13    4.92    2.33
  10 -13  14   13.75    2.87
  10 -13  15   66.96    5.30
  10 -14 -18   44.64    4.67
  10 -14 -17    6.44    2.38
  10 -14 -17   -1.13    2.19
  10 -14 -16    4.67    2.21
  10 -14 -16    0.49    2.03
  10 -14 -15   15.49    2.85
  10 -14 -15   14.63    3.27
  10 -14 -14    9.62    2.41
  10 -14 -14    6.64    2.35
  10 -14 -13    5.56    2.05
  10 -14 -13   -0.21    1.81
  10 -14 -12   21.89    3.32
  10 -14 -11    0.57    2.09
  10 -14 -10   -1.25    2.20
  10 -14  -9    7.20    2.37
  10 -14  -8    4.91    2.35
  10 -14  -7    8.61    2.55
  10 -14  -6   77.03    5.41
 -10 -14   6   78.53    3.58
  10 -14  -5   36.23    3.85
 -10 -14   5   26.95    2.19
  10 -14  -4    9.55    2.29
 -10 -14   4    9.15    1.55
  10 -14  -3   -0.45    1.84
 -10 -14   3    1.24    1.06
  10 -14  -2    2.05    1.85
 -10 -14   2   -0.58    1.18
  10 -14  -1    3.84    2.13
  10 -14   0  180.69    8.33
  10 -14   1  137.67    7.27
  10 -14   2   32.82    3.64
  10 -14   3    0.33    1.84
  10 -14   4   20.78    3.18
  10 -14   5    6.72    2.45
  10 -14   6   26.75    3.54
  10 -14   7    4.99    2.42
  10 -14   8   16.07    3.23
  10 -14   9    4.21    2.06
  10 -14  10   -0.39    1.96
  10 -14  11   20.29    3.47
  10 -14  12   45.34    4.53
  10 -14  13    8.34    2.82
  10 -14  14   14.82    2.92
  10 -14  15   34.65    4.10
  10 -15 -15   26.21    3.86
  10 -15 -15   26.55    3.81
  10 -15 -14   33.62    4.07
  10 -15 -14   27.24    3.72
  10 -15 -13   54.27    4.98
  10 -15 -13   53.89    4.99
  10 -15 -12   20.97    3.33
  10 -15 -11   12.74    2.85
  10 -15 -10    4.59    1.80
  10 -15  -9   30.66    3.78
  10 -15  -8    0.89    1.86
  10 -15  -7    8.31    2.38
  10 -15  -6   13.35    2.71
  10 -15  -5    9.26    2.53
 -10 -15   5    8.16    1.60
  10 -15  -4    5.41    2.35
 -10 -15   4    0.53    0.97
  10 -15  -3    1.73    1.82
 -10 -15   3    2.21    1.29
  10 -15  -2   20.14    2.96
 -10 -15   2   16.63    2.17
  10 -15  -1  175.33    8.42
 -10 -15   1  171.39    6.80
  10 -15   0   34.39    3.99
  10 -15   1  216.57    9.48
  10 -15   2   16.55    2.88
  10 -15   3   13.87    2.89
  10 -15   4   27.97    3.72
  10 -15   5    6.82    2.24
  10 -15   6    7.79    2.54
  10 -15   7   -1.16    1.99
  10 -15   8   -1.05    2.21
  10 -15   9   59.35    5.27
  10 -15  10   21.08    3.44
  10 -15  11    0.85    2.02
  10 -15  12    3.60    2.12
  10 -15  13   48.49    4.78
  10 -15  14    8.64    2.92
  10 -16 -12  126.20    7.64
  10 -16 -11   -0.43    1.85
  10 -16 -10    2.74    2.21
  10 -16  -9    0.56    1.87
  10 -16  -8   92.73    6.40
  10 -16  -7    3.81    2.28
  10 -16  -6    3.51    1.98
  10 -16  -5   19.15    3.27
  10 -16  -4    3.26    1.99
 -10 -16   4    1.89    1.31
  10 -16  -3    0.26    1.77
 -10 -16   3    1.46    1.17
  10 -16  -2    3.37    2.04
 -10 -16   2    6.64    1.72
  10 -16  -1   15.41    2.96
 -10 -16   1   10.74    2.03
 -10 -16   0  383.42   11.43
  10 -16   0  380.95   13.26
  10 -16   1   29.25    3.81
  10 -16   2   62.44    5.12
  10 -16   3    0.43    1.82
  10 -16   4    3.77    1.89
  10 -16   5    5.46    2.28
  10 -16   6    2.45    2.73
  10 -16   7    0.22    1.93
  10 -16   8   41.68    4.44
  10 -16   9    2.84    2.25
  10 -16  10   67.99    5.78
  10 -16  11   17.22    3.29
  10 -16  12   39.03    4.56
  10 -17  -8   12.10    2.93
  10 -17  -7   34.59    4.30
  10 -17  -6    1.06    1.98
  10 -17  -5    0.29    1.92
  10 -17  -4   16.07    3.05
  10 -17  -3    6.32    2.47
 -10 -17   3    2.80    1.46
  10 -17  -2    4.97    2.38
 -10 -17   2    5.16    1.67
  10 -17  -1  202.31    9.49
 -10 -17   1  197.84    7.74
  10 -17   0    4.75    2.16
 -10 -17   0    1.81    1.67
 -10 -17  -1  327.98   10.94
  10 -17   1  352.15   12.89
  10 -17   2   12.53    2.88
 -10 -17  -2   10.63    2.24
  10 -17   3   13.30    2.77
  10 -17   4    1.15    4.34
  10 -17   5    3.18    2.28
  10 -17   6    0.77    1.90
  10 -17   7   18.85    3.38
  10 -17   8    9.07    2.75
  10 -17   9   72.11    5.96
 -10 -18   2    3.32    1.55
  10 -18  -1   29.76    3.96
 -10 -18   1   28.37    3.07
 -10 -18   0  174.99    7.64
  10 -18   0  189.84    9.41
  10 -18   1    5.69    2.43
 -10 -18  -1    5.92    2.14
  10 -18   2   53.74    5.18
 -10 -18  -2   49.42    4.33
  10 -18   3   -1.42    2.07
 -10 -18  -3   -4.16    2.06
 -10 -18  -4    2.84    1.89
 -10 -18  -5   18.24    3.19
 -10 -19   0    2.97    1.76
 -10 -19  -1   67.82    5.00
 -10 -19  -2    9.33    2.41
 -10 -19  -3    5.52    2.45
 -10 -19  -4   -1.89    1.81
 -10 -19  -5    1.24    1.81
 -10 -20  -1    4.25    1.88
 -10 -20  -2    5.36    2.25
 -10 -20  -3    1.13    1.80
  11   0 -21    5.53    2.10
  11   0 -20  120.81    7.23
  11   0 -19    0.75    1.51
  11   0 -18  246.95   10.07
  11   0 -17   -0.67    1.41
  11   0 -16    4.33    1.86
  11   0 -15    5.15    1.95
  11   0 -15    1.31    0.86
  11   0 -14   47.88    3.88
  11   0 -14   58.24    2.98
  11   0 -13    7.89    1.91
  11   0 -13    6.13    1.46
  11   0 -13    8.25    1.45
  11   0 -12   62.46    4.13
  11   0 -12   65.01    3.73
  11   0 -12   63.76    3.32
  11   0 -11   16.70    2.28
  11   0 -11   17.15    1.97
  11   0 -11   17.28    1.95
  11   0 -10   71.33    3.61
  11   0 -10   70.40    4.13
 -11   0  10   84.42    3.21
  11   0 -10   77.52    3.78
  11   0  -9    3.36    1.21
 -11   0   9    2.03    0.79
  11   0  -9    2.05    1.18
 -11   0   8    0.55    0.94
  11   0  -8    1.49    0.95
 -11   0   8    0.27    0.71
  11   0  -8    0.18    1.11
 -11   0   7    4.03    1.17
 -11   0   7    4.22    0.98
  11   0  -7    4.88    1.44
 -11   0   6  811.87   17.07
 -11   0   6  825.88   16.16
  11   0  -6  879.12   17.67
 -11   0   5    3.89    1.20
  11   0  -5    3.54    1.24
 -11   0   4  253.28    7.85
  11   0  -4  262.28    8.03
 -11   0   3   14.53    2.00
  11   0  -3   13.62    1.92
 -11   0   2  293.37    8.78
  11   0  -2  289.26    8.73
 -11   0   1   -0.63    1.14
  11   0  -1    1.32    1.42
 -11   0   0   37.65    3.04
  11   0   0   37.90    3.16
  11   0   1    2.18    1.55
 -11   0  -1   -0.05    1.18
  11   0   2  731.62   16.79
  11   0   3   11.13    2.10
  11   0   4  235.43    8.32
  11   0   5   -0.50    1.40
  11   0   6  269.60    9.24
  11   0   7    3.02    1.08
  11   0   7    2.28    1.48
  11   0   8  122.60    6.13
  11   0   8  119.96    4.63
  11   0   9   -0.21    1.74
  11   0   9    2.69    1.64
  11   0   9    1.65    1.11
  11   0  10    6.42    1.38
  11   0  10    7.87    1.86
  11   0  11    7.50    2.01
  11   0  11    4.04    1.32
  11   0  12  722.25   16.39
  11   0  12  761.26   18.09
  11   0  13    4.74    2.07
  11   0  14   17.25    2.63
  11   0  15   -0.08    1.77
  11   0  16   47.87    4.41
  11   0  17    1.51    1.97
  11   0  18    1.61    2.03
  11   1 -21    5.16    2.15
  11  -1 -21    5.30    2.42
  11   1 -20    7.77    2.46
  11  -1 -20   13.16    2.85
  11  -1 -19  226.09    9.81
  11   1 -19  217.18    9.59
  11   1 -18   17.08    2.69
  11  -1 -18   19.35    2.93
  11  -1 -17   76.89    5.29
  11   1 -17   71.81    5.15
  11   1 -16   16.28    2.64
  11  -1 -16   13.49    2.47
  11  -1 -16   16.84    1.79
  11  -1 -15   23.53    2.91
  11   1 -15   24.55    3.02
  11   1 -15   21.39    1.54
  11  -1 -15   23.79    2.17
  11  -1 -14    0.17    1.40
  11   1 -14   -1.13    1.20
  11   1 -14    2.07    1.61
  11   1 -14    1.54    0.98
  11  -1 -14    0.94    1.04
  11  -1 -13    5.83    1.78
  11   1 -13    6.58    1.56
  11   1 -13    7.29    1.85
  11  -1 -13    5.56    1.35
  11   1 -13    7.46    1.31
  11   1 -12   76.47    4.54
  11  -1 -12   74.49    4.58
  11   1 -12   70.08    3.80
  11  -1 -12   77.57    4.17
  11  -1 -12   81.28    4.02
  11   1 -12   84.71    3.57
  11   1 -11   12.58    1.97
  11  -1 -11   11.84    2.00
  11  -1 -11   14.67    1.92
  11   1 -11   16.82    1.98
  11  -1 -11   14.93    1.99
  11   1 -11   14.77    1.63
  11   1 -10   26.28    2.20
  11  -1 -10   28.09    2.37
  11   1 -10   32.37    2.80
 -11   1  10   31.01    2.12
 -11  -1  10   30.26    1.70
  11   1 -10   32.34    2.37
  11  -1 -10   28.07    2.52
  11  -1  -9  157.52    5.60
  11   1  -9  167.80    5.44
 -11  -1   9  171.51    5.59
  11   1  -9  165.20    6.16
 -11  -1   9  176.59    4.71
 -11   1   9  168.96    5.16
  11  -1  -9  175.71    6.24
  11   1  -9  178.80    5.81
 -11  -1   8    1.55    0.89
  11   1  -8    0.84    0.87
  11   1  -8    3.60    1.28
 -11  -1   8    0.59    0.67
 -11   1   8    1.00    0.88
  11  -1  -8    2.52    1.31
  11   1  -8    1.86    1.19
  11   1  -7  152.44    4.72
 -11  -1   7  146.14    5.53
 -11   1   7  157.25    5.69
 -11  -1   7  150.30    4.68
 -11   1   7  157.34    5.12
  11  -1  -7  163.30    6.03
  11   1  -7  171.14    5.84
 -11   1   6   17.29    1.95
 -11  -1   6   13.60    1.68
 -11   1   6   17.95    1.75
  11  -1  -6   16.50    2.12
  11   1  -6   22.66    2.26
 -11   1   5  716.21   15.75
 -11   1   5  694.54   14.83
 -11  -1   5  739.85   15.73
  11   1  -5  773.62   15.93
  11  -1  -5  754.49   16.21
 -11  -1   4    7.23    1.47
 -11   1   4    4.34    1.28
  11  -1  -4    4.83    1.45
  11   1  -4    7.44    1.62
 -11   1   3   87.07    4.38
  11   1  -3   92.42    4.52
  11  -1  -3   95.99    4.78
 -11  -1   3   95.91    4.52
  11   1  -2   81.82    4.30
 -11  -1   2   81.61    4.26
  11  -1  -2   74.48    4.28
 -11   1   2   86.94    4.43
  11   1  -1  338.47    9.73
 -11  -1   1  352.04    9.95
 -11   1   1  333.96    9.78
  11  -1  -1  340.63    9.87
 -11   1   0    3.12    1.25
  11  -1   0    4.06    1.55
 -11  -1   0    2.12    1.23
  11   1   0    1.16    1.34
  11   1   1  218.27    7.69
  11  -1   1  222.55    7.85
 -11  -1  -1  232.46    7.99
 -11   1  -1  231.08    7.91
  11   1   2    3.11    1.38
  11  -1   2    5.49    1.82
  11   1   3  488.92   12.85
  11  -1   3  490.26   12.97
  11   1   4    1.96    1.40
  11  -1   4    5.14    1.81
  11   1   5   80.81    3.17
  11   1   5   88.14    4.96
  11  -1   5   90.96    5.05
  11   1   6    1.95    0.86
  11   1   6   -0.11    1.52
  11  -1   6    1.00    1.46
  11   1   7   12.99    1.46
  11   1   7   13.49    2.27
  11  -1   7   15.39    2.42
  11  -1   8    4.16    1.29
  11   1   8    5.10    1.12
  11   1   8    4.73    1.50
  11  -1   8    1.33    1.56
  11  -1   9   75.38    4.86
  11  -1   9   73.54    3.87
  11   1   9   75.42    3.57
  11   1   9   70.56    4.15
  11  -1  10    3.71    1.80
  11  -1  10    2.76    1.24
  11   1  10    3.62    1.62
  11   1  10    4.02    1.25
  11   1  11  273.24    9.23
  11  -1  11  276.77   10.01
  11   1  11  275.07    8.09
  11  -1  11  269.05    9.33
  11  -1  11  264.89    8.44
  11  -1  12   80.51    5.15
  11   1  12   84.25    4.33
  11   1  12   82.55    5.01
  11  -1  13  351.61   11.57
  11   1  13  362.10   11.52
  11   1  14    0.42    1.65
  11  -1  14    1.84    1.64
  11  -1  15   16.43    2.96
  11   1  15   20.26    3.05
  11  -1  16    6.16    2.30
  11   1  16   -0.25    1.95
  11   1  17   71.88    5.49
  11  -1  17   69.07    5.48
  11   1  18    2.69    2.11
  11  -1  18    5.99    2.53
  11   2 -21   30.37    3.87
  11   2 -20   40.60    4.22
  11  -2 -20   43.64    4.42
  11   2 -19   21.66    3.10
  11  -2 -19   19.71    3.15
  11  -2 -18   95.28    6.11
  11   2 -18   87.67    5.82
  11  -2 -17    3.19    1.91
  11   2 -17   -0.67    1.90
  11   2 -16   43.14    3.86
  11  -2 -16   47.61    4.14
  11  -2 -16   51.14    3.04
  11  -2 -15   19.53    2.68
  11   2 -15   15.96    2.46
  11  -2 -15   15.44    1.88
  11  -2 -14    1.13    1.46
  11   2 -14   -0.36    1.47
  11   2 -14    1.38    1.22
  11   2 -14    1.56    0.82
  11  -2 -14    3.00    1.38
  11   2 -13    2.04    1.43
  11   2 -13    3.17    1.29
  11  -2 -13    2.22    1.53
  11   2 -13    3.22    1.02
  11  -2 -13    0.26    1.09
  11  -2 -12   37.71    3.02
  11   2 -12   40.10    2.86
  11   2 -12   36.23    3.13
  11   2 -12   41.46    2.40
  11  -2 -12   44.11    2.97
  11   2 -11   11.92    1.67
  11   2 -11   12.53    2.01
  11  -2 -11   12.44    1.88
  11   2 -11   12.15    1.50
  11  -2 -11   15.02    1.98
  11  -2 -10    6.41    1.38
  11   2 -10    7.09    1.24
  11   2 -10    5.67    1.54
 -11   2  10    6.20    1.28
 -11  -2  10    6.49    0.83
  11  -2 -10    7.59    1.56
  11   2 -10    6.64    1.30
 -11  -2   9   10.29    1.37
  11   2  -9    9.18    1.35
  11   2  -9    7.62    1.59
 -11  -2   9   10.35    1.06
 -11   2   9   10.23    1.37
  11  -2  -9   10.60    1.86
  11   2  -9   10.72    1.55
  11   2  -8   10.43    1.33
 -11  -2   8    6.66    1.20
  11   2  -8    7.62    1.56
 -11   2   8    8.78    1.29
 -11  -2   8    8.66    1.02
  11  -2  -8    9.41    1.84
  11   2  -8   10.73    1.64
  11   2  -7    3.50    0.86
 -11  -2   7    2.67    0.97
  11   2  -7    3.98    1.15
 -11   2   7    5.02    1.11
 -11  -2   7    3.20    0.86
  11  -2  -7    4.87    1.49
  11   2  -7    6.65    1.46
  11   2  -6  639.59   12.29
 -11   2   6  669.76   14.76
  11   2  -6  628.33   13.41
 -11   2   6  666.37   14.03
  11  -2  -6  700.89   15.42
  11   2  -6  698.87   14.51
 -11  -2   6  649.72   14.24
 -11   2   5   65.57    3.71
  11   2  -5   59.44    2.88
  11   2  -5   68.38    3.67
 -11   2   5   60.13    3.32
  11  -2  -5   64.74    4.00
 -11  -2   5   68.83    3.68
 -11   2   4   36.11    2.79
  11   2  -4   41.56    2.97
  11  -2  -4   41.81    3.28
 -11  -2   4   42.42    2.98
 -11   2   3   58.06    3.57
  11   2  -3   64.89    3.74
  11  -2  -3   64.93    4.04
 -11  -2   3   72.46    3.93
 -11   2   2  106.38    5.00
  11   2  -2  106.49    4.90
 -11  -2   2  114.76    5.11
  11  -2  -2  107.93    5.22
 -11   2   1   45.56    3.24
  11   2  -1   46.83    3.36
 -11  -2   1   51.30    3.50
  11  -2  -1   44.32    3.41
  11   2   0  116.98    5.41
 -11  -2   0  132.45    5.80
 -11   2   0  129.96    5.72
  11  -2   0  127.92    5.84
  11  -2   1   29.24    2.93
 -11  -2  -1   29.05    2.81
  11   2   1   27.04    2.65
  11  -2   2   20.01    2.51
  11   2   2   15.15    2.16
  11   2   3   13.98    2.10
  11  -2   3   13.00    2.19
  11   2   4  137.23    3.79
  11   2   4  142.26    6.23
  11  -2   4  171.25    6.91
  11   2   5    5.89    1.26
  11   2   5    7.51    0.97
  11   2   5    8.39    1.96
  11  -2   5    6.18    1.77
  11   2   6  265.91    7.59
  11   2   6  267.42    6.41
  11  -2   6  297.02    9.74
  11   2   7    7.82    1.43
  11   2   7    9.61    1.25
  11  -2   7    9.65    2.07
  11   2   8  103.40    4.75
  11   2   8  100.35    3.82
  11  -2   8  108.24    5.76
  11   2   9   20.71    1.82
  11  -2   9   19.26    2.21
  11   2   9   19.71    2.19
  11  -2   9   24.05    3.00
  11  -2  10    7.05    1.56
  11   2  10    6.90    1.43
  11   2  10    4.57    1.51
  11  -2  10    4.55    1.94
  11   2  11   28.29    2.88
  11   2  11   28.83    2.45
  11  -2  11   28.02    3.22
  11   2  12  205.06    8.08
  11  -2  12  222.23    9.04
  11  -2  12  214.19    8.56
  11  -2  13    1.11    1.84
  11   2  13    2.13    1.78
  11  -2  14   15.50    2.84
  11   2  14   16.53    2.71
  11  -2  15    9.04    3.45
  11   2  15   15.00    2.68
  11  -2  16   14.96    3.08
  11   2  16   14.03    2.77
  11  -2  17    6.14    2.19
  11   2  17   11.50    2.69
  11  -2  18   10.28    2.79
  11   2  18   10.53    2.50
  11   3 -21   42.98    4.56
  11   3 -20    4.47    1.99
  11  -3 -20    2.13    1.67
  11  -3 -19   57.28    4.93
  11   3 -19   55.27    4.72
  11  -3 -18    8.64    2.35
  11   3 -18    4.71    1.87
  11  -3 -17    5.87    1.99
  11   3 -17    9.61    2.35
  11  -3 -17    7.26    1.47
  11   3 -16    9.89    2.60
  11  -3 -16    8.03    1.98
  11  -3 -16   11.10    1.72
  11  -3 -15    1.14    1.69
  11   3 -15    4.22    1.91
  11  -3 -15    0.71    1.09
  11   3 -14   17.77    2.54
  11  -3 -14   21.25    2.77
  11  -3 -14   26.71    2.33
  11   3 -13  147.82    6.52
  11  -3 -13  166.66    5.95
  11   3 -12   47.06    2.90
  11   3 -12   46.94    3.49
  11  -3 -12   46.76    3.15
  11  -3 -11  254.64    8.12
  11   3 -11  244.51    6.97
  11   3 -11  256.61    8.23
  11   3 -11  251.81    6.54
  11  -3 -11  266.89    7.97
 -11  -3  10   20.63    1.80
  11   3 -10   19.81    2.17
  11   3 -10   19.71    1.78
  11   3 -10   19.59    1.78
 -11   3  10   20.96    1.97
  11  -3 -10   23.94    2.43
  11   3  -9   52.56    2.60
 -11  -3   9   54.48    2.89
  11   3  -9   52.15    3.22
 -11  -3   9   58.37    2.08
 -11   3   9   54.35    2.90
  11   3  -9   55.80    2.95
  11  -3  -9   59.48    3.54
 -11  -3   8    0.03    0.80
  11   3  -8   -0.41    0.67
  11   3  -8    2.21    1.18
 -11   3   8   -0.59    0.92
 -11  -3   8    0.29    0.56
  11   3  -8    0.94    1.08
  11  -3  -8    0.05    1.24
 -11  -3   7   19.05    1.93
  11   3  -7   17.54    1.35
  11   3  -7   15.74    1.72
 -11   3   7   17.75    1.86
  11   3  -7   16.60    1.79
  11  -3  -7   20.85    2.31
 -11  -3   6    3.04    1.74
  11   3  -6    2.78    0.69
  11   3  -6    3.57    1.05
 -11   3   6    3.56    1.07
  11   3  -6    1.43    1.11
  11  -3  -6    3.70    1.43
  11   3  -5  311.95    6.31
 -11   3   5  331.04    9.31
  11   3  -5  299.17    7.31
 -11   3   5  320.29    8.74
  11   3  -5  312.85    8.65
 -11  -3   5  333.02    8.90
  11  -3  -5  327.54    9.49
 -11   3   4    9.64    1.73
  11   3  -4    6.68    0.75
  11   3  -4    7.53    1.07
 -11   3   4    7.47    1.38
  11  -3  -4    8.02    1.78
  11   3  -4    4.47    1.38
 -11  -3   4    8.82    1.57
 -11   3   3  247.10    7.96
  11   3  -3  225.27    5.50
  11   3  -3  237.73    7.53
  11  -3  -3  261.49    8.53
 -11  -3   3  267.77    8.02
  11   3  -2    6.24    0.81
 -11   3   2    8.10    1.63
  11   3  -2    3.65    1.27
 -11  -3   2    6.93    1.53
  11  -3  -2    8.54    2.05
 -11   3   1   29.63    2.67
  11   3  -1   27.66    2.64
 -11  -3   1   34.08    2.98
  11  -3  -1   32.36    3.10
  11   3   0   10.17    1.87
  11  -3   0    9.25    2.02
 -11  -3   0    8.72    1.90
  11   3   1  139.27    5.92
 -11  -3  -1  156.51    6.60
  11  -3   1  149.76    6.37
  11   3   2    4.14    0.47
  11   3   2    5.11    0.91
  11   3   2    1.24    1.32
  11  -3   2   -0.69    1.52
  11   3   3   48.09    1.54
  11   3   3   53.05    2.52
  11  -3   3   56.80    4.01
  11   3   4    9.27    0.78
  11   3   4    9.83    1.32
  11  -3   4   12.99    2.39
  11   3   5    8.64    0.88
  11   3   5    7.33    1.30
  11  -3   5    8.81    2.06
  11   3   6    2.69    0.70
  11   3   6    1.13    0.99
  11  -3   6    5.19    2.03
  11   3   7   47.32    2.22
  11   3   7   42.07    2.90
  11  -3   7   51.68    4.08
  11   3   8   14.36    1.92
  11   3   8   16.48    1.49
  11  -3   8   16.96    2.57
  11   3   9   14.13    2.03
  11   3   9   14.81    1.52
  11  -3   9   15.29    2.56
  11   3  10    8.01    1.77
  11  -3  10   11.55    2.58
  11   3  11    4.25    1.47
  11  -3  11    4.18    1.91
  11   3  12   26.73    2.96
  11  -3  12   27.44    3.31
  11   3  13  176.88    7.59
  11  -3  13  191.59    8.48
  11  -3  13  185.32    8.23
  11  -3  14    5.10    2.12
  11   3  14    0.57    1.59
  11  -3  15    2.90    2.18
  11   3  15    2.73    1.79
  11  -3  16   -3.28    2.23
  11   3  16    1.09    1.73
  11  -3  17   -0.73    2.04
  11   3  17    2.88    2.03
  11   3  18   34.67    4.12
  11   4 -21    3.33    2.03
  11  -4 -20   11.26    2.88
  11   4 -20    9.91    2.49
  11   4 -19   18.75    2.97
  11  -4 -19   22.88    3.50
  11  -4 -18   39.37    4.16
  11   4 -18   35.63    3.69
  11  -4 -17    1.82    1.46
  11   4 -17    1.67    1.66
  11  -4 -17    0.96    1.24
  11  -4 -16    6.52    1.93
  11   4 -16    3.55    1.56
  11  -4 -16    5.17    1.45
  11   4 -15   10.18    2.15
  11  -4 -15    8.89    2.22
  11  -4 -15    7.78    1.67
  11   4 -14  134.73    6.39
  11  -4 -14  159.11    5.90
  11   4 -13   17.13    2.28
  11  -4 -13   22.15    2.30
  11   4 -12  416.79   11.59
  11  -4 -12  459.23   11.34
  11   4 -11   15.31    2.09
  11  -4 -11   19.12    2.24
 -11  -4  10   80.10    3.38
  11   4 -10   86.87    4.29
 -11   4  10   84.83    3.98
  11  -4 -10   88.28    4.42
 -11  -4   9    3.00    0.97
  11   4  -9    5.29    1.39
 -11   4   9    3.04    1.00
 -11  -4   9    3.71    0.58
  11  -4  -9    4.39    1.55
  11   4  -8   42.68    2.74
 -11   4   8   47.51    3.02
 -11  -4   8   43.51    1.87
  11  -4  -8   48.15    3.32
 -11  -4   8   42.80    2.69
 -11  -4   7    6.87    1.27
  11   4  -7    7.94    1.23
 -11   4   7    8.15    1.57
  11  -4  -7    7.28    1.58
  11   4  -6    2.63    0.97
 -11   4   6   -0.14    0.97
  11  -4  -6   -0.87    1.42
 -11  -4   6    3.06    1.06
  11   4  -5   22.51    1.69
 -11   4   5   21.27    2.21
 -11  -4   5   22.85    2.22
  11  -4  -5   25.55    2.56
 -11   4   4  102.74    4.88
  11   4  -4   87.18    3.01
 -11   4   4   92.44    4.46
 -11  -4   4   99.18    4.62
  11  -4  -4   97.97    4.88
 -11   4   3    7.98    1.77
  11   4  -3    9.13    0.94
 -11   4   3    7.53    1.61
 -11  -4   3    9.78    1.72
  11  -4  -3    9.73    1.99
  11   4  -2    1.45    0.51
  11  -4  -2    3.37    1.62
 -11  -4   2    0.76    1.12
  11   4  -1    5.37    0.49
 -11  -4   1    4.74    1.47
  11  -4  -1    6.30    1.93
  11   4   0  551.62    9.77
 -11  -4   0  624.68   14.64
  11  -4   0  622.78   15.04
  11   4   1   33.95    1.57
  11  -4   1   36.64    3.34
  11   4   2   96.69    3.11
  11  -4   2  105.01    5.42
  11   4   3   57.38    2.55
  11  -4   3   64.04    4.30
  11   4   4   94.34    3.59
  11  -4   4  102.83    5.52
  11   4   5   46.93    2.68
  11  -4   5   52.75    4.04
  11   4   6  132.43    4.82
  11  -4   6  147.72    6.68
  11   4   7  101.52    4.41
  11  -4   7  103.93    5.70
  11   4   8    9.89    1.67
  11  -4   8    9.28    2.20
  11   4   9   47.39    3.30
  11  -4   9   58.09    4.43
  11   4  10  209.17    7.48
  11  -4  10  248.30    9.32
  11   4  11   26.07    2.71
  11  -4  11   21.77    2.92
  11   4  12   24.72    2.82
  11  -4  12   30.34    3.40
  11   4  13    3.23    1.49
  11  -4  13    2.07    1.67
  11   4  14   15.52    2.48
  11  -4  14   17.69    2.87
  11  -4  14   16.59    3.00
  11  -4  15    1.58    1.76
  11   4  15    1.45    1.82
  11  -4  16    5.28    2.30
  11   4  16    6.96    2.19
  11  -4  17    0.83    1.97
  11   4  17    0.88    2.09
  11   4  18   97.90    6.52
  11   4  19    8.01    2.62
  11  -5 -19    5.73    2.52
  11  -5 -18   10.51    2.55
  11   5 -18    6.27    1.84
  11  -5 -17   22.89    3.19
  11   5 -17   25.78    3.04
  11  -5 -17   30.82    2.75
  11   5 -16   12.46    2.40
  11  -5 -16   13.89    2.39
  11  -5 -16   17.85    2.18
  11   5 -15    2.17    1.54
  11  -5 -15    2.92    1.53
  11   5 -14    4.68    1.76
  11  -5 -14    1.93    1.24
  11   5 -13  239.26    8.45
  11  -5 -13  258.26    8.11
  11   5 -12   12.58    1.98
  11  -5 -12   19.28    2.36
  11   5 -11  593.93   14.25
 -11  -5  11  623.76   12.14
  11  -5 -11  661.15   14.85
 -11  -5  10   42.97    2.40
  11   5 -10   43.03    3.02
 -11   5  10   44.26    3.02
  11  -5 -10   51.44    3.47
  11  -5  -9   -0.61    1.37
 -11  -5   9    1.01    0.84
  11   5  -9    1.98    1.15
 -11   5   9   -0.38    1.09
 -11  -5   9    0.90    0.32
 -11  -5   8    4.96    1.14
  11   5  -8    3.40    1.10
 -11  -5   8    4.96    0.71
 -11   5   8    4.65    1.38
  11  -5  -8    5.54    1.61
  11   5  -7   25.57    1.97
 -11   5   7   28.20    2.47
 -11  -5   7   27.19    2.28
  11  -5  -7   28.92    2.76
  11   5  -6    7.40    1.15
 -11   5   6   10.76    1.75
  11  -5  -6    9.15    2.02
 -11  -5   6   10.24    1.60
  11   5  -5    9.01    1.09
 -11   5   5    9.49    1.69
 -11  -5   5   13.00    1.80
  11  -5  -5   11.57    2.02
 -11   5   4  135.34    5.56
 -11  -5   4  131.21    5.51
  11  -5  -4  129.92    5.78
 -11   5   3  417.54   11.10
 -11  -5   3  419.10   11.25
  11  -5  -3  419.70   11.52
 -11   5   2   28.35    2.67
  11  -5  -2   28.18    2.77
 -11  -5   2   25.56    2.53
  11  -5  -1   -1.20    1.55
 -11  -5   1   -1.02    1.24
  11  -5   0    5.57    1.84
 -11  -5   0    4.46    1.47
  11   5   1  630.65   10.71
  11  -5   1  677.82   16.36
  11   5   2   80.04    2.57
  11  -5   2   83.81    5.09
  11   5   3   12.92    1.20
  11  -5   3    8.11    2.01
  11   5   4   56.09    2.61
  11  -5   4   60.86    4.31
  11   5   5  413.09    9.40
  11  -5   5  440.58   12.70
  11   5   6   11.58    1.59
  11  -5   6   10.75    2.34
  11   5   7   36.08    2.62
  11  -5   7   42.63    3.80
  11   5   8    2.41    1.19
  11  -5   8    5.50    1.98
  11   5   9   76.77    4.10
  11  -5   9   90.45    5.48
  11   5  10    5.38    1.56
  11  -5  10    6.27    2.11
  11   5  11  127.86    5.84
  11  -5  11  142.78    7.17
  11   5  12    5.62    1.68
  11  -5  12    7.45    2.20
  11   5  13   14.58    2.37
  11  -5  13   15.65    2.92
  11   5  14    1.29    1.47
  11  -5  14    3.35    1.89
  11   5  15    1.47    1.56
  11  -5  15    4.87    2.01
  11  -5  15    2.28    1.98
  11  -5  16   13.95    3.21
  11   5  16   17.32    3.17
  11   5  17   64.20    5.07
  11   5  18    3.47    2.16
  11   5  19  146.29    8.08
  11  -6 -19    8.85    2.60
  11  -6 -18    1.38    1.77
  11  -6 -17    1.12    1.54
  11  -6 -17    1.04    1.46
  11  -6 -16    2.31    1.40
  11  -6 -15   26.33    2.72
  11  -6 -14  168.25    6.63
  11  -6 -13    8.64    1.79
  11  -6 -12  298.51    9.30
  11  -6 -11    4.24    1.53
 -11  -6  11    1.21    0.66
  11  -6 -10    7.11    1.73
 -11  -6  10    5.14    1.04
 -11   6  10    8.40    1.64
 -11  -6   9   12.40    1.52
  11  -6  -9   12.66    2.06
 -11   6   9   13.19    1.82
 -11   6   8   96.98    4.63
 -11  -6   8   96.84    4.06
  11  -6  -8   95.62    4.93
  11  -6  -7   13.64    2.18
 -11   6   7   13.77    2.01
 -11  -6   7   15.77    1.81
 -11   6   6   60.01    3.70
 -11  -6   6   57.63    3.39
  11  -6  -6   61.53    3.92
 -11   6   5   19.13    2.35
  11  -6  -5   17.50    2.38
 -11  -6   5   18.38    2.14
 -11  -6   4  409.14   11.02
  11  -6  -4  430.35   11.69
  11  -6  -3   61.14    4.09
 -11  -6   3   49.93    3.43
 -11  -6   2  187.08    6.86
  11  -6  -2  187.19    7.23
 -11  -6   1    7.53    1.70
  11  -6  -1    8.45    1.76
  11  -6   0  170.22    7.16
  11  -6   1   10.22    2.14
  11  -6   2   72.59    4.76
  11  -6   3    6.44    2.08
  11  -6   4    6.24    1.92
  11   6   5   10.66    1.37
  11  -6   5   13.03    2.39
  11   6   6  106.34    4.16
  11  -6   6  114.39    6.07
  11   6   7    3.39    1.24
  11  -6   7    0.88    1.65
  11   6   8   85.54    4.11
  11  -6   8   95.79    5.66
  11   6   9    6.81    1.68
  11  -6   9    7.19    2.34
  11   6  10  219.49    7.59
  11  -6  10  250.79    9.57
  11   6  11   -0.27    1.28
  11  -6  11    2.17    1.88
  11   6  12   13.22    2.17
  11  -6  12   14.92    2.72
  11   6  13    5.51    1.97
  11  -6  13    5.52    2.18
  11   6  14    5.86    1.84
  11  -6  14    2.10    1.82
  11   6  15    4.35    1.89
  11  -6  15    9.18    2.71
  11   6  16    8.46    2.18
  11  -6  16    1.90    1.71
  11  -6  16    7.49    2.55
  11  -7 -18    4.28    1.92
  11  -7 -18    1.83    1.37
  11  -7 -17   23.84    2.67
  11  -7 -16    4.24    1.67
  11  -7 -15    3.12    1.43
  11  -7 -14    9.17    2.02
  11  -7 -13  239.48    8.37
  11  -7 -12   13.13    2.15
 -11  -7  11   82.44    3.11
  11  -7 -11   85.40    4.78
 -11  -7  10   12.40    1.42
  11  -7 -10   14.52    2.28
  11  -7  -9   -0.11    1.31
 -11  -7   9   -0.16    0.79
  11  -7  -8   -0.62    1.50
 -11  -7   8    0.62    0.86
  11  -7  -7    6.41    1.76
 -11  -7   7    5.88    1.42
 -11  -7   6   39.31    2.94
  11  -7  -6   39.85    3.36
  11  -7  -5    2.83    1.54
 -11  -7   5    2.55    1.27
  11  -7  -4   14.20    2.21
 -11  -7   4   15.35    1.97
  11  -7  -3  213.76    7.91
 -11  -7   3  213.60    7.40
 -11  -7   2    6.19    1.51
  11  -7  -2    7.44    1.91
  11  -7  -1    3.99    1.62
  11  -7   0    2.12    1.62
  11  -7   1  231.04    8.59
  11  -7   2    4.24    1.82
  11  -7   3   12.51    2.27
  11  -7   4    4.15    2.02
  11  -7   5   62.42    4.70
  11  -7   6  120.23    6.47
  11  -7   7   70.68    4.94
  11  -7   8   -0.28    1.98
  11  -7   9   65.32    4.92
  11  -7  10   -0.08    1.77
  11  -7  11   59.86    4.79
  11  -7  12    0.40    1.78
  11  -7  13   31.31    3.67
  11  -7  14    1.11    1.70
  11  -7  15    0.33    1.92
  11  -7  16    4.69    2.17
  11  -7  17   13.57    2.81
  11  -8 -18   42.06    4.31
  11  -8 -18   55.34    4.16
  11  -8 -17    8.20    2.02
  11  -8 -16    3.83    1.64
  11  -8 -15    3.57    1.64
  11  -8 -14   25.19    2.84
  11  -8 -13   13.61    2.37
  11  -8 -12  203.32    7.86
  11  -8 -11    0.66    1.51
  11  -8 -10   -1.56    1.48
 -11  -8  10    1.56    0.90
  11  -8  -9   13.40    2.33
 -11  -8   9   12.58    1.53
  11  -8  -8    0.58    1.40
 -11  -8   8    1.03    0.50
 -11  -8   8    0.00    0.97
  11  -8  -7    1.75    1.45
 -11  -8   7    1.59    1.09
  11  -8  -6   69.34    4.42
 -11  -8   6   65.41    3.72
  11  -8  -5    6.60    1.83
 -11  -8   5    4.82    1.22
  11  -8  -4    3.30    1.76
 -11  -8   4    4.87    1.35
 -11  -8   3   -0.55    1.20
  11  -8  -3    1.77    1.61
  11  -8  -2   84.83    4.93
 -11  -8   2   90.28    4.67
  11  -8  -1   -0.73    1.60
  11  -8   0  116.43    6.00
  11  -8   1   17.28    2.60
  11  -8   2    5.31    1.82
  11  -8   3   11.69    2.30
  11  -8   4   36.47    3.81
  11  -8   5  102.76    6.22
  11  -8   6  159.92    7.72
  11  -8   7   15.65    2.77
  11  -8   8   -1.63    1.93
  11  -8   9    4.90    2.08
  11  -8  10   10.73    2.65
  11  -8  11   19.12    3.09
  11  -8  12  114.91    6.68
  11  -8  13   21.52    3.17
  11  -8  14   13.56    2.77
  11  -8  15    2.06    1.78
  11  -8  16   14.99    3.04
  11  -8  17   13.65    2.75
  11  -8  18   59.93    5.24
  11  -9 -18    8.62    2.16
  11  -9 -17   60.70    4.43
  11  -9 -16    2.16    1.63
  11  -9 -15    3.07    1.51
  11  -9 -14    4.65    1.67
  11  -9 -13   -0.70    1.64
  11  -9 -12    5.79    1.96
  11  -9 -11   44.52    3.77
  11  -9 -10    7.10    1.99
  11  -9  -9   97.67    5.38
 -11  -9   9   99.51    4.22
  11  -9  -8   20.48    2.69
 -11  -9   8   19.98    1.04
 -11  -9   8   20.26    2.10
 -11  -9   7   52.55    3.33
  11  -9  -7   55.58    4.12
  11  -9  -6   69.59    4.66
 -11  -9   6   65.16    3.72
 -11  -9   5  184.20    6.63
  11  -9  -5  187.15    7.66
  11  -9  -4   -0.13    1.72
 -11  -9   4    4.05    1.49
  11  -9  -3    4.99    1.96
 -11  -9   3    3.51    1.38
  11  -9  -2    2.73    1.79
  11  -9  -1    8.47    2.14
  11  -9   0   64.12    4.50
  11  -9   1   12.33    2.42
  11  -9   2    4.59    1.69
  11  -9   3  171.20    7.66
  11  -9   4   38.08    3.85
  11  -9   5   14.74    2.76
  11  -9   6   45.93    4.42
  11  -9   7  128.80    7.09
  11  -9   8   31.63    3.61
  11  -9   9    2.02    1.85
  11  -9  10    2.05    2.02
  11  -9  11   49.84    4.57
  11  -9  12    2.17    1.97
  11  -9  13  114.44    6.91
  11  -9  14    0.93    1.80
  11  -9  15    2.86    2.24
  11  -9  16    1.46    1.95
  11  -9  17   -3.80    2.12
  11 -10 -19    4.00    2.20
  11 -10 -18  154.40    7.44
  11 -10 -18  161.13    7.62
  11 -10 -17    1.81    1.70
  11 -10 -16    6.42    2.14
  11 -10 -15    2.05    1.77
  11 -10 -14   11.22    2.28
  11 -10 -13   18.59    2.74
  11 -10 -12    8.94    2.22
  11 -10 -11    5.18    1.90
  11 -10 -10    0.56    1.56
  11 -10  -9   35.43    3.57
  11 -10  -8    4.88    1.93
 -11 -10   8    8.78    0.86
 -11 -10   8    6.50    1.49
  11 -10  -7    8.63    2.20
 -11 -10   7    5.72    0.93
 -11 -10   7    5.21    1.14
 -11 -10   6  721.11   15.97
  11 -10  -6  737.24   17.93
  11 -10  -5   41.72    3.82
 -11 -10   5   44.66    3.20
  11 -10  -4   55.98    4.32
 -11 -10   4   55.18    3.65
  11 -10  -3   21.79    2.73
  11 -10  -2   37.50    3.70
  11 -10  -1    0.07    1.62
  11 -10   0   22.23    2.96
  11 -10   1   19.50    2.93
  11 -10   2   48.10    4.15
  11 -10   3    6.77    2.19
  11 -10   4  170.14    7.87
  11 -10   5    3.22    2.01
  11 -10   6   33.19    3.90
  11 -10   7   -1.31    2.15
  11 -10   8  251.21   10.25
  11 -10   9   16.67    2.92
  11 -10  10   18.14    3.13
  11 -10  11   11.18    2.81
  11 -10  12  167.94    8.39
  11 -10  13    7.00    2.33
  11 -10  14   11.69    2.83
  11 -10  15    2.51    2.05
  11 -10  16   33.15    4.03
  11 -10  17   16.09    3.19
  11 -11 -19   69.19    5.24
  11 -11 -18    1.30    2.01
  11 -11 -18    2.10    1.96
  11 -11 -17   87.05    5.68
  11 -11 -17   85.12    5.79
  11 -11 -16    2.02    2.00
  11 -11 -15   19.25    2.96
  11 -11 -14    2.21    1.73
  11 -11 -13   46.37    4.18
  11 -11 -12    0.67    1.59
  11 -11 -11    2.61    1.80
  11 -11 -10   51.76    4.23
  11 -11  -9  123.86    6.44
  11 -11  -8    0.01    1.65
  11 -11  -7  147.99    7.05
 -11 -11   7  135.59    3.95
 -11 -11   7  142.35    5.63
  11 -11  -6    3.33    1.92
 -11 -11   6    0.66    0.76
 -11 -11   6   -0.91    1.04
  11 -11  -5  421.92   12.73
 -11 -11   5  403.23   11.06
  11 -11  -4   71.77    4.94
  11 -11  -3   49.96    4.21
  11 -11  -2    1.23    1.68
  11 -11  -1   20.61    2.81
  11 -11   0    7.10    2.22
  11 -11   1   32.44    3.61
  11 -11   2    6.54    2.05
  11 -11   3  310.53   11.00
  11 -11   4    9.67    2.32
  11 -11   5  102.31    6.21
  11 -11   6    7.50    2.29
  11 -11   7   92.32    6.23
  11 -11   8   40.10    4.27
  11 -11   9   49.50    4.65
  11 -11  10   16.40    2.94
  11 -11  11  142.86    7.78
  11 -11  12    5.12    2.36
  11 -11  13  222.87    9.94
  11 -11  14   10.63    2.70
  11 -11  15    4.85    2.44
  11 -11  16    1.76    1.91
  11 -12 -19    6.18    2.23
  11 -12 -18   80.34    5.63
  11 -12 -18   72.51    5.50
  11 -12 -17    1.28    1.87
  11 -12 -17    1.55    1.86
  11 -12 -16    1.03    1.82
  11 -12 -15   -0.65    1.79
  11 -12 -14   56.96    4.75
  11 -12 -13    7.95    2.33
  11 -12 -12    1.31    1.83
  11 -12 -11   -0.27    1.90
  11 -12 -10   26.65    3.16
  11 -12  -9   -1.90    1.95
  11 -12  -8   10.62    2.39
  11 -12  -7   20.66    3.11
  11 -12  -6  415.77   12.93
 -11 -12   6  398.11    9.10
  11 -12  -5    9.05    2.34
 -11 -12   5    7.73    1.39
  11 -12  -4  107.17    6.18
  11 -12  -3   20.97    3.10
  11 -12  -2    4.60    2.00
  11 -12  -1   13.33    4.03
  11 -12   0    9.05    2.19
  11 -12   1    4.99    2.16
  11 -12   2  128.07    6.96
  11 -12   3    7.07    2.41
  11 -12   4  192.16    8.64
  11 -12   5    3.58    2.14
  11 -12   6    4.29    2.08
  11 -12   7    5.49    2.34
  11 -12   8   37.56    4.27
  11 -12   9   13.49    2.95
  11 -12  10   24.61    3.69
  11 -12  11   11.40    2.91
  11 -12  12  330.28   12.55
  11 -12  13    0.71    1.83
  11 -12  14    8.91    2.64
  11 -12  15   -2.28    2.19
  11 -13 -18   17.19    3.35
  11 -13 -18   17.43    3.37
  11 -13 -17   42.67    4.47
  11 -13 -16   14.22    3.03
  11 -13 -15    0.45    1.73
  11 -13 -14   14.77    3.08
  11 -13 -13    2.66    1.97
  11 -13 -12    9.31    2.53
  11 -13 -11   -0.14    1.77
  11 -13 -10    7.71    2.31
  11 -13  -9   19.53    3.05
  11 -13  -8    3.71    2.11
  11 -13  -7  111.00    6.48
  11 -13  -6    5.37    2.23
 -11 -13   6    6.12    1.14
  11 -13  -5  201.65    8.84
 -11 -13   5  198.51    6.31
  11 -13  -4   24.13    3.28
 -11 -13   4   26.08    2.23
  11 -13  -3   57.57    4.81
  11 -13  -2    1.82    1.81
  11 -13  -1   46.99    4.34
  11 -13   0    6.48    2.29
  11 -13   1    2.79    1.96
  11 -13   2   10.21    2.45
  11 -13   3   20.66    3.09
  11 -13   4    4.64    2.25
  11 -13   5   38.97    4.09
  11 -13   6    3.49    2.38
  11 -13   7  111.82    6.88
  11 -13   8   33.14    4.02
  11 -13   9    0.55    1.95
  11 -13  10    6.08    2.33
  11 -13  11   99.74    6.69
  11 -13  12   15.55    3.26
  11 -13  13  101.51    6.81
  11 -13  14   11.57    2.89
  11 -14 -16    1.97    2.47
  11 -14 -15    5.13    2.26
  11 -14 -14    5.33    2.31
  11 -14 -13   19.30    3.13
  11 -14 -12   47.23    4.53
  11 -14 -11    4.59    2.24
  11 -14 -10    2.41    1.76
  11 -14  -9    0.37    2.03
  11 -14  -8   -1.43    2.03
  11 -14  -7   -0.24    1.92
  11 -14  -6   56.62    4.81
  11 -14  -5    9.29    2.37
 -11 -14   5    9.49    1.51
  11 -14  -4   -2.00    2.03
 -11 -14   4   -0.31    1.13
  11 -14  -3    5.64    2.24
 -11 -14   3    5.08    1.36
  11 -14  -2    9.39    2.38
  11 -14  -1    7.90    2.60
  11 -14   0  190.67    8.86
  11 -14   1   65.89    5.27
  11 -14   2    8.52    2.48
  11 -14   3    7.26    2.40
  11 -14   4   40.06    4.22
  11 -14   5    3.94    2.23
  11 -14   6   63.15    5.32
  11 -14   7    8.68    2.75
  11 -14   8    2.07    2.11
  11 -14   9    3.63    2.23
  11 -14  10   -1.39    2.12
  11 -14  11   21.25    3.74
  11 -14  12   55.55    5.19
  11 -14  13   -1.58    1.91
  11 -15 -13   63.27    5.49
  11 -15 -12   22.99    3.68
  11 -15 -11   88.50    6.39
  11 -15 -10   -0.16    1.85
  11 -15  -9   -0.47    2.07
  11 -15  -8    0.26    1.88
  11 -15  -7    1.30    1.77
  11 -15  -6    9.87    2.28
  11 -15  -5    2.35    2.04
  11 -15  -4   10.41    2.56
 -11 -15   4    9.64    1.72
  11 -15  -3   38.95    4.21
 -11 -15   3   41.11    3.12
  11 -15  -2   16.42    3.01
 -11 -15   2   14.50    2.17
  11 -15  -1    8.07    2.42
  11 -15   0   19.37    3.26
  11 -15   1  158.97    8.27
  11 -15   2   18.94    3.20
  11 -15   3    6.48    2.40
  11 -15   4   -0.74    1.88
  11 -15   5   55.04    5.09
  11 -15   6    9.99    2.74
  11 -15   7   51.59    5.06
  11 -15   8    1.53    1.95
  11 -15   9   36.69    4.44
  11 -15  10   13.39    3.19
  11 -15  11   -3.13    2.38
  11 -16 -10   51.93    5.06
  11 -16  -9    3.97    2.19
  11 -16  -8   19.35    3.26
  11 -16  -7    3.95    2.24
  11 -16  -6   -2.77    2.38
  11 -16  -5   14.89    2.90
  11 -16  -4   29.79    3.84
  11 -16  -3    8.23    2.65
 -11 -16   3   11.61    1.99
  11 -16  -2   16.01    3.19
 -11 -16   2   14.37    2.10
  11 -16  -1    3.04    2.54
 -11 -16   1    3.19    1.43
 -11 -16   0  255.64    9.07
  11 -16   0  283.26   11.39
  11 -16   1   12.88    2.90
  11 -16   2  127.39    7.46
  11 -16   3    4.47    2.11
  11 -16   4   63.67    5.43
  11 -16   5    3.27    4.89
  11 -16   6   56.89    5.14
  11 -16   7   -0.14    2.00
  11 -16   8    5.08    2.36
  11 -17  -4   14.72    3.07
  11 -17  -3   93.09    6.55
  11 -17  -2    2.49    2.22
 -11 -17   2    1.68    1.46
  11 -17  -1    2.56    1.94
 -11 -17   1    3.81    1.84
  11 -17   0    4.79    2.49
 -11 -17   0    6.88    2.35
 -11 -17  -1   90.44    5.55
  11 -17   1   90.92    6.44
  11 -17   2   13.32    2.98
  11 -17   3   95.70    6.68
 -11 -18   0  124.10    6.50
 -11 -18  -1    4.83    2.09
 -11 -18  -2   43.58    4.12
 -11 -18  -3    7.35    2.23
 -11 -19  -1   40.39    3.96
 -11 -19  -2    9.40    2.74
 -11 -19  -3    6.86    2.35
 -11 -19  -4    2.13    1.81
  12   0 -20   13.18    2.69
  12   0 -19    4.68    2.06
  12   0 -18  242.01   10.00
  12   0 -17   -0.69    1.60
  12   0 -16   32.57    3.51
  12   0 -15    2.49    1.69
  12   0 -15    1.63    1.17
  12   0 -14    0.90    1.60
  12   0 -14    0.30    1.03
  12   0 -13    5.26    1.82
  12   0 -13    1.95    1.19
  12   0 -13    3.49    1.15
  12   0 -12    3.50    1.56
  12   0 -12    5.62    1.45
  12   0 -12    2.69    1.13
  12   0 -11    0.91    1.13
  12   0 -11    1.88    1.46
 -12   0  11    1.53    0.74
  12   0 -11    1.65    1.18
  12   0 -10  325.62    8.79
  12   0 -10  305.77    9.49
 -12   0  10  324.82    7.66
  12   0 -10  363.39    9.39
  12   0  -9   12.83    1.69
 -12   0   9   11.00    1.35
  12   0  -9   14.85    1.95
  12   0  -8  205.79    6.30
 -12   0   8  219.66    7.08
 -12   0   8  231.30    6.39
  12   0  -8  244.30    7.55
 -12   0   7   11.89    1.77
 -12   0   7   13.90    1.56
  12   0  -7   20.52    2.29
 -12   0   6   73.35    3.94
 -12   0   6   73.13    3.51
  12   0  -6   79.81    4.23
 -12   0   5    5.02    1.42
  12   0  -5    4.27    1.55
 -12   0   4   24.37    2.48
  12   0  -4   18.78    2.21
 -12   0   3    4.71    1.58
  12   0  -3    4.07    1.70
 -12   0   2  895.79   19.25
  12   0  -2  885.07   19.22
  12   0  -1   19.99    2.47
  12   0   0   49.71    3.67
  12   0   1    3.94    1.80
  12   0   2    6.53    1.95
  12   0   3    0.12    1.53
  12   0   4  317.50   10.22
  12   0   5    9.55    2.29
  12   0   6  230.55    8.77
  12   0   7   -0.48    0.89
  12   0   7   -1.03    1.61
  12   0   8   86.92    5.38
  12   0   8   84.80    3.87
  12   0   9   -2.83    1.89
  12   0   9    0.70    1.06
  12   0   9   -0.81    1.28
  12   0  10   48.65    3.71
  12   0  10   44.64    3.02
  12   0  11    5.26    1.74
  12   0  12  710.11   17.69
  12   0  13   17.93    2.88
  12   0  14  112.35    6.36
  12   0  15    3.91    2.00
  12   0  16    9.73    2.63
  12   0  17   -0.06    1.83
  12  -1 -20   11.76    2.72
  12   1 -20    6.32    1.92
  12  -1 -19  153.08    8.10
  12   1 -19  160.09    8.15
  12   1 -18   -0.07    1.90
  12  -1 -18    0.84    1.53
  12  -1 -17  146.70    7.56
  12   1 -17  142.46    7.35
  12   1 -16    5.58    1.95
  12  -1 -16    8.99    2.33
  12  -1 -15    8.04    1.99
  12   1 -15   10.75    2.26
  12  -1 -15   13.24    1.86
  12  -1 -14    9.11    2.15
  12   1 -14    9.94    1.88
  12   1 -14    7.91    2.03
  12  -1 -14   12.41    1.84
  12   1 -14   11.09    1.50
  12   1 -13   68.24    4.49
  12  -1 -13   67.40    4.55
  12   1 -13   66.57    3.83
  12  -1 -13   71.86    3.84
  12   1 -13   82.05    3.63
  12  -1 -12   22.12    2.72
  12   1 -12   22.75    2.23
  12   1 -12   19.60    2.50
  12  -1 -12   22.35    2.38
  12  -1 -12   23.25    2.37
  12   1 -12   26.90    2.22
  12   1 -11   50.45    3.15
  12  -1 -11   56.58    3.48
  12  -1 -11   51.18    3.81
  12   1 -11   49.41    3.59
 -12   1  11   53.92    2.71
  12  -1 -11   57.86    3.58
  12   1 -11   60.45    3.34
  12   1 -10   58.13    3.19
  12  -1 -10   58.64    3.42
  12   1 -10   51.12    3.54
 -12  -1  10   58.08    2.52
 -12   1  10   54.31    2.79
  12  -1 -10   64.71    3.84
  12   1 -10   63.10    3.45
  12   1  -9  514.02   11.60
 -12  -1   9  529.64   12.25
  12   1  -9  504.52   12.70
 -12   1   9  533.98   11.61
 -12  -1   9  540.82   10.93
  12   1  -9  580.27   12.78
  12  -1  -9  557.51   13.11
  12   1  -8   50.27    2.72
 -12  -1   8   46.69    2.98
  12   1  -8   52.43    3.32
 -12  -1   8   52.62    2.66
 -12   1   8   51.69    2.89
  12   1  -8   54.28    3.32
  12  -1  -8   53.57    3.53
 -12   1   7    3.15    1.16
  12   1  -7    1.73    0.84
 -12  -1   7    2.28    1.04
 -12  -1   7    3.10    0.97
 -12   1   7    3.04    1.07
  12  -1  -7    1.22    1.27
  12   1  -7    3.54    1.36
 -12   1   6    2.86    1.07
 -12  -1   6    0.41    0.98
 -12   1   6    1.50    0.96
  12  -1  -6    2.59    1.26
  12   1  -6    1.90    1.33
 -12   1   5  325.82    9.59
 -12   1   5  321.28    8.86
 -12  -1   5  359.09    9.81
  12   1  -5  362.75    9.89
  12  -1  -5  370.58   10.30
 -12  -1   4    8.87    1.57
 -12   1   4    9.71    1.87
  12  -1  -4    9.23    1.70
  12   1  -4   10.77    1.90
 -12   1   3   39.22    3.12
 -12  -1   3   47.24    3.39
  12   1  -3   40.13    3.22
  12  -1  -3   38.86    3.23
  12  -1  -2   15.24    2.19
 -12  -1   2   17.33    2.14
  12   1  -2   15.68    2.26
  12   1  -1  932.79   19.88
  12  -1  -1  914.42   19.93
  12   1   0   17.59    2.37
  12  -1   0   17.07    2.30
  12   1   1  471.87   12.72
  12  -1   1  489.95   13.02
  12   1   2    8.12    2.00
  12  -1   2    7.05    1.86
  12   1   3  131.62    6.23
  12  -1   3  126.09    6.13
  12   1   4    4.52    1.81
  12  -1   4    4.55    1.79
  12   1   5  101.30    3.64
  12   1   5  103.46    5.54
  12  -1   5  110.28    5.79
  12   1   6   16.67    1.55
  12   1   6   19.82    2.78
  12  -1   6   26.06    3.03
  12   1   7   53.23    3.42
  12   1   7   46.12    2.60
  12  -1   7   56.86    4.29
  12   1   7   50.50    4.10
  12   1   8    1.38    1.02
  12   1   8    0.91    1.36
  12  -1   8    1.00    1.15
  12  -1   8    0.57    1.59
  12  -1   9   95.05    5.64
  12  -1   9   84.74    4.20
  12   1   9   92.97    4.03
  12   1   9   92.34    4.84
  12  -1  10    4.50    1.94
  12   1  10    1.72    1.34
  12   1  10    4.35    1.32
  12  -1  10    1.03    1.20
  12   1  11  122.91    6.00
  12  -1  11  125.10    6.73
  12  -1  11  117.44    6.03
  12   1  12   37.22    3.52
  12  -1  12   35.02    3.69
  12  -1  13  474.01   14.05
  12   1  13  470.83   13.78
  12   1  14   16.24    2.82
  12  -1  14   12.33    3.82
  12  -1  15   34.71    3.89
  12   1  15   33.68    3.78
  12  -1  16   11.42    2.72
  12   1  16   14.11    2.94
  12  -1  17    3.26    2.53
  12   1  17    1.44    1.99
  12   1  18    4.50    2.26
  12   2 -20    3.42    1.72
  12  -2 -20    1.94    1.85
  12   2 -19    7.36    2.25
  12  -2 -19    5.70    2.12
  12  -2 -18   72.05    5.47
  12   2 -18   75.59    5.55
  12  -2 -17    7.62    2.19
  12   2 -17    4.38    1.66
  12   2 -16  135.64    6.93
  12  -2 -16  126.61    6.83
  12  -2 -16  147.68    5.62
  12  -2 -15    6.87    1.95
  12   2 -15    7.75    2.01
  12  -2 -15    8.58    1.71
  12  -2 -14   -3.79    1.97
  12   2 -14    1.06    1.41
  12   2 -14   -1.02    1.39
  12   2 -14    0.13    0.79
  12  -2 -14    0.32    1.36
  12   2 -13    3.47    1.27
  12  -2 -13    3.89    1.59
  12   2 -13    3.08    1.61
  12   2 -13    2.44    1.02
  12  -2 -13    1.68    1.29
  12   2 -12   49.63    3.09
  12   2 -12   45.61    3.58
  12   2 -12   55.56    2.99
  12  -2 -12   61.93    3.74
  12  -2 -11    9.19    1.77
  12   2 -11    6.66    1.42
  12   2 -11    7.11    1.72
 -12   2  11    5.53    1.23
  12   2 -11    6.64    1.33
  12  -2 -11    9.67    1.82
  12   2 -10   29.47    2.20
  12  -2 -10   29.44    2.55
 -12  -2  10   27.99    2.24
  12   2 -10   26.58    2.52
  12   2 -10   34.28    2.56
 -12  -2  10   31.00    1.66
 -12   2  10   29.32    2.20
  12  -2 -10   31.85    2.89
  12   2  -9   37.96    2.38
 -12  -2   9   37.94    2.63
  12   2  -9   38.12    2.88
 -12   2   9   41.35    2.69
  12   2  -9   43.64    2.89
 -12  -2   9   42.24    2.10
  12  -2  -9   42.24    3.32
  12   2  -8    3.47    0.94
 -12  -2   8    2.07    0.97
  12   2  -8    5.15    1.40
 -12   2   8    4.75    1.29
 -12  -2   8    5.35    0.96
  12   2  -8    5.08    1.45
  12  -2  -8    3.73    1.55
 -12  -2   7   42.63    2.91
  12   2  -7   37.69    2.10
 -12   2   7   42.95    3.10
  12   2  -7   38.57    2.60
  12   2  -7   46.02    3.07
 -12  -2   7   41.26    2.34
 -12   2   7   40.75    2.69
  12  -2  -7   46.81    3.47
  12   2  -6  270.13    6.49
 -12   2   6  276.64    8.59
  12   2  -6  287.43    7.63
 -12   2   6  286.45    8.13
  12   2  -6  316.51    8.77
  12  -2  -6  290.91    9.16
 -12  -2   6  300.03    8.56
 -12   2   5   16.19    2.16
 -12  -2   5   19.40    2.09
  12   2  -5   19.61    1.76
 -12   2   5   18.32    2.03
  12   2  -5   22.22    2.38
  12  -2  -5   16.44    2.36
 -12   2   4   27.53    2.59
  12   2  -4   34.23    2.91
  12  -2  -4   30.16    2.95
 -12  -2   4   30.97    2.68
  12  -2  -3   -0.25    1.46
  12   2  -3   -0.96    1.41
 -12  -2   3   -0.25    1.11
  12  -2  -2   13.49    2.13
  12   2  -2   19.05    2.33
 -12  -2   2   19.56    2.34
  12  -2  -1    1.80    1.41
  12   2  -1    6.78    1.80
  12   2   0  705.11   16.54
  12  -2   0  726.01   16.97
  12  -2   1   11.71    2.12
  12   2   1   12.56    2.16
  12   2   2   36.71    3.31
  12  -2   2   38.72    3.45
  12   2   3   10.93    2.01
  12  -2   3   14.64    2.51
  12   2   4   75.48    2.66
  12   2   4   79.07    4.79
  12  -2   4   82.89    5.03
  12   2   5   94.25    4.04
  12   2   5   92.25    3.10
  12   2   5   87.13    5.19
  12  -2   5  106.39    5.75
  12   2   6   12.53    1.26
  12   2   6   13.34    1.77
  12  -2   6   11.18    2.25
  12   2   7   84.97    3.40
  12   2   7   85.95    4.25
  12  -2   7   92.39    5.53
  12   2   8   25.55    1.92
  12   2   8   26.12    2.61
  12  -2   8   29.46    3.37
  12   2   9   30.13    2.73
  12   2   9   30.48    2.19
  12  -2   9   33.94    2.89
  12  -2   9   36.54    3.62
  12  -2  10    5.53    1.55
  12   2  10    7.80    1.89
  12  -2  10    7.65    2.20
  12  -2  11   26.10    3.32
  12   2  11   25.73    2.91
  12   2  12  272.34    9.60
  12  -2  12  285.17   10.72
  12  -2  12  286.89   10.20
  12  -2  13   22.29    3.04
  12   2  13   20.59    2.85
  12  -2  14   48.64    4.35
  12   2  14   40.40    3.93
  12  -2  15    2.51    1.87
  12   2  15    5.44    2.18
  12  -2  16    4.62    2.30
  12   2  16    7.01    2.43
  12  -2  17    5.85    2.46
  12   2  17    7.54    2.46
  12   2  18   33.73    4.19
  12   3 -20    4.09    2.05
  12  -3 -20    8.45    2.40
  12   3 -19   28.95    3.55
  12  -3 -19   31.45    3.73
  12  -3 -18   39.33    4.18
  12   3 -18   41.81    4.18
  12  -3 -17   -0.25    1.53
  12   3 -17    3.68    2.07
  12   3 -16   21.67    3.02
  12  -3 -16   24.49    3.09
  12  -3 -16   30.41    2.61
  12  -3 -15    3.63    1.70
  12   3 -15    1.30    1.43
  12  -3 -15    3.42    1.24
  12   3 -14    6.47    1.81
  12  -3 -14   10.47    2.41
  12  -3 -14   10.71    1.79
  12   3 -13   54.22    3.94
  12  -3 -13   59.84    3.70
  12   3 -12   21.26    2.54
  12   3 -12   15.22    1.76
  12  -3 -12   20.22    2.31
  12   3 -11  228.61    6.68
  12   3 -11  231.31    7.90
 -12   3  11  252.93    7.21
  12   3 -11  240.03    6.72
  12  -3 -11  262.07    8.17
 -12  -3  10   46.68    2.78
  12   3 -10   45.41    2.59
  12   3 -10   49.58    3.34
  12   3 -10   48.01    2.83
 -12  -3  10   49.26    1.86
 -12   3  10   48.74    2.94
  12  -3 -10   50.11    3.54
  12   3  -9  113.32    3.98
 -12  -3   9  121.60    4.72
  12   3  -9  120.48    5.01
 -12   3   9  123.18    4.86
  12   3  -9  124.57    4.81
 -12  -3   9  127.83    3.62
  12  -3  -9  136.20    5.80
 -12  -3   8  149.11    5.53
  12   3  -8  153.41    4.48
  12   3  -8  153.46    5.48
 -12  -3   8  159.76    4.50
  12   3  -8  163.79    5.68
 -12   3   8  157.19    5.69
  12  -3  -8  166.51    6.51
  12   3  -7    5.37    0.91
 -12  -3   7    5.36    1.28
  12   3  -7    6.73    1.25
 -12   3   7    5.39    1.27
  12  -3  -7    5.96    1.78
  12   3  -7    5.84    1.39
 -12   3   6   13.16    2.00
 -12  -3   6   18.61    2.04
  12   3  -6   14.15    1.13
  12   3  -6   16.33    1.68
 -12   3   6   15.22    1.86
  12  -3  -6   16.86    2.40
  12   3  -6   15.76    1.91
  12   3  -5  162.15    3.99
  12   3  -5  169.55    5.02
 -12   3   5  164.09    6.09
  12   3  -5  170.08    6.24
  12  -3  -5  175.70    7.04
 -12  -3   5  186.55    6.52
  12   3  -4   48.59    1.80
  12   3  -4   51.14    2.38
 -12   3   4   50.78    3.31
  12   3  -4   50.21    3.38
  12  -3  -4   46.29    3.69
 -12  -3   4   59.65    3.66
  12   3  -3  178.81    4.67
  12   3  -3  169.74    6.49
  12  -3  -3  186.77    7.40
 -12  -3   3  197.61    7.05
  12   3  -2    2.50    0.68
  12   3  -2    2.06    1.39
  12  -3  -2    0.14    1.52
 -12  -3   2    3.25    1.41
  12   3  -1   18.49    1.14
  12   3  -1   19.32    2.25
  12  -3  -1   23.46    2.85
  12   3   0   13.14    2.06
  12  -3   0   16.06    2.34
  12   3   1  125.09    5.76
  12  -3   1  131.40    6.20
  12   3   2   12.19    1.28
  12   3   2    6.96    0.55
  12  -3   2    8.37    2.07
  12   3   3    0.62    0.79
  12   3   3    2.51    0.49
  12  -3   3    3.17    1.68
  12   3   4    8.67    0.77
  12   3   4    8.70    1.33
  12  -3   4   11.34    2.33
  12   3   5    8.94    0.91
  12   3   5    8.21    1.29
  12  -3   5    8.44    2.18
  12   3   6   25.78    2.22
  12   3   6   24.54    1.47
  12  -3   6   24.37    3.08
  12   3   7  235.08    5.72
  12   3   7  229.90    7.23
  12  -3   7  263.75    9.55
  12   3   8   -0.04    1.29
  12   3   8    2.07    0.86
  12  -3   8   -1.07    1.80
  12   3   9   43.30    3.22
  12  -3   9   46.92    4.12
  12   3  10    1.69    1.33
  12  -3  10    2.90    2.14
  12   3  11    3.15    1.65
  12  -3  11    1.07    1.75
  12   3  12   33.62    3.31
  12  -3  12   31.40    3.69
  12   3  13   64.05    4.68
  12  -3  13   64.01    5.01
  12  -3  13   64.01    4.97
  12  -3  14   34.02    3.92
  12   3  14   33.82    3.46
  12  -3  15   -2.67    2.11
  12   3  15    2.97    1.72
  12  -3  16   25.53    3.63
  12   3  16   31.50    3.62
  12  -3  17    1.55    2.13
  12   3  17    2.93    1.93
  12   3  18    3.16    2.17
  12   4 -20   -0.50    1.71
  12   4 -19   17.58    3.10
  12  -4 -19   14.81    2.91
  12  -4 -18   19.34    3.22
  12   4 -18   17.60    2.89
  12  -4 -17   21.94    3.11
  12   4 -17   25.65    3.25
  12  -4 -16    1.26    1.49
  12   4 -16    0.67    1.52
  12  -4 -16    1.98    1.53
  12   4 -15   13.16    2.52
  12  -4 -15   10.58    2.22
  12  -4 -15   16.67    2.25
  12   4 -14    2.40    1.66
  12  -4 -14    3.81    1.50
  12   4 -13    2.07    1.45
  12  -4 -13    1.38    1.46
  12   4 -12  289.96    9.27
  12  -4 -12  325.72    9.53
 -12  -4  11   29.77    2.12
  12   4 -11   26.86    2.60
 -12   4  11   26.52    2.43
  12  -4 -11   33.19    2.96
 -12  -4  10  329.12    8.43
  12   4 -10  321.16    9.24
 -12   4  10  351.37    9.31
  12  -4 -10  359.77   10.12
 -12  -4   9   33.09    2.42
  12   4  -9   32.05    2.56
 -12   4   9   33.41    2.70
 -12  -4   9   31.55    1.60
  12  -4  -9   34.07    3.00
  12   4  -8  134.20    5.02
 -12   4   8  149.79    5.67
 -12  -4   8  140.31    4.01
  12  -4  -8  152.77    6.28
 -12  -4   8  141.15    5.31
 -12  -4   7    1.92    0.96
  12   4  -7    1.53    1.03
 -12   4   7    1.11    0.98
  12  -4  -7    2.87    1.51
  12   4  -6  147.28    4.75
 -12   4   6  149.78    5.86
 -12  -4   6  156.84    5.86
  12  -4  -6  164.57    6.68
  12   4  -5    5.39    1.02
 -12   4   5    4.77    1.46
  12  -4  -5    6.78    1.92
 -12  -4   5    5.43    1.52
  12   4  -4   17.94    1.36
 -12   4   4   18.88    2.17
  12  -4  -4   20.40    2.59
 -12  -4   4   15.45    2.02
  12   4  -3    2.24    0.68
 -12   4   3    1.61    1.20
 -12  -4   3    2.92    1.44
  12  -4  -3    5.46    1.90
  12   4  -2   25.03    1.16
 -12  -4   2   28.97    2.86
  12  -4  -2   31.95    3.20
  12   4  -1    2.43    0.44
  12  -4  -1    2.08    1.63
  12   4   0   10.79    0.86
  12  -4   0   10.45    2.21
  12   4   1   13.17    1.09
  12  -4   1   14.70    2.49
  12   4   2   95.99    3.18
  12  -4   2  105.48    5.59
  12   4   3    6.80    1.09
  12  -4   3    7.73    2.01
  12   4   4  205.36    5.80
  12  -4   4  227.64    8.68
  12   4   5   59.90    3.09
  12  -4   5   73.48    4.83
  12   4   6  251.43    7.28
  12  -4   6  291.71   10.07
  12   4   7    8.22    1.51
  12  -4   7    6.63    2.08
  12   4   8   66.12    3.77
  12  -4   8   80.51    5.26
  12   4   9    2.15    1.19
  12  -4   9    5.91    2.04
  12   4  10   21.13    2.52
  12  -4  10   28.54    3.48
  12   4  11   11.75    2.09
  12  -4  11   13.37    2.71
  12   4  12   17.49    2.47
  12  -4  12   24.34    3.44
  12   4  13   14.94    2.51
  12  -4  13   11.45    2.69
  12   4  14   10.93    2.43
  12  -4  14   11.11    2.45
  12  -4  14   11.87    2.81
  12  -4  15   12.51    2.97
  12   4  15    4.06    1.86
  12  -4  16   12.52    2.70
  12   4  16   18.79    3.12
  12   4  17    5.79    2.34
  12   4  18   73.52    5.75
  12   5 -19   -7.24    2.73
  12  -5 -19   -0.74    1.54
  12  -5 -18    6.89    2.30
  12   5 -18    4.30    1.85
  12  -5 -17    5.09    1.80
  12   5 -17    2.66    1.69
  12  -5 -17   10.30    1.86
  12   5 -16   20.70    2.97
  12  -5 -16   17.18    2.78
  12  -5 -16   20.01    2.31
  12   5 -15  110.38    5.96
  12  -5 -15  131.88    5.72
  12   5 -14    1.24    1.45
  12  -5 -14   -0.25    1.36
  12   5 -13   92.00    5.02
  12  -5 -13  105.44    5.10
  12   5 -12    7.43    1.75
  12  -5 -12    9.73    2.00
 -12  -5  11  462.24   10.15
  12   5 -11  443.99   11.69
 -12   5  11  470.62   11.67
  12  -5 -11  491.99   12.54
 -12  -5  10   13.26    1.50
  12   5 -10   14.05    1.91
 -12   5  10   14.95    2.06
  12  -5 -10   14.11    2.27
  12   5  -9   45.76    2.99
 -12   5   9   47.95    3.13
 -12  -5   9   55.42    1.82
  12  -5  -9   51.64    3.75
 -12  -5   9   52.50    3.04
  12   5  -8   98.49    4.09
 -12   5   8  103.59    4.86
 -12  -5   8   93.21    3.01
  12  -5  -8  106.03    5.30
 -12  -5   8   97.48    4.33
  12   5  -7  119.58    4.35
 -12   5   7  136.26    5.65
 -12  -5   7  134.08    5.26
  12  -5  -7  138.65    6.08
  12   5  -6   17.14    1.52
 -12   5   6   18.02    2.25
 -12  -5   6   16.49    1.98
  12  -5  -6   15.40    2.28
  12   5  -5  217.40    5.49
 -12  -5   5  239.86    7.69
  12  -5  -5  229.90    8.15
 -12  -5   4   24.56    2.51
  12  -5  -4   22.00    2.73
 -12  -5   3  277.31    8.95
  12  -5  -3  264.95    9.18
  12  -5  -2    7.93    2.21
  12  -5  -1   23.12    2.87
  12  -5   0   -0.87    1.77
  12   5   1   42.23    1.50
  12  -5   1   43.26    3.85
  12   5   2    3.95    0.77
  12  -5   2    3.79    1.83
  12   5   3   29.95    1.73
  12  -5   3   31.88    3.26
  12   5   4   19.81    1.64
  12  -5   4   20.59    2.97
  12   5   5  376.81    8.93
  12  -5   5  424.44   12.66
  12   5   6   30.96    2.35
  12  -5   6   37.98    3.79
  12   5   7  337.40    8.95
  12  -5   7  360.99   11.72
  12   5   8   27.35    2.48
  12  -5   8   23.92    3.14
  12   5   9    4.84    1.51
  12  -5   9    2.80    1.74
  12   5  10    3.69    1.45
  12  -5  10    7.37    2.37
  12   5  11   11.87    2.14
  12  -5  11   17.18    2.83
  12   5  12    2.89    1.80
  12  -5  12   -3.52    2.33
  12   5  13    3.75    1.86
  12  -5  13    2.93    1.84
  12   5  14   -0.70    1.62
  12  -5  14   -0.38    1.82
  12   5  15   40.24    3.91
  12  -5  15   38.59    4.20
  12  -5  15   44.00    4.53
  12  -5  16    0.49    2.07
  12   5  16   -1.47    1.77
  12   5  17   -1.84    1.89
  12   5  18    8.03    2.47
  12  -6 -18    2.00    1.67
  12  -6 -17    3.60    1.59
  12  -6 -17    2.21    1.35
  12  -6 -16   55.31    3.77
  12  -6 -15   -1.12    1.42
  12  -6 -14    3.52    1.55
  12  -6 -13    1.39    1.28
  12  -6 -12  234.15    8.23
  12  -6 -11    1.65    1.46
 -12  -6  10  124.78    4.58
  12  -6 -10  139.19    6.15
 -12  -6   9   11.52    1.68
 -12  -6   9    8.78    0.66
  12  -6  -9    8.54    2.07
 -12  -6   8  211.10    6.68
  12  -6  -8  211.95    7.83
  12  -6  -7   18.37    2.56
 -12  -6   7   18.62    2.14
  12  -6  -6   59.26    4.06
 -12  -6   6   65.39    3.75
  12  -6  -5  131.49    6.16
 -12  -6   5  133.31    5.68
 -12  -6   4  129.08    5.82
  12  -6  -4  127.89    6.06
 -12  -6   3    0.39    1.27
  12  -6  -3    0.39    1.52
  12  -6  -2  248.24    8.97
  12  -6  -1   11.51    2.44
  12  -6   0    6.86    2.04
  12  -6   1    3.96    1.94
  12  -6   2    2.30    1.83
  12  -6   3   35.27    3.63
  12  -6   4   93.96    5.63
  12   6   5   71.97    3.14
  12  -6   5   74.23    5.07
  12   6   6  512.54   11.46
  12  -6   6  564.20   15.46
  12   6   7    8.56    1.60
  12  -6   7    8.91    2.45
  12   6   8   66.76    3.65
  12  -6   8   71.74    5.11
  12   6   9    2.46    1.18
  12  -6   9    1.84    1.94
  12   6  10  109.66    5.19
  12  -6  10  125.49    6.90
  12   6  11    1.99    1.45
  12  -6  11    1.63    1.81
  12   6  12    7.16    1.82
  12  -6  12    6.32    2.18
  12   6  13    7.26    1.93
  12  -6  13    8.58    2.26
  12   6  14   29.63    3.32
  12  -6  14   31.10    3.70
  12   6  15   -1.85    1.78
  12  -6  15   -2.00    2.16
  12   6  16   53.27    4.61
  12  -6  16   56.37    5.04
  12  -7 -18    8.23    2.34
  12  -7 -17    1.30    1.52
  12  -7 -16    4.41    1.61
  12  -7 -15   51.56    3.90
  12  -7 -14    7.10    1.82
  12  -7 -13  145.41    6.50
  12  -7 -12    7.12    1.94
  12  -7 -11  187.26    7.48
  12  -7 -10   41.68    3.57
 -12  -7  10   45.54    2.72
  12  -7  -9   92.43    5.17
 -12  -7   9   95.35    4.12
  12  -7  -8   40.10    3.44
 -12  -7   8   41.97    2.87
 -12  -7   7  528.09   12.61
  12  -7  -7  510.22   13.71
 -12  -7   6   64.53    3.85
  12  -7  -6   68.02    4.46
 -12  -7   5  433.09   11.77
  12  -7  -5  429.73   12.37
 -12  -7   4   51.14    3.64
  12  -7  -4   53.64    4.06
  12  -7  -3   99.72    5.48
  12  -7  -2   13.89    2.38
  12  -7  -1    7.38    2.11
  12  -7   0    2.95    1.78
  12  -7   1  296.76   10.40
  12  -7   2   42.24    4.05
  12  -7   3    4.07    2.03
  12  -7   4   38.61    3.86
  12  -7   5  108.22    6.27
  12  -7   6   34.07    3.63
  12  -7   7  529.38   15.38
  12  -7   8   19.19    3.03
  12  -7   9    3.19    2.09
  12  -7  10    9.56    2.61
  12  -7  11    2.81    2.08
  12  -7  12    3.80    2.13
  12  -7  13    0.02    1.77
  12  -7  14    9.22    2.52
  12  -7  15   40.22    4.28
  12  -7  16    4.38    2.07
  12  -7  17   -0.88    1.93
  12  -8 -17   20.99    2.80
  12  -8 -16   -0.55    1.55
  12  -8 -15   -0.49    1.82
  12  -8 -14   -1.20    1.59
  12  -8 -13    4.07    1.91
  12  -8 -12  169.20    7.32
  12  -8 -11    5.69    2.02
  12  -8 -10    0.89    1.62
  12  -8  -9    5.03    1.81
 -12  -8   9    8.10    1.42
  12  -8  -8   27.74    3.01
 -12  -8   8   29.52    2.54
  12  -8  -7    0.75    1.46
 -12  -8   7    2.61    1.41
 -12  -8   6   90.16    4.72
  12  -8  -6   90.28    5.25
 -12  -8   5   40.88    3.20
  12  -8  -5   46.54    3.87
  12  -8  -4   41.35    3.68
 -12  -8   4   41.33    3.30
  12  -8  -3   15.11    2.55
  12  -8  -2    7.46    2.04
  12  -8  -1    2.46    1.71
  12  -8   0  174.12    7.66
  12  -8   1    1.57    1.60
  12  -8   2    6.77    2.27
  12  -8   3    2.35    1.74
  12  -8   4    8.84    2.46
  12  -8   5   24.05    3.36
  12  -8   6  186.02    8.52
  12  -8   7   13.37    2.69
  12  -8   8    4.80    2.17
  12  -8   9    5.50    2.08
  12  -8  10    9.72    2.41
  12  -8  11   13.88    2.79
  12  -8  12   75.71    5.70
  12  -8  13   53.94    5.09
  12  -8  14    1.37    1.85
  12  -8  15   35.88    4.16
  12  -8  16   20.16    3.32
  12  -9 -18    7.76    2.08
  12  -9 -17   83.71    5.28
  12  -9 -16   18.18    2.76
  12  -9 -15   -2.55    1.67
  12  -9 -14    8.68    2.18
  12  -9 -13   61.69    4.52
  12  -9 -12   -1.66    1.62
  12  -9 -11   55.08    4.31
  12  -9 -10   34.54    3.50
  12  -9  -9  125.27    6.46
  12  -9  -8    1.56    1.62
 -12  -9   8    4.94    0.72
 -12  -9   8    2.92    1.37
  12  -9  -7    6.12    1.96
 -12  -9   7    6.48    1.52
  12  -9  -6   33.12    3.40
 -12  -9   6   31.56    2.79
 -12  -9   5  178.55    6.84
  12  -9  -5  189.52    7.90
  12  -9  -4    9.24    2.16
  12  -9  -3    4.27    1.91
  12  -9  -2   26.03    3.12
  12  -9  -1   87.25    5.40
  12  -9   0   21.00    2.98
  12  -9   1  152.98    7.39
  12  -9   2    6.43    2.06
  12  -9   3   36.06    3.81
  12  -9   4    1.75    2.03
  12  -9   5    9.25    2.68
  12  -9   6   43.96    4.32
  12  -9   7   33.91    3.85
  12  -9   8    5.71    2.20
  12  -9   9   32.95    3.94
  12  -9  10   25.23    3.59
  12  -9  11    6.85    2.43
  12  -9  12    2.03    1.97
  12  -9  13   52.68    4.92
  12  -9  14   17.70    3.46
  12  -9  15   -0.81    1.98
  12  -9  16    2.33    1.98
  12 -10 -18  157.33    7.59
  12 -10 -17    9.72    2.49
  12 -10 -16  101.86    6.08
  12 -10 -15    8.05    2.20
  12 -10 -14   10.05    2.41
  12 -10 -13    0.36    1.58
  12 -10 -12   36.67    3.70
  12 -10 -11    4.43    1.94
  12 -10 -10   20.73    2.87
  12 -10  -9   38.82    3.73
  12 -10  -8   64.35    4.71
  12 -10  -7    7.22    2.15
 -12 -10   7    5.43    0.88
 -12 -10   7    7.16    1.61
  12 -10  -6  168.63    7.59
 -12 -10   6  148.73    6.16
  12 -10  -5   -0.22    1.65
  12 -10  -4  135.50    6.84
  12 -10  -3   20.53    2.88
  12 -10  -2  462.84   13.72
  12 -10  -1   27.07    3.32
  12 -10   0  288.65   10.57
  12 -10   1   17.31    2.92
  12 -10   2    6.92    2.25
  12 -10   3    1.06    1.94
  12 -10   4   91.09    5.99
  12 -10   5   -1.32    1.85
  12 -10   6   14.68    2.96
  12 -10   7    1.72    2.10
  12 -10   8    0.26    1.82
  12 -10   9    1.39    1.90
  12 -10  10    2.10    1.81
  12 -10  11   -3.98    2.27
  12 -10  12  173.82    8.83
  12 -10  13   22.55    3.46
  12 -10  14  125.38    7.55
  12 -10  15    2.51    1.87
  12 -11 -18    5.03    2.07
  12 -11 -17  145.72    7.59
  12 -11 -16   -3.37    2.20
  12 -11 -15   23.56    3.28
  12 -11 -14    5.51    2.02
  12 -11 -13   -1.50    1.72
  12 -11 -12    0.58    1.71
  12 -11 -11   -2.46    2.17
  12 -11 -10   70.47    5.11
  12 -11  -9  338.30   11.57
  12 -11  -8   41.31    4.08
  12 -11  -7   16.62    2.71
  12 -11  -6   -2.47    1.80
  12 -11  -5  114.10    6.37
  12 -11  -4    7.45    2.16
  12 -11  -3   23.47    3.29
  12 -11  -2   60.09    4.70
  12 -11  -1  318.81   11.26
  12 -11   0    7.19    2.04
  12 -11   1  146.74    7.50
  12 -11   2    4.05    1.72
  12 -11   3   35.11    3.96
  12 -11   4    2.94    1.86
  12 -11   5  196.29    9.17
  12 -11   6   16.26    3.21
  12 -11   7   21.20    3.38
  12 -11   8    5.55    2.45
  12 -11   9   28.31    3.89
  12 -11  10    2.52    1.94
  12 -11  11   27.92    3.66
  12 -11  12    5.63    2.38
  12 -11  13  252.78   10.95
  12 -11  14   16.63    3.05
  12 -12 -18   70.97    5.44
  12 -12 -17    3.65    2.10
  12 -12 -16   59.94    5.00
  12 -12 -15    4.64    2.22
  12 -12 -14    5.23    1.91
  12 -12 -13    0.27    1.80
  12 -12 -12    1.64    1.83
  12 -12 -11    2.67    3.35
  12 -12 -10   41.35    4.21
  12 -12  -9   -1.53    1.97
  12 -12  -8  198.84    8.76
  12 -12  -7    7.78    2.37
  12 -12  -6   48.67    4.44
  12 -12  -5    0.95    1.78
  12 -12  -4   71.79    5.20
  12 -12  -3   12.41    2.66
  12 -12  -2  171.42    8.07
  12 -12  -1   33.11    3.77
  12 -12   0  329.20   11.71
  12 -12   1   18.32    3.15
  12 -12   2    3.67    2.16
  12 -12   3    0.62    1.82
  12 -12   4  155.00    7.98
  12 -12   5    1.74    2.05
  12 -12   6   41.71    4.54
  12 -12   7    1.87    2.32
  12 -12   8   45.85    4.78
  12 -12   9    3.72    2.74
  12 -12  10    2.87    1.98
  12 -12  11   13.84    3.07
  12 -12  12  255.92   11.17
  12 -12  13    6.61    2.45
  12 -13 -17   43.82    4.55
  12 -13 -16   22.50    3.44
  12 -13 -15   15.79    3.46
  12 -13 -14   -1.60    1.79
  12 -13 -13   15.20    2.86
  12 -13 -12   -0.19    2.01
  12 -13 -11    3.77    2.11
  12 -13 -10    2.38    1.98
  12 -13  -9   50.33    4.54
  12 -13  -8   27.70    3.56
  12 -13  -7   12.87    2.75
  12 -13  -6   -0.65    1.89
  12 -13  -5  138.62    7.43
  12 -13  -4   27.59    3.71
  12 -13  -3   30.66    3.71
  12 -13  -2    1.70    1.77
  12 -13  -1  244.89   10.02
  12 -13   0    6.27    2.22
  12 -13   1  119.05    6.97
  12 -13   2   29.31    3.55
  12 -13   3    5.71    2.19
  12 -13   4    6.91    2.53
  12 -13   5   41.85    4.39
  12 -13   6   -1.17    2.01
  12 -13   7   12.77    3.07
  12 -13   8   29.57    4.10
  12 -13   9   28.79    3.98
  12 -13  10    9.45    2.70
  12 -13  11   37.17    4.49
  12 -14 -15    2.28    2.32
  12 -14 -14    2.09    2.00
  12 -14 -13    7.60    2.34
  12 -14 -12   61.57    5.21
  12 -14 -11    0.51    1.82
  12 -14 -10   13.16    3.02
  12 -14  -9    6.81    2.45
  12 -14  -8   -0.49    1.81
  12 -14  -7    5.07    2.22
  12 -14  -6   27.00    3.62
  12 -14  -5    4.89    2.50
  12 -14  -4    7.28    2.60
  12 -14  -3    5.04    2.38
  12 -14  -2   -1.60    1.85
  12 -14  -1    3.44    1.85
  12 -14   0  101.05    6.49
  12 -14   1    7.05    2.48
  12 -14   2   10.29    2.83
  12 -14   3   -3.23    2.17
  12 -14   4   46.26    4.71
  12 -14   5   -0.76    1.95
  12 -14   6   23.69    3.70
  12 -14   7    8.78    2.74
  12 -14   8    5.94    2.63
  12 -14   9    3.69    2.54
  12 -14  10   10.30    3.09
  12 -15 -11  121.44    7.52
  12 -15 -10    9.08    2.82
  12 -15  -9    1.03    2.07
  12 -15  -8   28.18    3.92
  12 -15  -7   55.68    4.95
  12 -15  -6   -2.23    2.16
  12 -15  -5   32.84    4.15
  12 -15  -4   20.96    3.50
  12 -15  -3   47.07    4.67
  12 -15  -2   -1.24    2.07
  12 -15  -1   -2.32    2.09
  12 -15   0    8.93    2.98
  12 -15   1   58.50    5.29
  12 -15   2    9.41    2.77
  12 -15   3    2.12    2.02
  12 -15   4    0.78    2.11
  12 -15   5   55.64    5.19
  12 -15   6    5.19    2.11
  12 -15   7   99.60    7.15
  12 -16  -6   36.06    4.24
  12 -16  -5    6.56    2.39
  12 -16  -4   17.81    3.57
  12 -16  -3   13.27    3.11
  12 -16  -2   81.73    6.26
  12 -16  -1    4.91    2.39
 -12 -16   1    9.25    1.91
  12 -16   0   10.61    2.67
  12 -16   1    6.69    2.58
  12 -16   2   20.99    3.56
  12 -16   3    6.41    2.51
 -12 -17   0    6.65    1.77
 -12 -17  -1    3.49    1.98
 -12 -18  -1    9.61    2.39
 -12 -18  -2    5.40    2.18
 -12 -18  -3    6.09    2.17
  13   0 -20   -1.57    2.02
  13   0 -19   -0.70    1.90
  13   0 -18   67.05    5.20
  13   0 -17    1.12    1.63
  13   0 -16  102.99    6.16
  13   0 -15    7.72    2.12
  13   0 -14   27.65    3.20
  13   0 -14   36.35    2.66
  13   0 -13    8.55    2.08
  13   0 -13    8.35    1.54
  13   0 -12  294.58    9.84
  13   0 -12  288.38    8.84
  13   0 -12  343.25    9.10
  13   0 -11   -0.63    1.05
  13   0 -11   -1.06    1.34
 -13   0  11    1.04    0.76
  13   0 -11    1.19    1.21
  13   0 -10   46.56    2.99
  13   0 -10   53.53    3.72
 -13   0  10   51.06    2.71
  13   0 -10   60.36    3.67
  13   0  -9    8.62    1.48
  13   0  -9   13.71    2.12
 -13   0   9   10.33    1.46
  13   0  -9   11.77    1.85
 -13   0   8  629.03   14.73
 -13   0   8  641.82   13.60
  13   0  -8  684.69   15.27
 -13   0   7    8.36    1.64
 -13   0   7   10.31    1.48
  13   0  -7   12.75    2.07
 -13   0   6    8.47    1.66
 -13   0   6    9.28    1.38
  13   0  -6    8.09    1.87
  13   0  -5    5.80    1.79
  13   0  -4    6.74    1.82
  13   0  -3    4.02    1.57
  13   0  -2  345.24   10.48
  13   0  -1    9.34    2.00
  13   0   0   79.41    4.76
  13   0   1   10.75    2.33
  13   0   2  683.99   16.92
  13   0   3    6.32    1.97
  13   0   4  159.61    7.22
  13   0   5    2.74    1.81
  13   0   6   27.13    2.18
  13   0   6   24.51    3.02
  13   0   7    1.44    1.06
  13   0   7    1.06    1.78
  13   0   8  152.10    7.40
  13   0   8  139.59    5.19
  13   0   9   -0.39    1.69
  13   0   9    2.52    1.44
  13   0  10  199.81    7.80
  13   0  11   -0.31    1.44
  13   0  12  108.54    6.00
  13   0  13    6.39    2.25
  13   0  14   66.26    5.06
  13   0  15   -0.32    1.71
  13   0  16    2.08    2.42
  13   0  17    3.08    2.80
  13  -1 -20    0.81    1.64
  13   1 -20    1.72    2.07
  13   1 -19   16.88    2.72
  13  -1 -19   27.27    3.50
  13   1 -18   -2.37    2.07
  13  -1 -18    4.66    2.08
  13  -1 -17  119.50    6.89
  13   1 -17  114.41    6.68
  13   1 -16    4.75    1.88
  13  -1 -16    4.27    2.03
  13   1 -15   73.36    5.03
  13  -1 -15   70.76    5.03
  13  -1 -15   89.03    4.23
  13  -1 -14   22.55    2.98
  13   1 -14   18.86    2.70
  13  -1 -14   22.82    2.39
  13   1 -14   23.19    2.14
  13   1 -13  387.94   12.00
  13  -1 -13  402.20   12.36
  13   1 -13  386.29   10.77
  13   1 -13  469.96   10.67
  13  -1 -13  444.68   11.15
  13  -1 -12   20.57    2.77
  13   1 -12   17.64    2.10
  13   1 -12   17.63    2.49
  13  -1 -12   15.01    2.10
  13  -1 -12   20.40    2.24
  13   1 -12   22.19    2.22
  13   1 -11   98.39    4.45
  13  -1 -11  100.46    4.80
  13  -1 -11  103.41    5.40
  13   1 -11  106.96    5.32
 -13   1  11  110.35    4.16
  13   1 -11  124.69    5.05
  13  -1 -11  111.70    5.09
  13   1 -10    8.45    1.47
  13  -1 -10   10.59    1.60
  13   1 -10   13.45    2.04
 -13  -1  10   13.51    1.42
 -13   1  10   13.15    1.52
  13  -1 -10    9.90    1.80
  13   1 -10   14.42    1.97
  13   1  -9  235.01    6.89
 -13  -1   9  247.47    7.77
  13   1  -9  247.57    8.06
 -13  -1   9  254.38    6.66
 -13   1   9  258.95    7.25
  13   1  -9  278.97    8.29
  13  -1  -9  269.13    8.50
 -13  -1   8    1.44    1.12
 -13   1   8    1.66    1.19
  13   1  -8    0.47    0.87
  13   1  -8    1.04    1.20
 -13   1   8    1.68    1.02
 -13  -1   8    0.94    0.81
  13  -1  -8   -2.16    1.37
  13   1  -8   -0.52    1.32
 -13   1   7   14.77    2.00
  13   1  -7   13.93    1.53
 -13  -1   7   11.44    1.70
  13   1  -7   13.69    1.78
 -13  -1   7   11.32    1.37
 -13   1   7   17.04    1.93
  13  -1  -7   15.94    2.26
  13   1  -7   14.62    2.09
 -13  -1   6    9.72    1.70
 -13   1   6    8.16    1.49
  13  -1  -6   10.81    2.09
  13   1  -6    8.53    1.87
 -13  -1   5    4.48    1.45
 -13   1   5    8.48    1.55
  13  -1  -5    3.72    1.48
  13   1  -5    6.75    1.80
  13  -1  -4    0.44    1.41
  13   1  -4   -0.06    1.29
  13  -1  -3   13.24    2.20
  13   1  -3   16.37    2.35
  13   1  -2   28.52    2.90
  13  -1  -2   32.33    3.17
  13   1  -1  703.84   16.74
  13  -1  -1  705.79   16.98
  13   1   0    7.90    2.01
  13  -1   0    7.16    1.99
  13   1   1  950.29   20.94
  13  -1   1  924.87   20.90
  13   1   2   19.79    2.64
  13  -1   2   15.19    2.52
  13   1   3   28.83    3.14
  13  -1   3   35.19    3.49
  13   1   4   14.53    2.42
  13  -1   4   14.82    2.55
  13   1   5   14.22    1.52
  13   1   5   15.43    2.50
  13  -1   5   17.24    2.69
  13   1   6   14.34    1.49
  13   1   6   12.56    2.58
  13  -1   6   17.25    2.72
  13  -1   7    7.12    1.49
  13   1   7    5.38    1.14
  13   1   7    9.06    1.78
  13   1   7    3.29    1.63
  13  -1   7    7.59    2.13
  13   1   8    8.02    1.81
  13  -1   8   10.42    1.73
  13  -1   8    8.27    2.21
  13  -1   9  257.10   10.05
  13   1   9  246.29    8.46
  13  -1  10   -5.40    2.21
  13   1  10   -0.36    1.32
  13   1  11    0.25    1.45
  13  -1  11   -2.00    1.71
  13   1  12   10.28    2.18
  13  -1  12   10.23    2.42
  13  -1  13  330.98   11.45
  13   1  13  328.13   11.20
  13   1  14    2.51    1.81
  13  -1  14    7.27    2.44
  13  -1  15   68.64    5.36
  13   1  15   67.53    5.17
  13  -1  16   18.55    3.30
  13   1  16   14.08    3.07
  13  -1  17   90.94    6.55
  13   1  17   95.80    6.44
  13   2 -20    7.27    2.42
  13   2 -19    9.30    2.56
  13  -2 -19    5.43    2.15
  13  -2 -18   52.99    4.80
  13   2 -18   53.48    4.74
  13  -2 -17    3.08    1.65
  13   2 -17    1.87    1.90
  13   2 -16  129.99    6.84
  13  -2 -16  135.34    7.13
  13  -2 -15    3.20    1.58
  13   2 -15    3.04    1.69
  13  -2 -15    6.99    1.76
  13  -2 -14    7.59    2.20
  13   2 -14   10.26    2.14
  13  -2 -14   13.12    2.02
  13  -2 -13    3.18    1.69
  13   2 -13    3.09    1.69
  13   2 -13   -0.47    1.04
  13  -2 -13    1.72    1.36
  13   2 -12  114.86    4.82
  13   2 -12  122.13    5.83
  13   2 -12  131.40    4.97
  13  -2 -12  133.93    5.82
  13   2 -11   34.53    2.50
  13   2 -11   38.24    3.22
  13   2 -11   41.80    2.90
 -13   2  11   36.46    2.48
  13  -2 -11   39.75    3.21
 -13  -2  10    3.14    1.17
  13   2 -10   -0.02    0.98
  13   2 -10    1.32    1.36
 -13   2  10    1.99    0.99
 -13  -2  10    0.45    0.66
  13   2 -10    3.65    1.41
  13  -2 -10    0.32    1.40
 -13  -2   9   16.81    1.94
  13   2  -9   21.88    1.81
  13   2  -9   19.01    2.09
 -13   2   9   25.08    2.26
 -13  -2   9   22.68    1.73
  13   2  -9   24.19    2.39
  13  -2  -9   23.77    2.70
 -13  -2   8  112.12    4.93
  13   2  -8  101.72    3.84
  13   2  -8  113.37    4.85
 -13  -2   8  116.20    4.11
  13   2  -8  121.86    5.18
 -13   2   8  112.76    4.77
  13  -2  -8  127.64    5.83
 -13  -2   7   40.01    2.94
  13   2  -7   36.60    2.09
  13   2  -7   38.26    2.67
 -13  -2   7   32.91    2.30
 -13   2   7   34.70    2.68
  13   2  -7   42.24    3.17
  13  -2  -7   40.52    3.29
  13   2  -6   27.49    1.76
  13   2  -6   31.66    2.38
 -13   2   6   28.40    2.52
 -13  -2   6   31.03    2.74
  13  -2  -6   32.65    3.02
  13   2  -6   32.93    2.86
 -13  -2   5   21.98    2.41
  13   2  -5   21.60    1.88
 -13   2   5   18.04    2.09
  13   2  -5   20.92    2.53
  13  -2  -5   24.47    2.76
  13  -2  -4    1.14    1.46
  13   2  -4    4.08    1.56
  13   2  -3    0.31    1.45
  13  -2  -3   -1.86    1.69
  13  -2  -2   11.58    2.16
  13   2  -2   15.30    2.32
  13  -2  -1   33.40    3.30
  13   2  -1   35.54    3.25
  13   2   0  698.98   16.83
  13  -2   0  710.60   17.16
  13   2   1   13.36    2.23
  13  -2   1   18.76    2.82
  13   2   2   69.06    4.54
  13  -2   2   68.99    4.69
  13   2   3    9.79    2.11
  13  -2   3   12.40    2.38
  13   2   4   11.86    1.07
  13   2   4    8.42    2.11
  13  -2   4   14.34    2.51
  13   2   5    0.04    0.65
  13   2   5    0.41    1.08
  13  -2   5   -0.87    1.57
  13   2   6    1.45    1.26
  13   2   6    2.01    0.77
  13  -2   6   -1.72    1.81
  13   2   7    8.23    1.72
  13  -2   7    3.76    1.65
  13  -2   8    5.28    1.51
  13   2   8    2.66    1.29
  13  -2   8    9.99    2.47
  13   2   9   34.68    3.11
  13  -2   9   32.78    3.65
  13   2  10   47.19    3.66
  13  -2  10   52.01    4.49
  13  -2  11   11.18    2.64
  13   2  11    6.95    1.94
  13   2  12   83.15    5.14
  13  -2  12   86.80    5.95
  13  -2  12   82.98    5.34
  13  -2  13   20.26    3.10
  13   2  13   25.56    3.28
  13  -2  14   67.60    5.33
  13   2  14   66.56    4.96
  13  -2  15   13.39    2.81
  13   2  15    9.93    2.27
  13  -2  16    8.54    2.68
  13   2  16   13.54    2.86
  13   2  17    7.69    2.65
  13   3 -20   14.47    2.91
  13   3 -19   27.65    3.66
  13  -3 -19   27.47    3.64
  13  -3 -18   11.56    2.51
  13   3 -18   12.18    2.66
  13  -3 -17   10.99    2.32
  13   3 -17   12.18    2.52
  13   3 -16    4.20    2.07
  13  -3 -16    9.60    2.35
  13  -3 -15    2.95    1.67
  13   3 -15    3.52    1.59
  13  -3 -15    7.70    1.70
  13   3 -14   18.23    2.52
  13  -3 -14   20.20    2.88
  13  -3 -14   23.88    2.56
  13   3 -13   26.48    2.92
  13  -3 -13   29.17    2.81
  13   3 -12   24.79    2.69
  13  -3 -12   30.61    2.97
  13   3 -11   39.06    2.57
  13   3 -11   43.43    3.31
  13   3 -11   40.11    2.73
 -13   3  11   43.78    3.00
  13  -3 -11   47.47    3.52
 -13  -3  10    2.64    1.05
  13   3 -10    2.90    1.40
  13   3 -10    3.40    1.03
 -13   3  10    0.95    1.07
  13   3 -10    2.66    1.13
  13  -3 -10    0.61    1.38
 -13  -3   9   32.88    2.61
  13   3  -9   32.75    2.04
  13   3  -9   32.36    2.67
 -13   3   9   35.81    2.68
  13   3  -9   34.90    2.70
 -13  -3   9   35.70    1.96
  13  -3  -9   42.76    3.52
 -13  -3   8    0.82    0.96
  13   3  -8   -0.21    0.77
  13   3  -8   -0.62    1.06
 -13   3   8   -1.32    1.01
 -13  -3   8   -0.49    0.73
  13   3  -8   -2.01    1.33
  13  -3  -8   -0.25    1.49
  13   3  -7   76.93    2.78
  13   3  -7   80.30    3.72
  13   3  -7   83.88    4.32
 -13   3   7   76.54    4.08
  13  -3  -7   83.17    4.95
 -13  -3   7   79.01    4.18
 -13  -3   6    1.04    1.23
  13   3  -6    1.33    0.62
  13   3  -6    0.99    0.94
 -13   3   6    4.58    1.48
  13   3  -6    3.01    1.31
  13  -3  -6   -1.12    1.62
 -13  -3   5   24.04    2.47
  13   3  -5   22.82    1.29
  13   3  -5   24.49    1.82
 -13   3   5   22.60    2.33
  13   3  -5   24.24    2.51
  13  -3  -5   21.23    2.68
  13   3  -4   16.46    1.06
  13   3  -4   18.24    1.50
 -13   3   4   18.65    2.25
  13   3  -4   21.16    2.50
  13  -3  -4   18.79    2.62
  13   3  -3   29.00    1.71
  13   3  -3   27.85    2.84
  13  -3  -3   29.19    3.16
  13   3  -2   51.56    2.11
  13   3  -2   51.95    3.75
  13  -3  -2   54.50    4.14
  13   3  -1   40.64    1.67
  13   3  -1   40.56    3.39
  13  -3  -1   31.70    3.23
  13   3   0   -0.33    1.52
  13  -3   0    1.40    1.86
  13   3   1  143.95    6.51
  13  -3   1  156.65    7.07
  13   3   2   -0.36    0.36
  13   3   2    0.71    0.83
  13  -3   2    1.98    1.61
  13   3   3  178.70    5.13
  13  -3   3  194.01    7.85
  13   3   4    0.28    0.43
  13   3   4    1.04    1.05
  13  -3   4   -1.77    1.87
  13   3   5    1.55    0.61
  13   3   5    3.02    1.19
  13  -3   5    1.73    1.74
  13   3   6   18.17    1.99
  13   3   6   20.02    1.29
  13  -3   6   24.27    3.23
  13   3   7  195.43    6.72
  13  -3   7  212.87    8.86
  13   3   8    6.82    1.58
  13  -3   8   10.08    2.25
  13   3   9   31.24    2.87
  13  -3   9   30.78    3.53
  13   3  10   11.16    2.08
  13  -3  10   11.66    2.58
  13   3  11    1.52    1.46
  13  -3  11    0.46    1.70
  13   3  12    8.09    1.98
  13  -3  12    6.38    2.31
  13   3  13   17.31    2.64
  13  -3  13   19.14    3.09
  13  -3  13   18.72    2.93
  13  -3  14    0.55    1.90
  13   3  14    2.62    2.06
  13  -3  15   26.18    3.58
  13   3  15   19.95    3.11
  13  -3  16   28.89    3.74
  13   3  16   33.20    3.83
  13   3  17    0.41    1.91
  13   4 -20    4.67    1.72
  13   4 -19    0.27    1.79
  13  -4 -19    2.54    1.85
  13  -4 -18   19.18    3.15
  13   4 -18   24.93    3.44
  13  -4 -17   11.68    2.49
  13   4 -17    7.34    2.21
  13  -4 -16    8.77    2.31
  13   4 -16    2.69    1.77
  13  -4 -16   10.08    1.93
  13   4 -15   67.84    4.75
  13  -4 -15   70.27    5.13
  13  -4 -15   79.74    4.45
  13   4 -14   26.51    2.97
  13  -4 -14   34.09    2.96
  13   4 -13    7.77    1.87
  13  -4 -13    7.91    1.93
  13   4 -12   98.72    5.08
  13  -4 -12  116.00    5.51
  13   4 -11    5.69    1.54
 -13   4  11    8.33    1.63
  13  -4 -11    9.32    2.02
 -13  -4  10  123.68    4.90
  13   4 -10  131.66    5.41
 -13   4  10  127.10    5.27
  13  -4 -10  142.27    6.31
 -13  -4   9    3.22    1.06
  13   4  -9    3.07    1.24
 -13   4   9    3.00    1.30
 -13  -4   9    3.99    0.89
  13  -4  -9    4.33    1.73
  13   4  -8   32.97    2.45
 -13  -4   8   34.91    1.99
 -13   4   8   37.36    2.93
  13  -4  -8   32.63    3.17
 -13  -4   8   32.81    2.63
 -13  -4   7   11.19    1.78
  13   4  -7    9.01    1.43
 -13   4   7   13.02    2.07
  13  -4  -7   12.53    2.25
  13   4  -6  264.26    6.93
  13  -4  -6  278.99    9.44
 -13  -4   6  276.36    8.51
  13   4  -5    1.52    0.87
 -13  -4   5    0.51    1.14
  13  -4  -5    1.72    1.62
  13   4  -4   55.20    2.36
  13  -4  -4   57.09    4.35
  13   4  -3    6.48    0.83
  13  -4  -3    3.88    1.75
  13   4  -2    6.41    0.67
  13  -4  -2    9.37    2.26
  13   4  -1    8.27    0.66
  13  -4  -1    4.61    1.78
  13   4   0   13.19    0.94
  13  -4   0   13.21    2.45
  13   4   1    7.86    0.95
  13  -4   1    4.28    1.78
  13   4   2  107.17    3.47
  13  -4   2  113.08    6.10
  13   4   3    6.65    1.15
  13  -4   3    9.28    2.28
  13   4   4   30.97    2.07
  13  -4   4   30.75    3.35
  13   4   5    3.36    1.27
  13  -4   5    4.03    2.03
  13   4   6  273.19    7.75
  13  -4   6  299.32   10.57
  13   4   7   23.22    2.14
  13  -4   7   27.44    3.42
  13   4   8   60.72    3.64
  13  -4   8   70.98    5.31
  13   4   9   11.26    1.96
  13  -4   9    8.75    2.15
  13   4  10   28.88    2.79
  13  -4  10   27.62    3.50
  13   4  11    5.12    1.74
  13  -4  11    2.67    2.04
  13   4  12   72.35    4.68
  13  -4  12   78.02    5.73
  13   4  13   17.51    2.59
  13  -4  13   16.72    3.03
  13   4  14    1.91    1.68
  13  -4  14    2.66    1.99
  13  -4  14    3.56    2.26
  13  -4  15   44.58    4.55
  13   4  15   46.03    4.18
  13   4  16   25.13    3.36
  13   4  17   16.92    3.04
  13   5 -19   20.26    2.93
  13  -5 -18    0.96    1.68
  13   5 -18    1.77    1.77
  13  -5 -17    1.02    1.55
  13   5 -17    2.62    1.83
  13   5 -16   13.57    2.55
  13  -5 -16   14.62    2.69
  13  -5 -16   16.98    2.36
  13   5 -15  201.95    8.28
  13  -5 -15  225.55    8.05
  13   5 -14    7.49    1.89
  13  -5 -14    6.71    1.85
  13   5 -13    1.75    1.44
  13  -5 -13    2.18    1.37
  13   5 -12    5.54    1.56
  13  -5 -12   10.57    2.04
  13   5 -11   10.55    1.88
  13  -5 -11    9.70    1.93
  13   5 -10    3.56    1.31
 -13  -5  10    1.95    0.99
  13  -5 -10    5.02    1.73
  13   5  -9   14.36    1.83
 -13  -5   9   12.17    1.72
  13  -5  -9   14.17    2.14
 -13  -5   8   18.34    2.13
  13   5  -8   18.57    1.92
 -13  -5   8   17.18    1.40
  13  -5  -8   23.01    2.79
  13   5  -7  232.69    6.50
  13  -5  -7  242.84    8.71
 -13  -5   7  252.64    7.88
  13   5  -6    5.61    1.11
 -13  -5   6    4.18    1.38
  13  -5  -6    9.41    2.33
  13   5  -5  520.63   10.37
  13  -5  -5  544.67   14.50
 -13  -5   5  557.77   13.62
  13  -5  -4    5.30    1.83
  13  -5  -3   88.93    5.48
  13  -5  -2    6.31    2.06
  13  -5  -1   62.77    4.66
  13  -5   0    9.29    2.36
  13   5   1   31.88    1.28
  13  -5   1   29.37    3.29
  13   5   2   23.34    1.38
  13  -5   2   24.03    3.18
  13   5   3  172.48    4.64
  13  -5   3  173.46    7.90
  13   5   4    4.57    1.00
  13  -5   4    4.64    2.06
  13   5   5  105.85    3.99
  13  -5   5  110.57    6.30
  13   5   6    4.45    1.28
  13  -5   6    3.70    1.98
  13   5   7  491.70   11.63
  13  -5   7  516.66   15.01
  13   5   8   30.55    2.56
  13  -5   8   24.28    3.20
  13   5   9   73.24    4.11
  13  -5   9   81.37    5.60
  13   5  10    7.51    1.79
  13  -5  10   10.13    2.66
  13   5  11   21.10    2.59
  13  -5  11   20.52    3.26
  13   5  12    6.46    1.86
  13  -5  12    3.38    1.88
  13   5  13    6.97    2.15
  13  -5  13    8.34    2.88
  13   5  14   12.84    2.54
  13  -5  14   15.58    2.99
  13   5  15  124.63    6.75
  13  -5  15  123.48    7.43
  13  -5  15  126.58    7.52
  13   5  16    2.70    1.92
  13   5  17   59.06    5.15
  13  -6 -18    8.64    2.44
  13  -6 -17    8.81    2.32
  13  -6 -16   96.37    5.23
  13  -6 -15   14.56    2.28
  13  -6 -14  217.22    8.15
  13  -6 -13    7.98    1.97
  13  -6 -12   17.57    2.49
  13  -6 -11    2.09    1.60
  13  -6 -10   34.39    3.31
  13  -6  -9   28.67    3.14
 -13  -6   9   31.78    2.57
  13  -6  -8  279.61    9.62
 -13  -6   8  279.98    8.32
  13  -6  -7   20.05    2.82
 -13  -6   7   17.83    2.15
  13  -6  -6  399.50   11.97
 -13  -6   6  403.01   10.98
 -13  -6   5    5.01    1.46
  13  -6  -5    3.19    1.62
  13  -6  -4    5.18    2.01
  13  -6  -3   47.36    4.06
  13  -6  -2  159.59    7.35
  13  -6  -1   10.26    2.37
  13  -6   0   71.74    5.09
  13  -6   1    2.34    1.79
  13  -6   2   49.74    4.30
  13  -6   3    1.67    1.69
  13  -6   4   51.66    4.41
  13   6   5   27.38    1.97
  13  -6   5   31.55    3.60
  13   6   6  421.49    9.87
  13  -6   6  427.19   13.47
  13   6   7   15.89    1.92
  13  -6   7   16.53    2.94
  13   6   8  247.04    7.57
  13  -6   8  257.37   10.18
  13   6   9    6.43    1.66
  13  -6   9    1.33    1.71
  13   6  10    7.48    1.74
  13  -6  10    3.20    1.98
  13   6  11   -1.13    1.33
  13  -6  11   -2.23    2.10
  13   6  12   10.32    2.10
  13  -6  12    4.69    2.38
  13   6  13   -2.02    1.65
  13  -6  13   -1.44    1.91
  13   6  14   17.24    2.70
  13  -6  14   16.93    2.95
  13   6  15   -0.11    1.90
  13  -6  15    1.48    1.82
  13  -7 -17    2.50    1.61
  13  -7 -16    1.75    1.89
  13  -7 -15  128.63    6.25
  13  -7 -14   23.74    2.93
  13  -7 -13   28.75    3.08
  13  -7 -12    7.40    2.10
  13  -7 -11   38.10    3.48
  13  -7 -10    4.52    1.86
  13  -7  -9    8.87    2.10
 -13  -7   8   29.67    2.55
  13  -7  -8   28.95    3.15
  13  -7  -7  559.92   14.91
 -13  -7   7  547.70   13.35
  13  -7  -6   38.54    3.67
 -13  -7   6   40.74    3.26
  13  -7  -5  108.61    5.90
  13  -7  -4   24.77    3.11
  13  -7  -3   15.65    2.65
  13  -7  -2    4.32    1.86
  13  -7  -1   34.22    3.74
  13  -7   0    4.63    1.99
  13  -7   1   45.11    4.13
  13  -7   2    7.91    2.33
  13  -7   3   89.10    5.87
  13  -7   4    5.12    2.07
  13  -7   5   28.22    3.37
  13  -7   6   18.37    3.07
  13  -7   7  737.85   19.33
  13  -7   8   12.46    2.79
  13  -7   9   35.46    3.96
  13  -7  10    9.50    2.55
  13  -7  11   54.64    4.88
  13  -7  12   -1.67    2.45
  13  -7  13   39.20    4.33
  13  -7  14   17.66    3.07
  13  -7  15   40.17    4.41
  13  -8 -17    7.84    2.09
  13  -8 -16   -1.07    1.54
  13  -8 -15   11.22    2.41
  13  -8 -14   49.04    4.09
  13  -8 -13   36.16    3.52
  13  -8 -12   71.33    4.83
  13  -8 -11    1.28    1.62
  13  -8 -10    1.64    1.77
  13  -8  -9   -1.33    1.69
  13  -8  -8   -0.01    1.58
 -13  -8   8    2.66    1.25
 -13  -8   7   13.94    1.94
  13  -8  -7   13.13    2.30
 -13  -8   6  187.81    7.25
  13  -8  -6  198.38    8.21
  13  -8  -5    1.17    1.67
  13  -8  -4    2.92    1.62
  13  -8  -3    3.85    2.04
  13  -8  -2   15.91    2.65
  13  -8  -1    5.10    2.13
  13  -8   0   33.04    3.75
  13  -8   1    6.76    2.28
  13  -8   2    2.10    3.74
  13  -8   3   13.22    2.84
  13  -8   4    6.01    2.29
  13  -8   5   92.08    6.04
  13  -8   6  117.04    6.82
  13  -8   7   21.14    3.38
  13  -8   8   36.73    4.04
  13  -8   9    7.54    2.35
  13  -8  10    1.20    1.88
  13  -8  11    4.40    2.33
  13  -8  12   27.79    3.69
  13  -8  13   31.76    3.99
  13  -8  14    0.80    2.08
  13  -9 -17   36.03    3.73
  13  -9 -16    2.38    1.97
  13  -9 -15    0.65    1.68
  13  -9 -14   22.28    3.15
  13  -9 -13   79.03    5.33
  13  -9 -12   -4.18    2.11
  13  -9 -11  139.79    6.95
  13  -9 -10   16.45    2.68
  13  -9  -9   65.88    4.83
  13  -9  -8    0.95    1.56
  13  -9  -7    9.02    2.37
  13  -9  -6   12.35    2.38
  13  -9  -5   40.18    3.87
  13  -9  -4   14.40    2.59
  13  -9  -3   11.56    2.41
  13  -9  -2    6.61    1.98
  13  -9  -1   74.44    5.25
  13  -9   0    9.38    2.35
  13  -9   1  280.43   10.72
  13  -9   2   -2.35    1.81
  13  -9   3   19.91    3.34
  13  -9   4   16.64    3.05
  13  -9   5   15.21    2.92
  13  -9   6   10.94    2.65
  13  -9   7   16.09    2.99
  13  -9   8    1.17    1.88
  13  -9   9   64.39    5.28
  13  -9  10   25.20    3.65
  13  -9  11    1.71    1.88
  13  -9  12    5.34    2.41
  13  -9  13   69.66    5.73
  13 -10 -17   12.88    2.80
  13 -10 -16  113.07    6.59
  13 -10 -15    6.43    2.03
  13 -10 -14  154.67    7.68
  13 -10 -13    9.97    2.61
  13 -10 -12  131.50    7.05
  13 -10 -11    7.48    2.27
  13 -10 -10    5.23    1.92
  13 -10  -9   34.31    3.68
  13 -10  -8  109.62    6.30
  13 -10  -7    5.16    2.03
  13 -10  -6    5.49    2.14
  13 -10  -5    4.49    2.00
  13 -10  -4    3.71    1.90
  13 -10  -3    1.00    1.71
  13 -10  -2  133.55    7.18
  13 -10  -1   15.16    2.64
  13 -10   0  523.86   15.47
  13 -10   1   13.85    2.83
  13 -10   2  300.18   11.41
  13 -10   3   33.81    4.04
  13 -10   4   -2.13    2.11
  13 -10   5    0.84    1.97
  13 -10   6    3.69    2.42
  13 -10   7    1.91    2.01
  13 -10   8   20.44    3.37
  13 -10   9    6.52    2.72
  13 -10  10   51.06    4.87
  13 -10  11    4.89    2.16
  13 -10  12   62.69    5.59
  13 -11 -17   52.65    4.74
  13 -11 -16    4.38    2.36
  13 -11 -15   48.99    4.65
  13 -11 -14   15.89    2.96
  13 -11 -13  133.04    7.37
  13 -11 -12    1.93    2.11
  13 -11 -11   39.99    4.07
  13 -11 -10   14.06    3.84
  13 -11  -9  164.63    8.03
  13 -11  -8   37.62    4.02
  13 -11  -7  130.33    7.02
  13 -11  -6    9.18    2.58
  13 -11  -5   19.60    2.94
  13 -11  -4    2.20    1.92
  13 -11  -3   17.96    3.02
  13 -11  -2   47.88    4.51
  13 -11  -1  365.28   12.65
  13 -11   0    8.21    2.39
  13 -11   1  551.31   16.31
  13 -11   2    4.63    2.23
  13 -11   3   21.34    3.39
  13 -11   4    2.47    1.89
  13 -11   5    6.38    2.77
  13 -11   6    1.62    1.96
  13 -11   7   30.97    4.05
  13 -11   8   10.56    2.89
  13 -11   9  229.30   10.41
  13 -11  10    6.98    2.65
  13 -11  11    0.46    2.12
  13 -12 -17    1.79    2.17
  13 -12 -16  107.84    6.83
  13 -12 -15    9.20    2.58
  13 -12 -14   69.76    5.43
  13 -12 -13    0.66    1.92
  13 -12 -12  140.86    7.64
  13 -12 -11    2.44    1.98
  13 -12 -10    2.76    2.17
  13 -12  -9   22.20    3.39
  13 -12  -8  210.58    9.38
  13 -12  -7    4.59    1.95
  13 -12  -6    0.26    1.94
  13 -12  -5    2.86    2.01
  13 -12  -4   14.01    2.90
  13 -12  -3    1.86    1.88
  13 -12  -2   51.20    4.62
  13 -12  -1   14.60    3.08
  13 -12   0  522.79   16.03
  13 -12   1   14.33    2.92
  13 -12   2   95.41    6.31
  13 -12   3   24.55    3.71
  13 -12   4   -0.39    1.84
  13 -12   5   -2.57    2.34
  13 -12   6   -0.24    2.04
  13 -12   7   13.66    3.12
  13 -12   8   57.31    6.23
  13 -12   9    1.05    1.94
  13 -12  10   53.42    5.17
  13 -13 -16    7.73    2.61
  13 -13 -15   24.79    3.87
  13 -13 -14   10.31    2.68
  13 -13 -13   58.11    5.14
  13 -13 -12    2.70    2.04
  13 -13 -11   71.73    5.65
  13 -13 -10    5.02    2.15
  13 -13  -9   44.27    4.49
  13 -13  -8   19.97    3.22
  13 -13  -7    1.72    2.21
  13 -13  -6    1.45    1.92
  13 -13  -5   12.35    2.75
  13 -13  -4    8.42    2.44
  13 -13  -3    0.94    1.86
  13 -13  -2   42.55    4.36
  13 -13  -1  138.19    7.75
  13 -13   0   10.51    2.51
  13 -13   1  306.25   11.96
  13 -13   2    9.09    2.37
  13 -13   3   23.15    3.48
  13 -13   4   -1.42    2.16
  13 -13   5   12.28    3.08
  13 -13   6    1.59    2.14
  13 -13   7    1.37    2.05
  13 -13   8   43.34    4.92
  13 -14 -12   31.10    3.97
  13 -14 -11    2.92    2.12
  13 -14 -10   -1.62    2.29
  13 -14  -9    1.20    2.23
  13 -14  -8    3.14    2.42
  13 -14  -7   11.73    3.06
  13 -14  -6   27.89    3.71
  13 -14  -5   12.82    2.81
  13 -14  -4    2.44    2.14
  13 -14  -3   -1.94    1.97
  13 -14  -2    0.88    2.05
  13 -14  -1    0.34    1.84
  13 -14   0   49.13    4.76
  13 -14   1    5.45    2.23
  13 -14   2    3.70    2.30
  13 -14   3    5.63    2.12
  13 -14   4    6.87    2.44
  13 -14   5    5.18    2.77
  13 -14   6   35.47    4.52
  13 -15  -7   94.64    6.77
  13 -15  -6    3.08    2.30
  13 -15  -5  104.48    7.08
  13 -15  -4   12.97    2.95
  13 -15  -3    7.91    2.67
  13 -15  -2    2.01    2.11
  13 -15  -1    2.23    2.15
  13 -15   0    1.95    1.95
  13 -15   1    5.66    2.41
  14   0 -19    0.94    1.70
  14   0 -18   -0.98    1.71
  14   0 -17   -0.29    1.91
  14   0 -16   18.55    3.05
  14   0 -15    8.31    2.31
  14   0 -14   79.31    5.20
  14   0 -14   95.25    4.45
  14   0 -13   10.10    2.19
  14   0 -13   22.76    2.49
  14   0 -12  940.42   21.76
  14   0 -12 1065.28   20.93
  14   0 -11    0.61    1.33
  14   0 -11    1.64    1.42
  14   0 -10  180.63    7.02
  14   0 -10  161.31    5.91
  14   0 -10  187.20    6.94
  14   0  -9    2.85    1.22
  14   0  -9    4.21    1.58
 -14   0   9    3.22    1.18
  14   0  -9    3.18    1.53
  14   0  -8  246.94    7.18
 -14   0   8  247.54    7.36
  14   0  -8  292.61    9.06
 -14   0   7    0.22    0.90
  14   0  -7    1.56    1.53
 -14   0   6   46.20    3.11
  14   0  -6   48.70    3.64
  14   0  -5    5.34    1.83
  14   0  -4   58.97    4.16
  14   0  -3   -2.41    1.45
  14   0  -2   70.60    4.59
  14   0  -1   -1.22    1.65
  14   0   0  388.99   11.87
  14   0   1   28.83    3.19
  14   0   2  852.32   20.10
  14   0   3    9.52    2.47
  14   0   4    5.36    1.93
  14   0   5    3.43    1.70
  14   0   6   15.19    2.70
  14   0   7    0.13    1.74
  14   0   8   76.06    5.50
  14   0   9    7.75    2.15
  14   0  10  331.55   10.64
  14   0  11    2.41    1.67
  14   0  12   -0.53    1.56
  14   0  13    5.38    2.00
  14   0  14   10.15    2.44
  14   0  15   -2.35    2.12
  14   0  16    2.55    1.92
  14   1 -19    6.63    2.39
  14  -1 -19    9.68    2.65
  14   1 -18    6.45    2.30
  14  -1 -18   11.92    2.98
  14   1 -17   10.30    2.66
  14  -1 -17   11.35    2.62
  14   1 -16    5.82    2.15
  14  -1 -16    2.25    1.94
  14  -1 -15   18.31    2.90
  14   1 -15   23.97    3.25
  14  -1 -14    5.76    1.99
  14   1 -14   10.55    2.37
  14  -1 -14    5.58    1.51
  14   1 -13  365.42   11.61
  14  -1 -13  356.38   11.76
  14   1 -13  422.46   10.42
  14  -1 -13  409.23   10.90
  14   1 -12   93.44    5.23
  14  -1 -12   92.08    5.40
  14   1 -12  102.90    4.76
  14  -1 -12  105.50    5.11
  14  -1 -11  172.41    7.22
  14   1 -11  176.10    7.12
  14   1 -11  196.89    6.88
  14  -1 -11  194.85    7.21
  14   1 -10   21.64    2.54
  14  -1 -10   20.22    2.16
  14  -1 -10   25.78    2.82
  14   1 -10   26.86    2.64
  14   1  -9   32.13    2.36
 -14  -1   9   33.01    2.82
  14   1  -9   35.89    3.00
 -14  -1   9   32.70    2.24
 -14   1   9   33.29    2.53
  14  -1  -9   34.14    3.05
  14   1  -9   36.60    3.04
  14   1  -8    8.23    1.34
  14   1  -8    8.25    1.72
 -14   1   8    5.28    1.32
 -14  -1   8    7.09    1.35
  14  -1  -8    8.95    2.00
  14   1  -8    5.56    1.50
  14   1  -7   14.06    1.51
  14   1  -7   15.42    1.95
 -14  -1   7   11.70    1.49
 -14   1   7   11.87    1.79
  14  -1  -7   13.38    2.19
  14   1  -7   13.50    2.25
 -14   1   6   10.36    1.58
  14  -1  -6    9.72    1.97
  14   1  -6   11.56    1.99
 -14   1   5   26.04    2.49
  14  -1  -5   33.60    3.13
  14   1  -5   34.07    3.16
  14  -1  -4   42.86    3.63
  14   1  -4   44.09    3.60
  14   1  -3  211.81    7.95
  14  -1  -3  198.85    7.87
  14   1  -2    2.94    1.68
  14  -1  -2    2.38    1.74
  14   1  -1   17.85    2.52
  14  -1  -1   26.92    3.10
  14   1   0   13.48    2.35
  14  -1   0   14.47    2.54
  14   1   1  438.96   12.96
  14  -1   1  455.91   13.21
  14   1   2   25.78    3.03
  14  -1   2   26.36    3.19
  14   1   3  109.40    6.08
  14  -1   3  116.33    6.32
  14   1   4    6.29    2.17
  14  -1   4    3.51    1.94
  14   1   5   28.36    3.33
  14  -1   5   25.00    3.19
  14   1   6    6.24    2.14
  14  -1   6    6.05    2.25
  14   1   7   86.04    4.47
  14  -1   7   89.35    5.79
  14   1   8    2.62    1.32
  14  -1   8    2.83    1.75
  14  -1   9  249.68   10.11
  14   1   9  231.96    8.36
  14  -1  10   17.00    2.97
  14   1  10   17.42    2.49
  14  -1  10   17.01    2.55
  14  -1  11   53.87    4.32
  14   1  11   50.08    4.16
  14   1  12    3.84    1.74
  14  -1  12    3.26    1.87
  14   1  13   33.99    3.63
  14  -1  13   35.59    3.78
  14  -1  14    6.51    2.08
  14   1  14    8.14    2.28
  14  -1  15    4.32    2.33
  14   1  15    1.38    1.98
  14  -1  16    0.96    2.08
  14   1  16    2.37    1.91
  14   2 -20   36.95    4.25
  14   2 -19   32.58    4.10
  14  -2 -19   34.13    3.94
  14  -2 -18   30.54    3.92
  14   2 -18   21.45    3.32
  14  -2 -17    3.49    1.83
  14   2 -17    1.94    1.75
  14  -2 -16   22.26    3.36
  14   2 -16   21.54    3.05
  14  -2 -15    1.37    1.59
  14   2 -15    2.83    1.79
  14  -2 -14   10.71    2.52
  14   2 -14    5.14    1.83
  14  -2 -14   10.76    1.98
  14   2 -13   11.01    2.23
  14  -2 -13    7.87    2.07
  14   2 -13   11.51    1.69
  14  -2 -13    8.95    2.05
  14   2 -12  273.27    9.36
  14  -2 -12  274.02    9.70
  14   2 -12  293.68    8.38
  14  -2 -12  291.57    9.32
  14   2 -11    2.92    1.52
  14  -2 -11    4.62    1.91
  14   2 -11   -0.65    1.29
 -14  -2  10  127.38    5.44
  14   2 -10  135.33    5.86
  14   2 -10  152.98    5.96
 -14   2  10  140.50    5.34
  14  -2 -10  141.33    6.25
 -14  -2   9   19.30    2.20
  14   2  -9   22.02    2.31
 -14   2   9   20.47    2.09
  14  -2  -9   21.28    2.61
  14   2  -9   25.23    2.53
 -14  -2   8  120.35    5.45
  14   2  -8  120.75    4.18
  14   2  -8  129.40    5.21
  14   2  -8  135.03    5.79
 -14  -2   8  120.40    4.47
 -14   2   8  124.16    5.22
  14  -2  -8  133.79    6.13
  14   2  -7   28.55    1.88
  14   2  -7   30.72    2.48
 -14  -2   7   28.59    2.16
 -14   2   7   28.74    2.57
  14  -2  -7   30.78    3.07
  14   2  -7   30.44    2.84
  14   2  -6    5.01    0.92
  14   2  -6    5.08    1.20
 -14   2   6    4.11    1.29
  14  -2  -6    7.53    1.97
  14   2  -6    6.13    1.74
  14   2  -5   13.13    1.64
 -14   2   5   11.39    1.92
  14  -2  -5   12.45    2.24
  14   2  -5   15.21    2.27
  14   2  -4  102.88    3.90
  14   2  -4  109.04    5.50
  14  -2  -4  100.74    5.58
  14  -2  -3   37.91    3.51
  14   2  -3   35.32    3.32
  14  -2  -2    0.20    1.62
  14   2  -2    3.85    1.79
  14   2  -1   40.94    3.70
  14  -2  -1   40.24    3.64
  14   2   0  314.79   10.43
  14  -2   0  333.54   10.88
  14   2   1   14.13    2.37
  14  -2   1   17.68    2.76
  14   2   2  116.94    6.14
  14  -2   2  127.29    6.49
  14   2   3   24.84    1.48
  14   2   3   26.87    3.09
  14  -2   3   24.89    3.15
  14   2   4    2.82    1.20
  14   2   4    4.55    1.95
  14  -2   4    6.61    2.28
  14   2   5    5.83    1.36
  14  -2   5   10.79    3.79
  14   2   6   96.04    4.51
  14  -2   6  100.68    6.08
  14   2   7    4.94    1.50
  14  -2   7    5.86    2.38
  14   2   8    6.11    1.64
  14  -2   8    8.83    2.47
  14   2   9    4.01    1.53
  14  -2   9   13.97    2.81
  14   2  10   49.92    3.76
  14  -2  10   59.92    5.06
  14  -2  11   11.32    2.72
  14   2  11   10.72    2.26
  14  -2  12   25.35    3.33
  14   2  12   23.93    3.12
  14  -2  13    9.32    2.66
  14   2  13    8.97    2.25
  14  -2  14   17.22    2.97
  14   2  14   16.84    2.92
  14  -2  15   12.19    3.02
  14   2  15   14.74    3.07
  14   2  16   14.51    2.85
  14   3 -20   11.24    2.79
  14   3 -19   36.35    4.13
  14  -3 -18   -0.79    1.88
  14   3 -18    2.92    1.92
  14  -3 -17   19.57    3.24
  14   3 -17   19.27    3.00
  14   3 -16    3.95    2.09
  14  -3 -16    2.20    1.80
  14  -3 -15    3.94    1.85
  14   3 -15    2.39    1.81
  14  -3 -15    0.94    1.44
  14   3 -14   13.12    2.27
  14  -3 -14   17.18    2.82
  14  -3 -14   19.00    2.55
  14   3 -13   50.65    3.87
  14  -3 -13   61.65    4.17
  14   3 -12   27.28    2.88
  14  -3 -12   24.97    2.94
  14   3 -11   -0.58    1.37
  14  -3 -11    1.01    1.47
 -14  -3  10   28.75    2.49
  14   3 -10   33.52    2.82
  14   3 -10   35.91    2.81
 -14   3  10   33.12    2.69
  14  -3 -10   32.42    3.31
 -14  -3   9    0.96    1.06
  14   3  -9    3.27    1.46
 -14   3   9    4.17    1.33
  14   3  -9   -1.37    1.35
  14  -3  -9    4.15    1.77
 -14  -3   8    9.14    1.69
  14   3  -8   10.00    1.70
 -14   3   8   12.33    1.83
  14   3  -8    9.86    1.70
  14  -3  -8    8.49    1.93
  14   3  -7   62.41    2.46
  14   3  -7   69.98    3.51
  14   3  -7   64.89    4.03
 -14   3   7   58.95    3.75
  14  -3  -7   68.23    4.61
  14   3  -6    2.27    1.05
  14   3  -6    1.58    0.73
  14   3  -6    0.55    1.40
  14  -3  -6    3.32    1.71
  14   3  -5    2.51    0.91
  14   3  -5    3.70    0.71
  14   3  -5    2.95    1.38
  14  -3  -5    4.58    1.62
  14   3  -4    2.88    0.66
  14   3  -4    3.14    0.93
  14   3  -4    2.92    1.45
  14  -3  -4    3.45    1.57
  14   3  -3   16.05    1.35
  14   3  -3   15.37    2.35
  14  -3  -3   18.92    2.82
  14   3  -2    4.63    0.80
  14   3  -2    1.74    1.45
  14  -3  -2    4.87    1.90
  14   3  -1   57.73    2.03
  14   3  -1   55.82    4.14
  14  -3  -1   58.88    4.43
  14   3   0    1.25    0.50
  14   3   0    0.13    1.46
  14  -3   0    0.35    1.71
  14   3   1  131.60    3.82
  14  -3   1  142.32    6.78
  14   3   2    7.65    1.19
  14  -3   2    7.75    2.18
  14   3   3   51.75    2.74
  14  -3   3   56.97    4.54
  14   3   4    8.34    1.42
  14  -3   4   10.39    2.40
  14   3   5   16.25    1.82
  14  -3   5   20.63    3.04
  14   3   6    2.97    1.16
  14  -3   6    5.13    2.26
  14   3   7   56.41    3.51
  14  -3   7   62.44    5.04
  14   3   8    5.56    1.54
  14  -3   8    8.92    2.48
  14   3   9   57.41    3.84
  14  -3   9   62.59    5.01
  14   3  10   14.76    2.32
  14  -3  10   14.25    2.77
  14   3  11    4.40    1.72
  14  -3  11    2.27    2.22
  14   3  12   15.47    2.71
  14  -3  12   13.40    2.85
  14   3  13   39.83    3.78
  14  -3  13   40.60    4.32
  14  -3  13   46.84    4.58
  14  -3  14    4.52    2.08
  14   3  14    4.68    1.79
  14  -3  15   16.08    3.33
  14   3  15   11.29    2.71
  14   3  16    8.78    2.51
  14   4 -20   27.07    3.81
  14   4 -19   10.19    2.60
  14   4 -18  113.42    6.87
  14  -4 -18  112.01    6.96
  14  -4 -17   -0.44    1.58
  14   4 -17    2.40    2.03
  14  -4 -16    7.45    2.18
  14   4 -16    4.14    2.11
  14   4 -15    8.81    2.08
  14  -4 -15    9.86    2.43
  14  -4 -15    9.84    2.15
  14   4 -14   28.84    3.05
  14  -4 -14   30.97    2.99
  14   4 -13    2.41    1.52
  14  -4 -13   -1.28    1.50
  14   4 -12   18.17    2.39
  14  -4 -12   20.58    2.67
  14   4 -11   21.40    2.43
  14  -4 -11   20.96    2.76
  14   4 -10   -0.54    1.16
  14  -4 -10    1.45    1.65
  14   4  -9    0.20    1.11
 -14  -4   9   -0.64    1.01
  14  -4  -9   -0.25    1.58
  14   4  -8    3.16    1.22
 -14  -4   8    4.42    1.50
  14  -4  -8    4.50    1.91
  14   4  -7    4.76    1.14
 -14  -4   7    6.52    1.61
  14  -4  -7    6.49    1.97
  14   4  -6  403.97    9.17
  14  -4  -6  400.95   12.41
  14   4  -5    8.00    1.17
  14  -4  -5    8.05    1.96
  14   4  -4  231.23    5.52
  14  -4  -4  233.99    9.04
  14   4  -3   35.04    1.59
  14  -4  -3   38.77    3.75
  14   4  -2   42.18    1.39
  14  -4  -2   52.44    4.28
  14   4  -1    1.86    0.46
  14  -4  -1   -0.97    1.97
  14   4   0   27.31    1.36
  14  -4   0   29.24    3.31
  14   4   1   10.00    1.07
  14  -4   1    6.28    1.99
  14   4   2   30.44    1.84
  14  -4   2   27.43    3.29
  14   4   3    1.97    0.96
  14  -4   3   -1.73    1.77
  14   4   4   88.23    3.64
  14  -4   4   95.01    7.55
  14   4   5    0.86    0.96
  14  -4   5   -0.26    1.92
  14   4   6  106.30    4.51
  14  -4   6  117.31    6.64
  14   4   7   18.62    2.15
  14  -4   7   23.18    3.33
  14   4   8   45.70    3.26
  14  -4   8   50.66    4.54
  14   4   9   28.26    2.75
  14  -4   9   24.22    3.46
  14   4  10   81.29    4.61
  14  -4  10   82.45    5.88
  14   4  11   23.56    2.80
  14  -4  11   29.19    3.88
  14   4  12  145.05    6.77
  14  -4  12  147.75    8.06
  14   4  13    4.38    1.92
  14  -4  13    3.52    2.32
  14  -4  14   18.27    3.12
  14   4  14   19.75    2.99
  14   4  15    1.52    1.97
  14   5 -18    1.43    1.82
  14  -5 -17   45.83    4.46
  14   5 -17   45.29    4.32
  14   5 -16    2.14    1.89
  14  -5 -16    0.68    1.60
  14   5 -15   67.57    4.69
  14  -5 -15   72.19    4.64
  14   5 -14    5.91    1.70
  14  -5 -14    6.73    2.00
  14   5 -13   -0.86    1.34
  14  -5 -13   -1.30    1.65
  14   5 -12    6.25    1.82
  14  -5 -12    6.53    1.87
  14   5 -11   12.47    1.89
  14  -5 -11   13.81    2.62
  14   5 -10    5.10    1.46
  14  -5 -10    7.28    1.98
  14   5  -9   15.56    1.87
  14  -5  -9   17.66    2.60
  14   5  -8    4.69    1.25
 -14  -5   8    7.21    1.53
  14  -5  -8   10.09    2.25
  14   5  -7  297.00    7.53
 -14  -5   7  290.68    9.22
  14  -5  -7  310.84   10.46
  14   5  -6   55.87    2.63
  14  -5  -6   47.73    4.13
  14  -5  -5  476.11   14.00
  14  -5  -4   17.61    2.82
  14  -5  -3    2.06    1.65
  14  -5  -2   26.75    3.24
  14  -5  -1   12.54    2.60
  14  -5   0   10.35    2.43
  14  -5   1    1.16    1.58
  14   5   2    1.93    0.72
  14  -5   2   -1.01    2.01
  14   5   3  276.57    6.46
  14  -5   3  294.64   10.70
  14   5   4   29.84    2.03
  14  -5   4   23.38    3.15
  14   5   5    6.79    1.27
  14  -5   5    1.31    1.83
  14   5   6    3.90    1.21
  14  -5   6    5.47    2.23
  14   5   7  140.98    5.32
  14  -5   7  146.11    7.58
  14   5   8    9.45    1.64
  14  -5   8    9.79    2.78
  14   5   9   27.24    2.64
  14  -5   9   27.88    3.63
  14   5  10    6.13    1.75
  14  -5  10    4.04    2.13
  14   5  11  197.78    7.69
  14  -5  11  205.09    9.49
  14   5  12    7.47    2.17
  14  -5  12    3.05    3.87
  14  -5  13  131.68    7.78
  14  -6 -17    0.97    1.94
  14  -6 -16    2.25    1.50
  14  -6 -15   14.63    2.70
  14  -6 -14  141.24    6.69
  14  -6 -13    0.83    1.55
  14  -6 -12    0.80    1.57
  14  -6 -11    8.05    2.15
  14  -6 -10   -3.09    1.94
  14  -6  -9    2.37    1.74
  14  -6  -8   61.22    4.48
  14  -6  -7    9.80    2.39
  14  -6  -6  601.91   16.15
  14  -6  -5   45.26    4.12
  14  -6  -4  257.72    9.82
  14  -6  -3   44.87    4.23
  14  -6  -2    2.72    2.15
  14  -6  -1    7.06    2.24
  14  -6   0   -0.99    1.81
  14  -6   1    7.44    2.22
  14  -6   2   84.19    5.63
  14  -6   3   47.54    4.26
  14  -6   4  367.44   12.53
  14  -6   5   20.56    3.13
  14  -6   6  113.01    6.66
  14  -6   7   22.86    3.33
  14  -6   8  137.97    7.50
  14  -6   9    4.18    2.10
  14  -6  10   49.71    4.74
  14  -6  11    8.16    2.50
  14  -6  12   80.90    6.11
  14  -6  13   -1.71    2.30
  14  -7 -16    1.86    1.93
  14  -7 -15   59.26    4.38
  14  -7 -14   13.51    2.37
  14  -7 -13    1.33    1.64
  14  -7 -12   18.57    2.79
  14  -7 -11   -0.26    1.59
  14  -7 -10    0.45    1.62
  14  -7  -9    1.03    1.80
  14  -7  -8    9.09    2.41
  14  -7  -7  261.32    9.69
  14  -7  -6   36.16    3.68
  14  -7  -5  178.29    8.01
  14  -7  -4    3.78    2.08
  14  -7  -3   54.70    4.57
  14  -7  -2    5.24    2.29
  14  -7  -1    7.85    2.51
  14  -7   0    1.02    1.90
  14  -7   1    8.75    2.47
  14  -7   2    8.30    2.36
  14  -7   3  137.53    7.45
  14  -7   4    4.20    2.06
  14  -7   5    4.44    2.05
  14  -7   6    2.96    1.94
  14  -7   7  260.14   10.56
  14  -7   8    6.77    2.44
  14  -7   9   40.76    4.31
  14  -7  10   19.29    3.38
  14  -7  11  104.47    7.65
  14  -7  12    0.54    2.12
  14  -8 -16    0.06    1.56
  14  -8 -15    1.64    1.67
  14  -8 -14   45.76    4.15
  14  -8 -13   37.82    3.79
  14  -8 -12  101.66    5.99
  14  -8 -11    1.11    1.68
  14  -8 -10    5.66    2.03
  14  -8  -9   10.17    2.22
  14  -8  -8   14.21    2.59
  14  -8  -7    0.82    1.61
  14  -8  -6  151.43    7.37
  14  -8  -5    4.79    2.02
  14  -8  -4    6.60    2.13
  14  -8  -3    1.23    1.70
  14  -8  -2    9.86    2.38
  14  -8  -1    4.98    2.40
  14  -8   0   19.79    3.25
  14  -8   1    1.12    1.87
  14  -8   2    3.62    2.09
  14  -8   3   15.24    3.13
  14  -8   4    7.22    2.18
  14  -8   5    3.99    1.96
  14  -8   6   58.76    5.09
  14  -8   7   21.45    3.45
  14  -8   8   19.07    3.19
  14  -8   9   16.76    3.28
  14  -8  10   -3.66    2.21
  14  -8  11   12.36    2.99
  14  -9 -16   -0.96    1.98
  14  -9 -15    1.87    1.84
  14  -9 -14   20.72    3.04
  14  -9 -13   34.31    3.80
  14  -9 -12    5.84    2.21
  14  -9 -11  127.79    6.90
  14  -9 -10    8.73    2.32
  14  -9  -9   24.31    3.19
  14  -9  -8    3.56    1.85
  14  -9  -7   11.87    2.62
  14  -9  -6   11.48    2.52
  14  -9  -5    4.44    2.08
  14  -9  -4   50.44    4.50
  14  -9  -3   63.08    4.93
  14  -9  -2   -0.72    1.84
  14  -9  -1   14.77    2.95
  14  -9   0   17.75    3.03
  14  -9   1  163.66    8.45
  14  -9   2   25.08    3.76
  14  -9   3    9.66    2.47
  14  -9   4   -1.06    2.19
  14  -9   5   26.00    3.68
  14  -9   6    2.62    2.01
  14  -9   7   42.86    4.45
  14  -9   8    2.44    2.11
  14  -9   9   55.31    5.11
  14  -9  10   18.23    3.33
  14  -9  11    6.70    2.81
  14 -10 -16   11.81    2.71
  14 -10 -15    0.98    1.90
  14 -10 -14   98.30    6.30
  14 -10 -13   22.06    3.48
  14 -10 -12  151.91    7.90
  14 -10 -11    4.49    2.11
  14 -10 -10   25.82    3.50
  14 -10  -9   -0.72    2.82
  14 -10  -8   36.02    3.73
  14 -10  -7   11.76    2.63
  14 -10  -6   11.08    2.61
  14 -10  -5    4.16    2.09
  14 -10  -4   85.05    5.87
  14 -10  -3    5.56    2.17
  14 -10  -2   15.90    2.90
  14 -10  -1    7.62    2.75
  14 -10   0  252.71   10.56
  14 -10   1    4.99    2.53
  14 -10   2  252.63   10.78
  14 -10   3   24.56    3.69
  14 -10   4   66.41    5.65
  14 -10   5   -4.65    2.47
  14 -10   6  100.70    6.76
  14 -10   7    5.98    2.50
  14 -10   8    8.04    2.63
  14 -10   9    8.72    2.69
  14 -10  10   97.94    6.83
  14 -11 -16   10.15    2.55
  14 -11 -15   25.92    3.48
  14 -11 -14    8.84    2.63
  14 -11 -13  177.07    8.59
  14 -11 -12   12.00    2.98
  14 -11 -11  144.07    7.79
  14 -11 -10    1.15    2.01
  14 -11  -9    0.98    1.78
  14 -11  -8    3.44    2.01
  14 -11  -7   57.38    4.85
  14 -11  -6    5.61    2.32
  14 -11  -5   54.14    4.88
  14 -11  -4   11.11    2.92
  14 -11  -3  224.73    9.89
  14 -11  -2   35.16    4.09
  14 -11  -1   62.25    5.23
  14 -11   0   10.01    2.76
  14 -11   1  294.44   11.77
  14 -11   2   43.21    4.58
  14 -11   3   90.33    6.51
  14 -11   4    8.84    2.79
  14 -11   5   78.78    6.14
  14 -11   6    0.06    2.10
  14 -11   7    6.54    2.56
  14 -11   8    1.25    2.13
  14 -12 -16   -0.48    2.10
  14 -12 -15   11.48    2.82
  14 -12 -14   40.49    4.47
  14 -12 -13    8.35    2.89
  14 -12 -12  341.83   12.69
  14 -12 -11    3.32    2.27
  14 -12 -10   30.66    3.97
  14 -12  -9   13.15    3.04
  14 -12  -8   42.97    4.47
  14 -12  -7   -0.31    2.17
  14 -12  -6    5.97    2.45
  14 -12  -5    4.98    2.23
  14 -12  -4  119.36    7.19
  14 -12  -3    8.11    2.40
  14 -12  -2    7.62    2.26
  14 -12  -1    6.71    2.23
  14 -12   0  230.70   10.27
  14 -12   1    4.72    2.39
  14 -12   2  157.63    8.58
  14 -12   3   10.65    2.88
  14 -12   4   60.45    5.51
  14 -12   5    2.75    2.35
  14 -12   6   34.61    4.39
  14 -13 -13   59.22    5.53
  14 -13 -12    5.84    2.61
  14 -13 -11  172.85    9.03
  14 -13 -10   25.11    3.67
  14 -13  -9   10.72    2.60
  14 -13  -8    2.08    1.85
  14 -13  -7    0.57    1.99
  14 -13  -6    5.09    2.06
  14 -13  -5   -0.68    1.95
  14 -13  -4    3.72    2.19
  14 -13  -3   53.44    5.08
  14 -13  -2    6.89    2.46
  14 -13  -1    5.06    2.38
  14 -13   0    0.26    1.89
  14 -13   1  153.60    8.49
  14 -13   2   10.04    3.09
  14 -13   3   21.12    3.41
  14 -13   4    7.06    2.72
  14 -14  -7   -0.38    2.11
  14 -14  -6   41.08    4.79
  14 -14  -5    3.50    2.41
  14 -14  -4    0.86    1.96
  14 -14  -3    5.03    2.62
  14 -14  -2    3.69    2.26
  14 -14  -1   10.06    2.97
  15   0 -19    4.93    2.17
  15   0 -18    5.10    2.04
  15   0 -17    5.00    2.20
  15   0 -16   11.56    2.52
  15   0 -15    0.58    1.77
  15   0 -14   22.27    3.05
  15   0 -13   11.66    2.49
  15   0 -13   10.85    1.93
  15   0 -12  461.03   13.33
  15   0 -12  510.89   12.88
  15   0 -11   51.23    4.03
  15   0 -11   54.16    3.80
  15   0 -10  302.19    9.78
  15   0 -10  326.92   10.01
  15   0  -9   20.99    2.42
  15   0  -9   25.53    2.87
  15   0  -8   12.38    2.28
 -15   0   7    2.13    1.19
  15   0  -7    7.32    2.09
 -15   0   6   79.97    4.34
  15   0  -6   93.11    5.28
  15   0  -5   -1.59    1.51
  15   0  -4   41.43    3.60
  15   0  -3    1.76    1.62
  15   0  -2  465.40   13.44
  15   0  -1   -1.77    1.77
  15   0   0  277.77   10.02
  15   0   1    6.47    2.15
  15   0   2  302.58   10.76
  15   0   3   12.88    2.47
  15   0   4  118.67    6.62
  15   0   5   12.40    2.78
  15   0   6  214.56    9.31
  15   0   7    4.77    1.92
  15   0   8   80.66    4.72
  15   0   8   77.94    5.71
  15   0   9   -0.93    1.42
  15   0  10   76.18    4.88
  15   0  11    1.98    1.81
  15   0  12   16.70    2.84
  15   0  13   -2.77    1.79
  15   0  14    2.88    2.25
  15   0  15   -1.02    2.05
  15   1 -19   14.85    3.27
  15   1 -18    5.61    2.33
  15  -1 -18   11.23    2.92
  15   1 -17    2.86    1.74
  15  -1 -17    5.43    2.35
  15   1 -16    1.67    1.70
  15  -1 -16    6.00    2.31
  15  -1 -15    6.05    2.20
  15   1 -15    6.70    2.19
  15  -1 -14    7.74    2.27
  15   1 -14    7.83    2.13
  15   1 -13  107.30    5.86
  15  -1 -13  105.54    5.92
  15  -1 -13  112.60    5.38
  15  -1 -12   23.12    2.94
  15   1 -12   21.24    2.78
  15   1 -12   21.40    2.42
  15  -1 -12   18.22    2.25
  15  -1 -11  360.95   11.38
  15   1 -11  381.44   11.25
  15   1 -11  410.12   11.08
  15  -1 -11  391.45   11.27
  15   1 -10    6.18    1.69
  15   1 -10    9.26    2.00
  15  -1 -10    4.36    1.62
  15   1  -9   43.85    3.37
  15   1  -9   49.07    3.68
  15  -1  -9   54.45    4.06
  15   1  -8   27.73    2.65
  15   1  -8   22.26    2.54
  15  -1  -8   22.03    2.74
  15   1  -7   85.25    4.22
 -15  -1   7   68.99    3.81
 -15   1   7   68.14    4.03
  15   1  -7   84.28    4.93
  15  -1  -7   84.61    5.06
  15   1  -6    1.31    1.56
  15  -1  -6    4.67    1.82
  15   1  -5    5.70    1.75
  15  -1  -5    4.15    1.83
  15   1  -4    3.59    1.70
  15  -1  -4    1.52    1.48
  15   1  -3  186.69    7.67
  15  -1  -3  185.83    7.82
  15   1  -2    3.33    1.57
  15  -1  -2    5.39    1.96
  15   1  -1   24.88    2.93
  15  -1  -1   22.46    3.03
  15   1   0   28.63    3.32
  15  -1   0   21.17    2.89
  15   1   1   72.10    4.96
  15  -1   1   71.41    4.98
  15   1   2    5.06    1.94
  15  -1   2    5.31    2.14
  15  -1   3  107.03    6.27
  15   1   3  102.89    6.06
  15   1   4   13.23    2.69
  15  -1   4   12.98    2.61
  15  -1   5  392.60   12.99
  15   1   5  370.30   12.57
  15   1   6   17.24    2.30
  15   1   6   16.18    2.92
  15  -1   6   21.95    3.09
  15   1   7  219.49    7.68
  15  -1   7  231.23    9.75
  15   1   8    5.48    1.79
  15  -1   8    6.27    2.31
  15  -1   9    7.36    2.23
  15   1   9    7.19    1.93
  15   1  10    4.64    1.88
  15  -1  10    6.68    2.01
  15   1  11    7.31    2.02
  15  -1  11   16.21    2.70
  15   1  12   12.75    2.60
  15  -1  12   16.75    2.82
  15   1  13    3.63    2.03
  15  -1  13    4.49    2.04
  15  -1  14    3.45    1.93
  15   1  14    2.62    1.78
  15  -1  15    9.63    2.55
  15   1  15    9.19    2.43
  15   2 -19   31.38    4.03
  15   2 -18   23.10    3.36
  15  -2 -18   26.97    3.77
  15  -2 -17    2.25    2.01
  15   2 -17    0.72    1.85
  15  -2 -16    4.88    2.09
  15   2 -16    5.27    2.17
  15  -2 -15    1.28    1.75
  15   2 -15   -1.94    1.87
  15  -2 -14    4.17    2.05
  15   2 -14    2.80    1.73
  15  -2 -14    5.34    1.90
  15  -2 -13    4.16    2.02
  15   2 -13    0.44    1.49
  15  -2 -13    1.34    1.44
  15   2 -12  194.96    7.71
  15  -2 -12  186.94    8.03
  15   2 -12  214.97    7.21
  15  -2 -12  211.56    7.98
  15   2 -11   19.03    2.48
  15  -2 -11   19.50    2.79
  15   2 -11   16.84    2.23
  15   2 -10  123.18    5.58
  15   2 -10  125.21    5.63
  15  -2 -10  118.85    6.02
  15   2  -9    7.13    1.79
  15  -2  -9    5.53    1.82
  15   2  -9    7.24    1.77
  15   2  -8    5.87    1.42
  15  -2  -8    5.87    1.91
  15   2  -8    7.46    1.84
  15   2  -7   -0.70    1.13
  15  -2  -7    2.30    1.75
  15   2  -7    0.74    1.33
  15   2  -6   55.12    3.11
  15   2  -6   57.64    4.13
  15  -2  -6   60.35    4.30
  15   2  -5    3.98    1.23
  15  -2  -5    6.56    2.03
  15   2  -5    4.42    1.73
  15   2  -4   17.67    1.72
  15  -2  -4   15.99    2.61
  15   2  -4   17.93    2.59
  15   2  -3   -1.28    1.55
  15  -2  -3    2.40    1.75
  15   2  -2   33.39    3.39
  15  -2  -2   37.90    3.73
  15   2  -1   12.62    2.36
  15  -2  -1    9.82    2.31
  15   2   0  132.52    6.67
  15  -2   0  132.79    6.81
  15   2   1    2.35    1.65
  15  -2   1    1.70    1.58
  15   2   2   41.17    3.85
  15  -2   2   40.36    3.93
  15   2   3   12.84    2.57
  15  -2   3   13.67    2.54
  15   2   4    6.11    1.44
  15  -2   4    2.95    1.79
  15   2   5   36.11    2.73
  15  -2   5   31.41    3.71
  15   2   6  160.98    6.05
  15  -2   6  168.21    8.15
  15   2   7   26.04    2.56
  15  -2   7   28.27    3.64
  15   2   8   37.68    3.16
  15  -2   8   35.32    3.96
  15   2   9   -0.84    1.41
  15  -2   9    2.75    2.10
  15   2  10   66.02    4.45
  15  -2  10   66.37    5.41
  15  -2  11    5.81    2.35
  15   2  11    2.37    1.53
  15  -2  11    4.91    2.16
  15  -2  12   -0.48    1.94
  15   2  12    0.35    1.62
  15  -2  13    1.53    1.85
  15   2  13    0.76    1.91
  15  -2  14    7.85    2.63
  15   2  14    4.01    2.02
  15  -2  15    2.47    2.40
  15   3 -19   28.61    3.86
  15  -3 -18   15.34    2.99
  15   3 -18   13.35    2.79
  15  -3 -17   31.46    3.83
  15   3 -17   30.80    3.62
  15  -3 -16    9.19    2.40
  15   3 -16    9.25    2.29
  15  -3 -15    1.70    1.87
  15   3 -15    1.96    1.60
  15   3 -14    7.28    1.80
  15  -3 -14    8.75    2.41
  15  -3 -14    7.60    1.92
  15  -3 -13   61.08    4.65
  15   3 -13   61.04    4.21
  15  -3 -13   64.88    4.41
  15   3 -12    2.68    1.52
  15  -3 -12    3.10    1.47
  15   3 -11   11.39    2.08
  15  -3 -11   12.50    2.33
  15   3 -10   10.54    1.95
  15   3 -10    7.82    1.63
  15  -3 -10   13.80    2.43
  15   3  -9    3.03    1.44
  15   3  -9    2.93    1.43
  15  -3  -9    3.34    1.60
  15   3  -8   11.75    1.68
  15   3  -8   11.71    2.03
  15  -3  -8    9.98    2.18
  15   3  -7   44.67    2.84
  15   3  -7   40.70    3.36
  15  -3  -7   43.56    3.78
  15   3  -6    2.12    1.11
  15   3  -6   -1.15    1.49
  15  -3  -6   -0.26    1.53
  15   3  -5   39.18    2.34
  15   3  -5   41.43    3.56
  15  -3  -5   44.18    3.96
  15   3  -4    4.11    1.05
  15   3  -4    3.43    1.69
  15  -3  -4    3.54    2.08
  15   3  -3    5.39    1.02
  15   3  -3    5.07    1.82
  15  -3  -3    7.92    2.31
  15   3  -2    4.96    0.89
  15   3  -2    4.25    1.75
  15  -3  -2    4.07    1.97
  15   3  -1   17.73    2.65
  15  -3  -1   13.98    2.61
  15  -3   0    8.21    2.29
  15   3   1  216.64    5.64
  15  -3   1  229.63    9.28
  15   3   2   25.79    1.93
  15  -3   2   23.85    3.26
  15   3   3   36.83    2.35
  15  -3   3   36.87    3.75
  15   3   4    8.82    1.43
  15  -3   4    2.95    1.79
  15   3   5    9.76    1.48
  15  -3   5   12.35    2.59
  15   3   6    6.88    1.57
  15  -3   6    2.75    2.15
  15   3   7   34.59    2.83
  15  -3   7   32.47    3.75
  15   3   8    2.51    1.39
  15  -3   8    5.54    2.32
  15   3   9   23.31    2.61
  15  -3   9   27.33    3.79
  15   3  10   11.09    2.17
  15  -3  10    7.19    2.25
  15   3  11   11.00    2.28
  15  -3  11   11.36    2.91
  15  -3  12    7.36    2.50
  15  -3  13   50.49    4.63
  15  -3  14   15.20    2.79
  15   4 -19    2.99    2.07
  15   4 -18  128.73    7.24
  15  -4 -17    2.32    2.01
  15   4 -17    1.00    1.81
  15  -4 -16    0.00    1.88
  15   4 -16    2.71    1.63
  15   4 -15    2.57    1.71
  15  -4 -15    2.67    1.86
  15   4 -14    6.12    1.99
  15  -4 -14    1.38    1.56
  15   4 -13    4.91    1.89
  15  -4 -13    0.09    1.61
  15   4 -12   21.54    2.62
  15  -4 -12   18.91    2.75
  15   4 -11   17.27    2.35
  15  -4 -11   13.80    2.58
  15   4 -10   34.85    2.85
  15  -4 -10   32.59    3.45
  15   4  -9   37.81    2.85
  15  -4  -9   34.50    3.58
  15   4  -8   12.04    1.62
  15  -4  -8   13.88    2.67
  15   4  -7    1.53    0.94
  15  -4  -7    2.79    1.75
  15   4  -6  116.48    4.15
  15  -4  -6  114.31    6.32
  15   4  -5    2.13    0.91
  15  -4  -5   -0.88    1.58
  15   4  -4  172.51    4.47
  15  -4  -4  176.38    7.93
  15  -4  -3   38.20    3.79
  15  -4  -2   -2.29    1.77
  15  -4  -1    1.88    1.68
  15  -4   0  216.67    9.06
  15  -4   1    5.24    2.24
  15  -4   2    1.58    1.81
  15  -4   3   12.34    2.89
  15  -4   4  158.45    7.85
  15  -4   5    4.78    2.20
  15  -4   6    8.89    2.25
  15  -4   7   -0.84    1.86
  15  -4   8    3.07    2.06
  15  -4   9    3.08    2.01
  15  -4  10    3.96    2.29
  15  -4  11   28.37    3.89
  15  -4  13   13.99    3.63
  15  -4  14   76.86    6.02
  15   5 -18   -1.81    1.87
  15   5 -17  125.24    6.91
  15  -5 -17  122.55    7.43
  15   5 -16   23.25    3.15
  15  -5 -16   19.14    3.28
  15   5 -15    1.74    1.85
  15  -5 -15    1.35    1.61
  15   5 -14   -1.89    1.56
  15  -5 -14    5.12    2.30
  15   5 -13   19.20    2.63
  15  -5 -13   14.02    2.45
  15   5 -12    0.25    1.27
  15  -5 -12    2.50    1.98
  15   5 -11   16.40    2.13
  15  -5 -11   19.00    2.77
  15   5 -10   11.97    1.81
  15  -5 -10   13.24    2.46
  15   5  -9  209.90    6.69
  15  -5  -9  218.59    8.99
  15   5  -8    2.31    1.05
  15  -5  -8   -0.85    1.84
  15   5  -7   73.08    3.24
  15  -5  -7   71.23    5.16
  15  -5  -6    7.87    2.31
  15  -5  -5  107.14    6.27
  15  -5  -4    7.65    2.43
  15  -5  -3  105.04    6.22
  15  -5  -2   24.16    3.15
  15  -5  -1  118.51    6.58
  15  -5   0   12.67    2.76
  15  -5   1  105.53    6.42
  15  -5   2    2.87    2.05
  15  -5   3  160.69    7.99
  15  -5   4   16.16    2.92
  15  -5   5   50.03    4.64
  15  -5   6    3.74    2.03
  15  -5   7    4.30    2.42
  15  -5   8   -2.07    2.39
  15  -5   9    8.78    2.75
  15  -5  10   10.52    3.03
  15  -5  11  101.40    6.86
  15  -6 -15   14.05    2.63
  15  -6 -14   21.32    2.98
  15  -6 -13    8.10    2.23
  15  -6 -12   18.31    2.89
  15  -6 -11    1.56    1.70
  15  -6 -10   22.91    3.17
  15  -6  -9    1.54    1.91
  15  -6  -8   11.83    2.54
  15  -6  -7    4.36    2.28
  15  -6  -6  160.71    7.84
  15  -6  -5   13.94    2.78
  15  -6  -4  241.22    9.99
  15  -6  -3   21.55    3.28
  15  -6  -2   39.77    4.07
  15  -6  -1    5.96    2.28
  15  -6   0  182.94    8.55
  15  -6   1   -0.91    2.14
  15  -6   2    1.99    1.81
  15  -6   3   19.38    3.34
  15  -6   4  257.34   10.50
  15  -6   5    3.16    2.03
  15  -6   6    2.17    2.12
  15  -6   7    2.61    1.94
  15  -6   8    1.39    1.87
  15  -6   9    5.01    2.32
  15  -6  10   10.22    2.74
  15  -7 -15    2.79    1.93
  15  -7 -14    3.07    1.87
  15  -7 -13   -0.64    1.63
  15  -7 -12   -1.23    1.98
  15  -7 -11   -1.90    1.92
  15  -7 -10    7.34    2.19
  15  -7  -9   58.15    4.74
  15  -7  -8    4.34    2.20
  15  -7  -7   10.78    2.58
  15  -7  -6    2.57    1.85
  15  -7  -5   72.88    5.39
  15  -7  -4    3.80    2.17
  15  -7  -3   50.81    4.69
  15  -7  -2   10.43    2.70
  15  -7  -1   24.24    3.40
  15  -7   0    1.37    1.92
  15  -7   1   41.99    4.31
  15  -7   2    4.80    2.01
  15  -7   3   66.20    5.40
  15  -7   4    4.59    2.15
  15  -7   5   15.04    2.97
  15  -7   6   -1.58    1.96
  15  -7   7   25.95    3.68
  15  -7   8    4.13    2.29
  15  -7   9    2.02    2.24
  15  -7  10   -3.71    2.55
  15  -8 -15   -0.56    1.69
  15  -8 -14    9.95    2.47
  15  -8 -13   28.02    3.37
  15  -8 -12   78.20    5.46
  15  -8 -11   -0.27    1.80
  15  -8 -10    1.13    1.84
  15  -8  -9    1.34    1.69
  15  -8  -8   21.35    3.21
  15  -8  -7   44.66    4.25
  15  -8  -6   72.57    5.36
  15  -8  -5    6.92    2.48
  15  -8  -4   17.37    3.13
  15  -8  -3    1.16    1.88
  15  -8  -2    4.43    2.53
  15  -8  -1    7.33    2.60
  15  -8   0   56.18    5.15
  15  -8   1    4.12    2.36
  15  -8   2    3.52    2.18
  15  -8   3   10.92    2.66
  15  -8   4   27.20    3.67
  15  -8   5    3.74    2.14
  15  -8   6   12.31    3.02
  15  -8   7    3.68    2.24
  15  -8   8    9.24    2.61
  15  -8   9    9.63    2.81
  15  -9 -16    4.24    2.30
  15  -9 -15    4.74    2.03
  15  -9 -14    7.14    2.24
  15  -9 -13   41.31    4.07
  15  -9 -12    3.80    2.21
  15  -9 -11   92.58    6.11
  15  -9 -10    6.09    2.41
  15  -9  -9    3.16    2.14
  15  -9  -8   11.78    2.70
  15  -9  -7  105.09    6.52
  15  -9  -6    8.63    2.66
  15  -9  -5   15.46    2.93
  15  -9  -4    3.02    2.16
  15  -9  -3   39.15    4.26
  15  -9  -2    7.29    2.20
  15  -9  -1   -0.03    2.05
  15  -9   0    6.99    2.45
  15  -9   1   50.99    4.89
  15  -9   2   27.18    3.83
  15  -9   3    1.07    2.08
  15  -9   4   -4.20    2.43
  15  -9   5   33.50    4.09
  15  -9   6   11.50    2.91
  15  -9   7   58.90    5.23
  15  -9   8   17.82    3.48
  15 -10 -16   -2.85    2.30
  15 -10 -15    0.04    1.86
  15 -10 -14    3.16    2.00
  15 -10 -13   12.28    2.75
  15 -10 -12   96.23    6.36
  15 -10 -11    6.89    2.42
  15 -10 -10   56.19    4.93
  15 -10  -9    8.41    2.57
  15 -10  -8    5.77    2.30
  15 -10  -7   17.20    3.06
  15 -10  -6    6.05    2.37
  15 -10  -5    1.70    1.97
  15 -10  -4   41.17    4.37
  15 -10  -3    2.45    2.14
  15 -10  -2  139.15    7.87
  15 -10  -1    7.80    2.47
  15 -10   0   38.09    4.41
  15 -10   1    6.27    2.65
  15 -10   2   64.18    5.73
  15 -10   3    6.87    2.52
  15 -10   4   11.50    2.90
  15 -10   5    1.35    2.15
  15 -10   6  164.26    8.93
  15 -11 -15   -2.61    2.18
  15 -11 -14    4.23    2.27
  15 -11 -13   68.79    5.72
  15 -11 -12    3.84    2.24
  15 -11 -11  219.97    9.89
  15 -11 -10    9.36    2.62
  15 -11  -9   38.74    4.41
  15 -11  -8    6.33    2.44
  15 -11  -7   30.81    3.90
  15 -11  -6    2.64    1.86
  15 -11  -5    3.20    2.48
  15 -11  -4    4.41    2.21
  15 -11  -3  204.05    9.59
  15 -11  -2   11.41    2.90
  15 -11  -1    5.51    2.77
  15 -11   0   -0.48    1.91
  15 -11   1   28.73    3.93
  15 -11   2    8.88    2.52
  15 -11   3   10.42    2.99
  15 -11   4    2.78    2.55
  15 -11   5   83.33    6.44
  15 -12 -13    9.50    2.83
  15 -12 -12  245.46   10.79
  15 -12 -11   18.69    3.40
  15 -12 -10  102.71    6.95
  15 -12  -9   27.56    3.90
  15 -12  -8   20.73    3.33
  15 -12  -7    6.05    2.62
  15 -12  -6   57.01    5.26
  15 -12  -5    8.28    2.61
  15 -12  -4   17.28    3.30
  15 -12  -3    8.24    2.65
  15 -12  -2  115.65    7.32
  15 -12  -1   -0.22    1.98
  15 -12   0   20.87    3.79
  15 -12   1    2.38    2.38
  15 -12   2   56.06    5.41
  15 -13  -5    6.04    2.43
  16   0 -18    3.94    2.03
  16   0 -17    2.28    2.32
  16   0 -16   49.11    4.55
  16   0 -15   -1.06    1.67
  16   0 -14    7.65    2.28
  16   0 -13   -0.32    1.68
  16   0 -12   92.78    5.40
  16   0 -12  106.50    5.40
  16   0 -11    0.69    1.39
  16   0 -11    1.48    1.53
  16   0 -10  125.91    6.05
  16   0 -10  136.19    6.33
  16   0  -9   14.74    2.30
  16   0  -9   18.92    2.64
  16   0  -8  130.45    5.71
  16   0  -8  135.64    6.47
  16   0  -7    9.09    2.06
  16   0  -6  306.84   10.41
  16   0  -5    6.14    1.93
  16   0  -4    4.05    1.83
  16   0  -3    3.77    1.65
  16   0  -2  400.00   12.62
  16   0  -1    1.66    1.69
  16   0   0   18.93    2.92
  16   0   1    0.61    1.82
  16   0   2    5.18    2.15
  16   0   3    0.67    1.94
  16   0   4   43.83    4.26
  16   0   5   12.80    2.82
  16   0   6  373.44   13.06
  16   0   7    5.96    2.20
  16   0   8  241.32    8.66
  16   0   9    2.44    1.63
  16   0  10   -0.75    1.85
  16   0  11   -2.18    1.80
  16   0  12   16.28    2.83
  16   0  13   -5.12    2.10
  16   1 -18    3.37    2.19
  16  -1 -18    4.78    2.31
  16   1 -17    1.19    1.80
  16  -1 -17    3.46    1.99
  16   1 -16    4.32    2.23
  16  -1 -16    5.61    2.17
  16  -1 -15   56.11    4.66
  16   1 -15   47.97    4.37
  16  -1 -14    0.00    1.73
  16   1 -14    2.42    1.90
  16  -1 -13   21.07    3.04
  16   1 -13   15.89    2.57
  16  -1 -13   19.64    2.66
  16  -1 -12   -0.20    1.68
  16   1 -12    5.86    2.07
  16   1 -12    2.35    1.55
  16  -1 -12    2.93    1.76
  16   1 -11  106.12    5.57
  16  -1 -11  103.99    5.73
  16   1 -11  115.23    5.63
  16  -1 -11  113.45    5.80
  16   1 -10    3.90    1.60
  16  -1 -10    5.39    1.71
  16   1 -10    2.99    1.64
  16  -1 -10    6.09    1.95
  16   1  -9   32.40    2.87
  16   1  -9   36.46    3.35
  16  -1  -9   32.13    3.37
  16   1  -8    5.84    1.55
  16   1  -8    6.19    1.82
  16  -1  -8    9.25    2.20
  16   1  -7  145.08    5.68
  16   1  -7  131.54    6.37
  16  -1  -7  131.60    6.61
  16   1  -6    1.81    1.16
  16   1  -6    0.83    1.53
  16  -1  -6    3.39    1.68
  16   1  -5  117.92    6.18
  16  -1  -5  122.90    6.40
  16   1  -4    1.74    1.78
  16  -1  -4    4.22    2.06
  16   1  -3  104.25    5.98
  16  -1  -3  102.29    5.93
  16   1  -2   16.04    2.66
  16  -1  -2   13.25    2.49
  16   1  -1   11.45    2.33
  16  -1  -1   12.06    2.43
  16   1   0    7.30    2.28
  16  -1   0    6.97    2.19
  16   1   1   15.64    2.73
  16  -1   1   13.59    2.57
  16   1   2    1.82    1.69
  16  -1   2    7.31    2.39
  16   1   3   17.46    2.79
  16  -1   3   19.34    3.02
  16   1   4    2.78    2.22
  16  -1   4    1.98    1.81
  16   1   5   64.23    5.13
  16  -1   5   66.49    5.33
  16   1   6    8.69    1.82
  16  -1   6    8.03    2.55
  16   1   7  182.92    7.02
  16  -1   7  196.95    9.22
  16   1   8    3.58    1.73
  16  -1   8    6.09    2.40
  16   1   9   14.22    2.36
  16  -1   9   20.36    2.80
  16  -1   9   16.34    3.21
  16   1  10    0.54    1.59
  16  -1  10   -1.18    1.53
  16  -1  11    0.14    1.79
  16  -1  12   -0.11    1.81
  16  -1  13    3.16    2.24
  16  -1  14   12.11    3.04
  16   2 -18   36.63    4.23
  16  -2 -17    2.84    1.97
  16   2 -17    0.94    1.86
  16  -2 -16   36.79    4.01
  16   2 -16   32.22    3.82
  16  -2 -15   -1.35    1.92
  16   2 -15    6.82    2.34
  16  -2 -14   12.67    2.52
  16   2 -14   10.38    2.25
  16  -2 -13   12.67    2.55
  16   2 -13   13.92    2.48
  16  -2 -13    9.46    2.00
  16   2 -12   70.30    4.52
  16  -2 -12   59.99    4.55
  16  -2 -12   70.08    4.60
  16   2 -11    3.65    1.51
  16  -2 -11    6.68    1.95
  16   2 -11    5.18    1.70
  16   2 -10    4.37    1.56
  16  -2 -10    0.95    1.57
  16   2 -10    2.28    1.33
  16   2  -9   16.80    2.27
  16  -2  -9   16.37    2.63
  16   2  -9   13.00    2.21
  16   2  -8    8.30    1.57
  16  -2  -8    6.58    2.08
  16   2  -8   12.31    2.22
  16   2  -7   13.41    1.85
  16  -2  -7   12.43    2.48
  16   2  -7   13.73    2.39
  16   2  -6  162.02    5.57
  16   2  -6  159.96    7.17
  16  -2  -6  161.72    7.48
  16   2  -5    0.89    0.98
  16   2  -5   -0.54    1.51
  16  -2  -5    3.89    2.06
  16   2  -4   -2.10    1.08
  16   2  -4   -2.99    1.90
  16  -2  -4    2.39    1.81
  16   2  -3    2.03    1.56
  16  -2  -3    2.44    1.80
  16   2  -2  105.81    6.04
  16  -2  -2  119.68    6.56
  16   2  -1    3.82    1.83
  16  -2  -1    1.67    1.76
  16   2   0   24.79    3.20
  16  -2   0   25.82    3.35
  16   2   1   -2.36    1.97
  16  -2   1   -1.02    1.78
  16   2   2    9.37    2.55
  16  -2   2   11.51    2.64
  16  -2   3    9.14    2.48
  16  -2   4    5.06    2.04
  16  -2   5   11.79    2.66
  16  -2   6  138.37    7.65
  16  -2   7   17.34    3.15
  16  -2   8   87.96    6.29
  16  -2   9   23.87    3.66
  16  -2  11    4.12    2.02
  16  -2  12    1.16    1.81
  16  -2  13    1.24    1.85
  16  -2  14    7.28    2.55
  16   3 -18    2.36    2.42
  16  -3 -17   29.88    3.73
  16   3 -17   32.01    3.88
  16  -3 -16    7.21    2.28
  16   3 -16    7.82    2.19
  16   3 -15   -0.88    1.66
  16  -3 -15    1.03    1.82
  16  -3 -14   14.07    2.90
  16   3 -14   17.88    2.68
  16   3 -13   17.79    2.55
  16  -3 -13   16.38    2.75
  16  -3 -13   21.02    2.81
  16   3 -12    1.00    1.38
  16  -3 -12    0.55    1.58
  16   3 -11   63.27    4.10
  16  -3 -11   54.19    4.34
  16   3 -10   -1.01    1.45
  16  -3 -10    0.43    1.60
  16   3  -9    6.35    1.50
  16  -3  -9    4.44    1.95
  16   3  -8    8.81    1.67
  16   3  -8    7.14    1.92
  16  -3  -8    7.97    2.19
  16   3  -7   15.54    2.49
  16  -3  -7   17.75    2.77
  16   3  -6   -1.13    1.70
  16  -3  -6   -0.42    1.66
  16   3  -5   43.57    3.78
  16  -3  -5   51.84    4.33
  16   3  -4   11.22    2.27
  16  -3  -4   12.08    2.54
  16   3  -3   -1.08    1.68
  16  -3  -3    0.27    1.72
  16   3  -2   -2.32    1.88
  16  -3  -2   -0.19    1.69
  16  -3  -1   15.26    2.70
  16  -3   0   -0.18    1.78
  16  -3   1  135.20    7.24
  16  -3   2    2.09    1.78
  16  -3   3   19.23    3.19
  16  -3   4    7.32    2.37
  16  -3   5   35.56    4.12
  16  -3   6    3.39    2.04
  16  -3   7   53.33    4.89
  16  -3   8    5.93    2.46
  16  -3   9   18.14    3.16
  16  -3  12    5.80    1.90
  16  -3  13   40.71    4.57
  16  -4 -16    4.09    2.18
  16  -4 -15   12.97    2.63
  16  -4 -14   11.38    2.75
  16  -4 -14   14.33    2.53
  16  -4 -13   16.16    2.71
  16  -4 -12   82.75    5.32
  16  -4 -11    1.70    1.73
  16  -4 -10   76.61    5.20
  16  -4  -9    3.43    2.08
  16  -4  -8   69.28    5.00
  16  -4  -7    5.62    2.05
  16  -4  -6   10.55    2.37
  16  -4  -5    5.83    2.00
  16  -4  -4   56.14    4.62
  16  -4  -3    1.03    1.84
  16  -4  -2    5.70    1.96
  16  -4  -1   10.71    2.63
  16  -4   0  296.02   11.05
  16  -4   1   10.93    2.58
  16  -4   2   84.16    5.87
  16  -4   3   24.40    3.34
  16  -4   4   88.82    6.20
  16  -4   5    2.08    1.97
  16  -4   6    1.23    1.93
  16  -4   7    0.96    1.97
  16  -4   8   15.33    3.02
  16  -4   9    4.74    2.51
  16  -4  13    7.33    2.84
  16  -5 -16   16.32    3.09
  16  -5 -15    9.08    2.44
  16  -5 -14    8.94    2.34
  16  -5 -13   51.32    4.41
  16  -5 -12   -1.24    1.87
  16  -5 -11   35.06    3.82
  16  -5 -10   -0.85    2.06
  16  -5  -9   52.61    4.55
  16  -5  -8    3.41    2.19
  16  -5  -7    2.50    1.90
  16  -5  -6    4.68    2.00
  16  -5  -5    1.59    1.78
  16  -5  -4    3.61    2.19
  16  -5  -3    4.09    2.12
  16  -5  -2   14.66    2.97
  16  -5  -1  167.71    8.28
  16  -5   0   11.50    2.64
  16  -5   1  313.18   11.67
  16  -5   2    8.61    2.49
  16  -5   3    2.86    1.86
  16  -5   4   10.24    2.69
  16  -5   5    4.62    2.20
  16  -5   6   -2.13    2.05
  16  -5   7   13.50    2.87
  16  -5   8    1.83    2.32
  16  -6 -14   42.25    4.10
  16  -6 -13   11.93    2.80
  16  -6 -12  166.68    8.10
  16  -6 -11    1.37    1.91
  16  -6 -10   11.26    2.73
  16  -6  -9    1.77    2.08
  16  -6  -8   60.09    5.03
  16  -6  -7   -1.76    2.07
  16  -6  -6    0.15    1.97
  16  -6  -5   -1.62    1.78
  16  -6  -4   25.83    3.65
  16  -6  -3    9.02    2.39
  16  -6  -2   36.20    4.10
  16  -6  -1   16.62    2.92
  16  -6   0  436.08   14.39
  16  -6   1   15.64    3.24
  16  -6   2  157.90    8.27
  16  -6   3    0.78    1.83
  16  -6   4   14.73    2.97
  16  -6   5   -0.56    1.94
  16  -6   6    3.02    2.30
  16  -6   7    5.67    2.41
  16  -7 -14    6.60    2.17
  16  -7 -13   26.62    3.55
  16  -7 -12    7.22    2.50
  16  -7 -11   32.03    3.73
  16  -7 -10    5.48    2.24
  16  -7  -9   54.57    4.83
  16  -7  -8    0.41    1.78
  16  -7  -7   28.50    3.85
  16  -7  -6    7.18    2.38
  16  -7  -5    2.48    2.28
  16  -7  -4    4.41    2.30
  16  -7  -3   -0.93    2.00
  16  -7  -2    8.52    2.56
  16  -7  -1   91.76    6.27
  16  -7   0    8.12    2.57
  16  -7   1  162.61    8.41
  16  -7   2    5.51    2.38
  16  -7   3    0.12    2.00
  16  -7   4    0.09    1.94
  16  -7   5   -2.89    1.83
  16  -7   6    2.04    2.12
  16  -7   7    1.82    2.19
  16  -8 -15   13.00    2.63
  16  -8 -14    2.17    1.85
  16  -8 -13    7.01    2.29
  16  -8 -12   95.07    6.20
  16  -8 -11    5.78    2.32
  16  -8 -10    3.32    2.07
  16  -8  -9    5.02    2.34
  16  -8  -8   10.30    2.68
  16  -8  -7   24.70    3.51
  16  -8  -6   39.15    4.41
  16  -8  -5   20.68    3.33
  16  -8  -4    2.86    2.43
  16  -8  -3   -2.67    2.59
  16  -8  -2    1.82    2.21
  16  -8  -1   14.09    3.08
  16  -8   0  127.36    7.60
  16  -8   1    3.17    2.05
  16  -8   2   27.10    3.60
  16  -8   3   -3.65    2.60
  16  -8   4    2.57    1.90
  16  -8   5    1.57    2.23
  16  -8   6    3.83    2.13
  16  -9 -15   13.46    2.80
  16  -9 -14   15.41    3.09
  16  -9 -13   18.91    3.06
  16  -9 -12    0.10    1.82
  16  -9 -11   33.61    3.81
  16  -9 -10   -0.07    1.99
  16  -9  -9    0.65    1.86
  16  -9  -8    6.61    2.52
  16  -9  -7   58.14    5.24
  16  -9  -6    6.08    2.65
  16  -9  -5   60.54    5.30
  16  -9  -4    3.68    2.31
  16  -9  -3   14.58    3.07
  16  -9  -2   -1.08    2.30
  16  -9  -1   -1.58    2.25
  16  -9   0    3.62    2.06
  16  -9   1   52.72    5.05
  16  -9   2   19.12    3.41
  16  -9   3    1.26    1.93
  16  -9   4    2.19    2.11
  16 -10 -15    6.78    2.63
  16 -10 -14   49.43    4.89
  16 -10 -13    6.59    2.44
  16 -10 -12   11.91    3.40
  16 -10 -11   -1.02    2.12
  16 -10 -10   33.06    3.92
  16 -10  -9    6.31    2.48
  16 -10  -8   24.47    3.61
  16 -10  -7   17.93    3.15
  16 -10  -6   89.19    6.29
  16 -10  -5    3.57    2.38
  16 -10  -4    5.17    2.37
  16 -10  -3    2.99    2.21
  16 -10  -2   92.32    6.77
  16 -10  -1    8.12    2.84
  16 -10   0    1.86    2.37
  16 -10   1    3.51    2.64
  16 -10   2    4.56    2.44
  16 -11 -13    8.30    2.75
  16 -11 -12   -3.02    2.18
  16 -11 -11   51.93    5.14
  16 -11 -10    2.97    2.17
  16 -11  -9   32.61    4.07
  16 -11  -8    8.09    2.53
  16 -11  -7  146.62    8.29
  16 -11  -6    6.11    2.41
  16 -11  -5  126.86    7.77
  16 -11  -4    1.40    2.01
  16 -11  -3   23.60    3.78
  16 -11  -2    2.92    2.46
  16 -11  -1   18.43    3.58
  17   0 -17    0.31    2.03
  17   0 -16    6.75    2.50
  17   0 -15    0.66    1.96
  17   0 -14   12.80    2.73
  17   0 -13    5.15    1.91
  17   0 -12    1.23    1.50
  17   0 -11    2.26    1.63
  17   0 -11    5.41    1.81
  17   0 -10    0.49    1.34
  17   0 -10    2.51    1.73
  17   0  -9    3.47    1.62
  17   0  -9    8.22    2.42
  17   0  -8   47.12    3.51
  17   0  -8   43.85    3.79
  17   0  -7    3.47    1.68
  17   0  -6  654.18   17.17
  17   0  -5    8.86    2.27
  17   0  -4  211.93    8.91
  17   0  -3    8.36    2.25
  17   0  -2    8.06    2.25
  17   0  -1    1.44    1.62
  17   0   0   40.45    4.16
  17   0   1   -0.69    1.82
  17   0   2   86.08    5.90
  17   0   3    1.03    1.88
  17   0   4   38.08    4.17
  17   0   5    1.92    2.15
  17   0   6   31.90    3.96
  17  -1 -17   17.04    3.33
  17   1 -16    1.25    1.81
  17  -1 -16    1.26    1.85
  17   1 -15   22.89    3.25
  17  -1 -15   28.27    3.62
  17  -1 -14   -1.00    1.76
  17   1 -14    0.40    1.65
  17   1 -13   52.76    4.30
  17  -1 -13   43.78    4.04
  17  -1 -12   12.54    2.40
  17   1 -12   10.14    2.37
  17  -1 -12   10.72    2.10
  17  -1 -11   -0.82    1.52
  17   1 -11    1.23    1.58
  17   1 -11    4.86    1.78
  17  -1 -11    2.09    2.15
  17   1 -10   -0.69    1.31
  17  -1 -10    1.71    1.69
  17   1 -10    1.88    1.48
  17  -1 -10    2.58    1.71
  17   1  -9    2.54    1.71
  17   1  -9    2.18    1.58
  17  -1  -9    2.07    1.74
  17   1  -8    4.67    2.00
  17  -1  -8    9.24    2.33
  17   1  -7   59.18    4.42
  17  -1  -7   60.76    4.69
  17   1  -6    7.55    2.26
  17  -1  -6   14.00    2.71
  17   1  -5  333.66   11.34
  17  -1  -5  325.85   11.34
  17   1  -4    1.70    1.84
  17  -1  -4    3.95    1.87
  17   1  -3    1.68    1.83
  17  -1  -3    3.25    1.96
  17   1  -2   -0.81    1.77
  17  -1  -2    3.15    2.08
  17   1  -1    5.50    2.09
  17  -1  -1    4.32    2.04
  17   1   0   -0.96    1.79
  17  -1   0    2.92    1.96
  17   1   1   26.06    3.42
  17  -1   1   26.30    3.47
  17   1   2    4.64    2.29
  17  -1   2    4.24    2.18
  17  -1   3  112.23    6.85
  17   1   3  101.72    6.50
  17   1   4    6.41    2.48
  17  -1   4    0.64    1.79
  17  -1   5    0.38    1.79
  17  -1   6    1.80    2.64
  17  -1   7   83.59    6.30
  17  -2 -17    0.72    2.05
  17  -2 -16    4.88    2.06
  17  -2 -15   -0.89    1.87
  17  -2 -14   11.52    2.49
  17  -2 -13    2.87    1.97
  17  -2 -12   16.95    2.81
  17  -2 -12   21.66    2.90
  17  -2 -11    3.76    1.84
  17  -2 -11    0.78    1.53
  17   2 -10    2.50    1.65
  17  -2 -10    0.87    1.58
  17   2  -9    1.55    1.38
  17  -2  -9    2.87    1.76
  17   2  -8   11.43    2.22
  17  -2  -8    7.87    2.12
  17   2  -7    1.28    1.62
  17  -2  -7    1.85    1.87
  17   2  -6  178.63    7.77
  17  -2  -6  179.02    8.19
  17   2  -5    5.41    1.73
  17  -2  -5    8.71    2.25
  17   2  -4   40.38    3.89
  17  -2  -4   37.91    3.99
  17   2  -3   12.63    2.52
  17  -2  -3   15.88    2.85
  17   2  -2    0.10    1.77
  17  -2  -2    1.13    1.69
  17   2  -1    0.31    1.74
  17  -2  -1    2.37    1.91
  17   2   0   12.01    2.71
  17  -2   0   10.56    2.66
  17   2   1    6.10    2.50
  17  -2   1    0.46    1.81
  17  -2   2   21.41    3.33
  17  -2   3    9.85    2.59
  17  -2   4   80.10    5.89
  17  -2   5    0.84    2.07
  17  -2   6   79.91    6.21
  17  -2  10    4.00    2.13
  17  -2  11    5.20    2.09
  17  -3 -16    6.33    2.34
  17  -3 -15    2.06    2.11
  17  -3 -14    5.93    2.28
  17  -3 -13    7.53    2.56
  17  -3 -12   10.23    2.41
  17  -3 -11   57.43    4.56
  17  -3 -10    4.90    2.31
  17  -3  -9    2.85    2.07
  17  -3  -8    1.28    1.79
  17  -3  -7   -0.84    1.86
  17  -3  -6    1.69    1.93
  17  -3  -5   96.84    6.06
  17  -3  -4   10.62    2.64
  17  -3  -3    7.44    2.28
  17  -3  -2    6.43    2.25
  17  -3  -1    3.43    1.99
  17  -3   0   -0.42    1.77
  17  -3   1  100.46    6.44
  17  -3   2   14.37    2.98
  17  -3   3   -0.27    1.81
  17  -3   4    3.59    2.02
  17  -3   5   16.56    3.12
  17  -3   6    1.49    1.96
  17  -3  11    0.62    2.15
  17  -4 -15   19.77    3.07
  17  -4 -14    9.06    2.46
  17  -4 -13   13.96    2.66
  17  -4 -12  166.71    7.80
  17  -4 -11    1.25    1.69
  17  -4 -10    3.44    1.80
  17  -4  -9    6.57    2.29
  17  -4  -8    9.14    2.45
  17  -4  -7   -1.39    1.81
  17  -4  -6    1.66    1.82
  17  -4  -5   -2.56    2.18
  17  -4  -4   20.64    3.27
  17  -4  -3    2.76    2.00
  17  -4  -2   39.58    4.27
  17  -4  -1    6.76    2.27
  17  -4   0   95.87    6.37
  17  -4   1    7.22    2.26
  17  -4   2   90.37    6.17
  17  -4   3    2.17    2.09
  17  -4   4    7.28    2.59
  17  -4   5    3.53    2.74
  17  -4   6   23.25    3.48
  17  -5 -15    3.80    2.21
  17  -5 -13  120.04    6.76
  17  -5 -12    7.77    2.29
  17  -5 -11  171.03    8.21
  17  -5 -10    0.24    1.78
  17  -5  -9    2.03    1.86
  17  -5  -8   -3.13    2.00
  17  -5  -7    7.38    2.25
  17  -5  -6   -2.18    2.34
  17  -5  -5    6.26    2.08
  17  -5  -4    1.23    1.82
  17  -5  -3   75.67    5.63
  17  -5  -2   -1.13    1.87
  17  -5  -1   25.28    3.55
  17  -5   0   12.08    2.78
  17  -5   1  319.14   12.09
  17  -5   2   11.03    2.97
  17  -5   3  119.18    7.22
  17  -5   4    8.58    2.74
  17  -5   5   52.53    5.01
  17  -6 -13   12.00    2.76
  17  -6 -12  298.37   11.49
  17  -6 -11   -1.46    1.82
  17  -6 -10   18.83    3.19
  17  -6  -9    4.22    2.15
  17  -6  -8   10.07    2.69
  17  -6  -7    3.75    2.06
  17  -6  -6   16.05    3.02
  17  -6  -5    0.45    1.92
  17  -6  -4   39.57    4.25
  17  -6  -3   -0.74    1.99
  17  -6  -2    7.73    2.37
  17  -6  -1   12.43    2.94
  17  -6   0  292.03   11.69
  17  -6   1   16.20    3.26
  17  -6   2  317.86   12.27
  17  -6   3   17.57    3.36
  17  -6   4   88.62    6.37
  17  -7 -14    4.33    2.11
  17  -7 -13   42.73    4.29
  17  -7 -12    3.88    2.28
  17  -7 -11   92.58    6.51
  17  -7 -10    6.00    2.41
  17  -7  -9    0.90    1.93
  17  -7  -8    0.14    2.04
  17  -7  -7   19.29    3.37
  17  -7  -6    6.79    2.47
  17  -7  -5    5.37    2.24
  17  -7  -4    0.56    1.93
  17  -7  -3   39.98    4.42
  17  -7  -2    0.49    1.89
  17  -7  -1   10.68    2.65
  17  -7   0   10.08    2.82
  17  -7   1  233.19   10.46
  17  -7   2   15.47    3.12
  17  -7   3   48.01    4.90
  17  -8 -14   11.69    2.78
  17  -8 -13    4.06    2.30
  17  -8 -12  127.79    7.45
  17  -8 -11   22.72    3.58
  17  -8 -10    5.71    2.26
  17  -8  -9    9.48    2.59
  17  -8  -8    1.68    2.09
  17  -8  -7    5.09    2.19
  17  -8  -6   29.25    4.10
  17  -8  -5    3.72    2.12
  17  -8  -4    8.55    2.62
  17  -8  -3   -1.70    2.18
  17  -8  -2    9.52    2.81
  17  -8  -1    1.29    2.04
  17  -8   0   75.42    6.04
  17  -8   1    4.26    2.05
  17  -8   2   89.68    6.58
  17  -9 -14    3.54    2.31
  17  -9 -13   -3.85    2.52
  17  -9 -12   -0.74    1.91
  17  -9 -11    2.73    2.01
  17  -9 -10    3.73    2.42
  17  -9  -9    4.79    2.68
  17  -9  -8    5.60    2.39
  17  -9  -7   32.01    4.05
  17  -9  -6    2.51    2.21
  17  -9  -5   81.24    6.44
  17  -9  -4    2.06    2.39
  17  -9  -3    3.90    2.03
  17  -9  -2    0.60    2.40
  17  -9  -1    8.68    2.93
  17 -10 -11   -0.59    2.18
  17 -10 -10   -0.54    2.50
  17 -10  -9    3.08    2.51
  17 -10  -8    7.99    2.55
  17 -10  -7   18.71    3.43
  17 -10  -6  131.31    8.17
  17 -10  -5    6.96    2.70
  18   0 -11    7.65    2.01
  18   0 -10   51.25    4.17
  18   0  -9    1.45    1.79
  18   0  -8   15.32    2.66
  18   0  -7   -0.45    1.78
  18   0  -6  161.28    7.80
  18   0  -5   16.54    2.98
  18   0  -4  163.32    7.93
  18   0  -3   14.38    2.85
  18   0  -2   68.21    5.29
  18   0  -1    4.54    2.21
  18   0   0  229.57   10.00
  18   0   1    1.09    1.91
  18   0   2   12.42    2.64
  18   0   3   -2.26    2.06
  18   0   4   81.43    6.05
  18  -1 -11    7.37    2.04
  18   1 -10    5.39    2.05
  18  -1 -10    3.80    1.97
  18   1  -9   32.72    3.47
  18  -1  -9   33.55    3.61
  18   1  -8   -2.82    1.94
  18  -1  -8   -3.76    2.05
  18   1  -7    5.95    2.15
  18  -1  -7    1.56    1.79
  18   1  -6    2.62    1.97
  18  -1  -6   -2.51    1.97
  18   1  -5  243.42    9.83
  18  -1  -5  251.47   10.05
  18   1  -4    3.58    1.85
  18  -1  -4   10.43    2.55
  18   1  -3   31.92    3.71
  18  -1  -3   26.54    3.51
  18   1  -2    6.59    2.29
  18  -1  -2    6.84    2.16
  18   1  -1   42.46    4.32
  18  -1  -1   42.52    4.31
  18   1   0   10.72    2.78
  18  -1   0    5.56    2.11
  18   1   1   23.63    3.41
  18  -1   1   26.73    3.51
  18   1   2   -2.96    1.93
  18  -1   2    4.93    2.28
  18   1   3  109.58    6.96
  18  -1   3  103.11    6.82
  18  -1   4    1.46    1.97
  18  -2 -15    4.79    2.35
  18  -2 -14    2.38    1.77
  18  -2 -13    0.61    1.92
  18  -2 -12   17.14    2.90
  18  -2 -11    2.76    1.83
  18  -2 -11    3.84    1.90
  18   2 -10   11.72    2.44
  18  -2 -10   15.94    2.78
  18   2  -9    4.15    1.84
  18  -2  -9    1.20    1.76
  18   2  -8    7.79    2.27
  18  -2  -8    3.79    1.84
  18   2  -7    1.22    1.81
  18  -2  -7    0.01    1.68
  18   2  -6  127.90    6.82
  18  -2  -6  127.63    7.07
  18   2  -5    2.98    1.85
  18  -2  -5    6.39    2.25
  18   2  -4   24.43    3.19
  18  -2  -4   28.01    3.56
  18   2  -3    1.66    1.77
  18  -2  -3    2.92    1.83
  18   2  -2    3.23    1.97
  18  -2  -2   -4.49    2.41
  18   2  -1   -1.40    2.08
  18  -2  -1    2.10    1.97
  18   2   0   60.15    5.14
  18  -2   0   66.59    5.39
  18  -2   1    6.80    2.27
  18  -2   2    4.10    2.09
  18  -2   3   15.21    3.12
  18  -3 -15   13.17    2.86
  18  -3 -14   -3.72    2.27
  18  -3 -13   13.61    2.78
  18  -3 -12    1.91    2.00
  18  -3 -12    3.91    1.96
  18  -3 -11   61.37    4.85
  18  -3 -10    1.06    1.71
  18  -3  -9    0.14    1.73
  18  -3  -8   -2.01    1.95
  18  -3  -7    4.29    2.30
  18  -3  -6    3.56    2.06
  18  -3  -5   91.43    6.07
  18  -3  -4   -0.32    1.85
  18  -3  -3    5.45    2.38
  18  -3  -2   -6.24    2.49
  18  -3  -1   -1.59    2.12
  18  -3   0    2.00    2.14
  18  -3   1   38.90    4.37
  18  -3   2   10.39    2.78
  18  -3   3   -0.28    2.14
  18  -4 -14    3.25    2.15
  18  -4 -13    0.97    1.92
  18  -4 -12  128.72    7.12
  18  -4 -11    3.75    2.08
  18  -4 -10   36.31    4.18
  18  -4  -9   12.37    2.68
  18  -4  -8    3.92    2.28
  18  -4  -7    5.12    2.36
  18  -4  -6   32.14    3.85
  18  -4  -5    3.42    2.04
  18  -4  -4   47.57    4.46
  18  -4  -3    0.92    1.78
  18  -4  -2   82.31    5.97
  18  -4  -1   -0.39    1.81
  18  -4   0    3.63    2.03
  18  -4   1    4.34    2.37
  18  -4   2   42.18    4.41
  18  -5 -12    6.29    2.45
  18  -5 -11  243.46   10.20
  18  -5 -10   10.79    2.80
  18  -5  -9   28.49    3.68
  18  -5  -8    1.94    2.16
  18  -5  -7   28.36    3.62
  18  -5  -6    0.77    1.90
  18  -5  -5   16.10    3.08
  18  -5  -4    9.66    2.63
  18  -5  -3  138.98    7.81
  18  -5  -2   11.69    2.77
  18  -5  -1   39.09    4.32
  18  -5   0    1.41    2.03
  18  -5   1   52.85    5.03
  18  -6 -12  145.87    7.90
  18  -6 -11    5.09    2.31
  18  -6 -10   70.24    5.62
  18  -6  -9    7.14    2.44
  18  -6  -8   19.94    3.38
  18  -6  -7    0.03    1.94
  18  -6  -6    9.82    2.73
  18  -6  -5   12.98    2.98
  18  -6  -4   68.70    5.60
  18  -6  -3    6.54    2.68
  18  -6  -2  150.72    8.29
  18  -6  -1    8.06    2.40
  18  -6   0   37.05    4.36
  18  -7 -13   37.54    4.45
  18  -7 -12    2.62    2.11
  18  -7 -11  130.87    7.74
  18  -7 -10   17.27    3.21
  18  -7  -9    7.34    2.49
  18  -7  -8   -3.60    2.44
  18  -7  -7    0.89    1.93
  18  -7  -6    9.36    2.57
  18  -7  -5    0.67    2.24
  18  -7  -4    0.21    1.92
  18  -7  -3  148.00    8.28
  18  -7  -2    9.31    3.02
  18  -8 -12   56.16    5.41
  18  -8 -11   13.51    2.95
  18  -8 -10   23.36    4.17
  18  -8  -9    4.81    2.48
  18  -8  -8   -0.90    2.07
  18  -8  -7    0.18    2.05
  18  -8  -6   86.70    6.62
  18  -8  -5   21.93    3.62
  19   0 -10   11.13    2.49
  19   0  -9    9.50    2.35
  19   0  -8   86.32    5.69
  19   0  -7    0.21    1.74
  19   0  -6   18.30    3.23
  19   0  -5    1.52    1.76
  19   0  -4   67.81    5.39
  19   0  -3    1.14    1.97
  19   0  -2   12.55    2.88
  19   0  -1    6.51    2.34
  19   0   0  288.25   11.61
  19   0   1    6.05    2.62
  19  -1 -10    3.34    1.88
  19   1  -9   58.05    4.67
  19  -1  -9   59.59    4.82
  19   1  -8   -0.64    1.90
  19  -1  -8    1.97    1.77
  19   1  -7   10.95    2.62
  19  -1  -7   13.23    2.66
  19   1  -6    3.08    2.06
  19  -1  -6    3.09    2.13
  19   1  -5   63.99    5.05
  19  -1  -5   54.78    4.77
  19   1  -4    6.41    2.17
  19  -1  -4    8.94    2.38
  19   1  -3   15.03    2.94
  19  -1  -3   14.06    2.74
  19   1  -2    9.33    2.58
  19  -1  -2    6.82    2.55
  19  -1  -1   66.99    5.45
  19   1  -1   73.66    5.70
  19   1   0   10.62    2.75
  19  -1   0   15.83    3.12
  19   1   1  150.68    8.25
  19  -2 -10    7.77    2.50
  19   2  -9    1.92    1.90
  19  -2  -9    1.85    2.03
  19   2  -8   -0.19    1.69
  19  -2  -8    5.04    2.28
  19   2  -7   -5.15    2.21
  19  -2  -7   -1.35    1.88
  19   2  -6   50.45    4.58
  19  -2  -6   47.82    4.48
  19   2  -5   -0.20    1.74
  19  -2  -5   -0.27    1.84
  19   2  -4    5.90    2.27
  19  -2  -4    1.15    1.83
  19   2  -3    6.13    2.15
  19  -2  -3   -0.47    2.04
  19  -2  -2   10.53    2.54
  19  -2  -1   -2.28    2.43
  19  -2   0   94.93    6.55
  19  -3 -11   29.25    3.52
  19  -3 -10    7.60    2.54
  19  -3  -9   -3.51    2.32
  19  -3  -8   13.04    2.74
  19  -3  -7   11.22    2.76
  19  -3  -6    0.86    1.97
  19  -3  -5   83.48    6.05
  19  -3  -4    7.44    2.34
  19  -3  -3    6.68    2.26
  19  -3  -2   -4.39    2.46
  19  -3  -1   -0.82    2.00
  19  -4 -11    4.09    2.18
  19  -4 -10   25.16    3.50
  19  -4  -9   16.67    3.11
  19  -4  -8   29.04    3.77
  19  -4  -7    6.32    2.32
  19  -4  -6   87.78    6.19
  19  -4  -5    2.20    2.10
  19  -4  -4   -0.73    1.93
  19  -4  -3    0.38    1.89
  19  -4  -2   58.61    5.34
  19  -5 -11  133.59    7.60
  19  -5 -10   11.53    2.85
  19  -5  -9   34.84    4.15
  19  -5  -8    8.36    3.01
  19  -5  -7  124.86    7.54
  19  -5  -6    4.19    2.26
  19  -5  -5   29.23    3.90
  19  -5  -4   -1.85    2.14
  19  -6 -11    6.20    2.48
  19  -6 -10   58.06    5.23
  19  -6  -9    8.36    2.95
  19  -6  -8   35.72    4.30
  19  -6  -7   10.14    2.75
  19  -6  -6  103.40    7.16
  20   0  -9    2.46    2.07
  20   0  -8   50.33    4.64
  20   0  -7    8.39    2.53
  20   0  -6    4.66    2.03
  20   0  -5    0.03    1.83
  20   0  -4    3.29    2.27
  20   0  -3    2.99    2.25
  20  -1  -9   12.36    2.60
  20   1  -8    7.97    2.31
  20  -1  -8    0.97    1.94
  20   1  -7   15.31    3.04
  20  -1  -7   15.18    2.98
  20   1  -6    2.82    1.90
  20  -1  -6    3.53    2.10
  20   1  -5   10.75    2.79
  20  -1  -5    8.91    2.59
  20   1  -4   -0.15    1.84
  20  -1  -4    1.49    1.93
  20   1  -3   10.37    2.63
  20  -2  -9   -0.95    1.74
  20  -2  -8   -1.93    2.07
  20  -2  -7    1.08    1.97
  20  -2  -6    0.29    2.44
  20  -2  -5    1.18    1.95
  20  -3  -9    9.13    2.34
  20  -3  -8    5.34    2.25
  20  -3  -7    7.27    2.53
  20  -3  -6    2.83    2.03
  20  -4  -9    8.26    2.71
   0   0   0    0.00    0.00


TITL pvl810_auto in P2(1)/c
REM P2(1)/c (#14 in standard setting)
CELL 0.71073  15.378636  17.369911  19.025498  90.0000  97.2533  90.0000
ZERR   57.00   0.000735   0.000834   0.000728   0.0000   0.0039   0.0000
LATT  1
SYMM -x, y+1/2,-z+1/2
SFAC C H N O S Zn
UNIT 57.00 57.00 57.00 57.00 57.00 57.00
REM  CrysAlisPro recorded range (K): Min=170.0; max=170.0; aver:170.0
TEMP -103
TREF
HKLF 4
END
_computing_structure_solution     'SHELXT 2018/2 (Sheldrick, 2018)'
;
_shelx_hkl_checksum   79308

