 
data_pvl713
 
_audit_creation_method            'SHELXL-2018/3'
_shelx_SHELXL_version_number      '2018/3'
_chemical_name_systematic         ?
_chemical_name_common             ?
_chemical_melting_point           ?
_chemical_formula_moiety          ?
_chemical_formula_sum
 'C10 H10 Cd N4 O4 S' 
_chemical_formula_weight          394.68

loop_
 _atom_type_symbol
 _atom_type_description
 _atom_type_scat_dispersion_real
 _atom_type_scat_dispersion_imag
 _atom_type_scat_source
 'C'  'C'   0.0033   0.0016
 'International Tables Vol C Tables 4.2.6.8 and 6.1.1.4'
 'H'  'H'   0.0000   0.0000
 'International Tables Vol C Tables 4.2.6.8 and 6.1.1.4'
 'N'  'N'   0.0061   0.0033
 'International Tables Vol C Tables 4.2.6.8 and 6.1.1.4'
 'O'  'O'   0.0106   0.0060
 'International Tables Vol C Tables 4.2.6.8 and 6.1.1.4'
 'S'  'S'   0.1246   0.1234
 'International Tables Vol C Tables 4.2.6.8 and 6.1.1.4'
 'Cd'  'Cd'  -0.8075   1.2024
 'International Tables Vol C Tables 4.2.6.8 and 6.1.1.4'
 
_space_group_crystal_system       triclinic
_space_group_IT_number            2
_space_group_name_H-M_alt         'P -1'
_space_group_name_Hall            '-P 1'
 
_shelx_space_group_comment
;
The symmetry employed for this shelxl refinement is uniquely defined
by the following loop, which should always be used as a source of
symmetry information in preference to the above space-group names.
They are only intended as comments.
;
 
loop_
 _space_group_symop_operation_xyz
 'x, y, z'
 '-x, -y, -z'
 
_cell_length_a                    8.7746(2)
_cell_length_b                    11.5915(2)
_cell_length_c                    12.8679(4)
_cell_angle_alpha                 102.011(2)
_cell_angle_beta                  100.669(2)
_cell_angle_gamma                 96.504(2)
_cell_volume                      1242.23(5)
_cell_formula_units_Z             4
_cell_measurement_temperature     170(2)
_cell_measurement_reflns_used     ?
_cell_measurement_theta_min       ?
_cell_measurement_theta_max       ?
 
_exptl_crystal_description        ?
_exptl_crystal_colour             ?
_exptl_crystal_density_meas       ?
_exptl_crystal_density_method     ?
_exptl_crystal_density_diffrn     2.110          
_exptl_crystal_F_000              776
_exptl_transmission_factor_min    ?
_exptl_transmission_factor_max    ?
_exptl_crystal_size_max           ?
_exptl_crystal_size_mid           ?
_exptl_crystal_size_min           ?
_exptl_absorpt_coefficient_mu     1.945
_shelx_estimated_absorpt_T_min    ?
_shelx_estimated_absorpt_T_max    ?
_exptl_absorpt_correction_type    ?
_exptl_absorpt_correction_T_min   ?
_exptl_absorpt_correction_T_max   ?
_exptl_absorpt_process_details    ?
_exptl_absorpt_special_details    ?
_diffrn_ambient_temperature       170(2)
_diffrn_radiation_wavelength      0.71073
_diffrn_radiation_type            MoK\a
_diffrn_source                    ?
_diffrn_measurement_device_type   ?
_diffrn_measurement_method        ?
_diffrn_detector_area_resol_mean  ?
_diffrn_reflns_number             19921
_diffrn_reflns_av_unetI/netI      0.0289
_diffrn_reflns_av_R_equivalents   0.0254
_diffrn_reflns_limit_h_min        -11
_diffrn_reflns_limit_h_max        11
_diffrn_reflns_limit_k_min        -15
_diffrn_reflns_limit_k_max        14
_diffrn_reflns_limit_l_min        -15
_diffrn_reflns_limit_l_max        17
_diffrn_reflns_theta_min          2.154
_diffrn_reflns_theta_max          29.050
_diffrn_reflns_theta_full         25.242
_diffrn_measured_fraction_theta_max   0.879
_diffrn_measured_fraction_theta_full  1.000
_diffrn_reflns_Laue_measured_fraction_max    0.879
_diffrn_reflns_Laue_measured_fraction_full   1.000
_diffrn_reflns_point_group_measured_fraction_max   0.879
_diffrn_reflns_point_group_measured_fraction_full  1.000
_reflns_number_total              5817
_reflns_number_gt                 5389
_reflns_threshold_expression      'I > 2\s(I)'
_reflns_Friedel_coverage          0.000
_reflns_Friedel_fraction_max      .
_reflns_Friedel_fraction_full     .
 
_reflns_special_details
;
 Reflections were merged by SHELXL according to the crystal
 class for the calculation of statistics and refinement.
 
 _reflns_Friedel_fraction is defined as the number of unique
 Friedel pairs measured divided by the number that would be
 possible theoretically, ignoring centric projections and
 systematic absences.
;
 
_computing_data_collection        ?
_computing_cell_refinement        ?
_computing_data_reduction         ?
_computing_structure_solution     'SHELXT 2014/5 (Sheldrick, 2014)'
_computing_structure_refinement 'SHELXL-2018/3 (Sheldrick, 2018)'
_computing_molecular_graphics     ?
_computing_publication_material   ?
_refine_special_details           ?
_refine_ls_structure_factor_coef  Fsqd
_refine_ls_matrix_type            full
_refine_ls_weighting_scheme       calc
_refine_ls_weighting_details
'w=1/[\s^2^(Fo^2^)+(0.1000P)^2^] where P=(Fo^2^+2Fc^2^)/3'
_atom_sites_solution_primary      ?
_atom_sites_solution_secondary    ?
_atom_sites_solution_hydrogens    mixed
_refine_ls_hydrogen_treatment     mixed
_refine_ls_extinction_method      none
_refine_ls_extinction_coef        .
_refine_ls_number_reflns          5817
_refine_ls_number_parameters      359
_refine_ls_number_restraints      0
_refine_ls_R_factor_all           0.0252
_refine_ls_R_factor_gt            0.0222
_refine_ls_wR_factor_ref          0.0800
_refine_ls_wR_factor_gt           0.0754
_refine_ls_goodness_of_fit_ref    0.670
_refine_ls_restrained_S_all       0.670
_refine_ls_shift/su_max           0.005
_refine_ls_shift/su_mean          0.000
 
loop_
 _atom_site_label
 _atom_site_type_symbol
 _atom_site_fract_x
 _atom_site_fract_y
 _atom_site_fract_z
 _atom_site_U_iso_or_equiv
 _atom_site_adp_type
 _atom_site_occupancy
 _atom_site_site_symmetry_order  
 _atom_site_calc_flag
 _atom_site_refinement_flags_posn
 _atom_site_refinement_flags_adp
 _atom_site_refinement_flags_occupancy
 _atom_site_disorder_assembly
 _atom_site_disorder_group
Cd01 Cd 0.16388(2) 0.58961(2) 0.46908(2) 0.01192(6) Uani 1 1 d . . . . .
O0 O 0.14345(16) -0.20296(12) 0.11443(11) 0.0217(3) Uani 1 1 d . . . . .
H0 H 0.192(3) -0.2035(10) 0.176(2) 0.033 Uiso 1 1 calc R U . . .
S002 S 0.54225(6) 0.81293(5) 1.16760(4) 0.02682(12) Uani 1 1 d . . . . .
O003 O 0.18146(15) -0.20884(11) 0.46028(11) 0.0177(3) Uani 1 1 d . . . . .
O004 O 0.33203(14) 0.40538(11) 0.50777(13) 0.0232(3) Uani 1 1 d . . . . .
O005 O 0.07513(15) 0.39399(11) 0.47164(11) 0.0163(3) Uani 1 1 d . . . . .
O006 O 0.37065(15) 0.58986(12) 0.38027(11) 0.0169(3) Uani 1 1 d . . . . .
H006 H 0.455(3) 0.599(2) 0.4256(14) 0.025 Uiso 1 1 calc R U . . .
H1 H 0.355(3) 0.648(2) 0.360(2) 0.025 Uiso 1 1 d . U . . .
O007 O 0.26577(15) -0.22551(11) 0.30535(10) 0.0191(3) Uani 1 1 d . . . . .
O008 O 0.30246(16) -0.02941(12) 0.14664(11) 0.0242(3) Uani 1 1 d . . . . .
N009 N 0.30811(18) 0.66689(15) 0.64237(13) 0.0176(3) Uani 1 1 d . . . . .
N00B N 0.46154(18) 0.68078(14) 0.80237(12) 0.0171(3) Uani 1 1 d . . . . .
N00C N 1.00950(18) 0.52841(15) 1.29157(13) 0.0176(3) Uani 1 1 d . . . . .
N00D N 0.85301(18) 0.52863(14) 1.13606(13) 0.0168(3) Uani 1 1 d . . . . .
N00E N 0.48864(18) 0.78433(15) 1.03661(13) 0.0206(3) Uani 1 1 d . . . . .
N00F N 0.66457(19) 0.72015(16) 1.18178(13) 0.0236(4) Uani 1 1 d . . . . .
C00G C 0.1993(2) 0.34597(15) 0.48933(14) 0.0137(3) Uani 1 1 d . . . . .
C00H C 0.23041(18) -0.16425(15) 0.38946(14) 0.0131(3) Uani 1 1 d . . . . .
C00I C 0.3808(2) 0.60676(18) 0.70704(15) 0.0185(4) Uani 1 1 d . . . . .
H00I H 0.377252 0.522607 0.689379 0.022 Uiso 1 1 calc R U . . .
C00J C 0.3311(2) 0.17258(15) 0.53083(14) 0.0147(3) Uani 1 1 d . . . . .
H00A H 0.412158 0.193289 0.490611 0.018 Uiso 1 1 calc R U . . .
H00B H 0.369019 0.215488 0.608064 0.018 Uiso 1 1 calc R U . . .
C00K C 0.30784(19) 0.03836(15) 0.52255(14) 0.0139(3) Uani 1 1 d . . . . .
H00C H 0.230532 0.017756 0.565518 0.017 Uiso 1 1 calc R U . . .
H00D H 0.408506 0.014634 0.552871 0.017 Uiso 1 1 calc R U . . .
C00L C 0.0931(2) 0.00771(15) 0.35658(15) 0.0170(4) Uani 1 1 d . . . . .
H00E H 0.056209 -0.035037 0.279227 0.020 Uiso 1 1 calc R U . . .
H00F H 0.012747 -0.015038 0.396593 0.020 Uiso 1 1 calc R U . . .
C00M C 0.17793(19) 0.21298(15) 0.48416(14) 0.0138(3) Uani 1 1 d . . . . .
H00M H 0.099366 0.195226 0.528212 0.017 Uiso 1 1 calc R U . . .
C00N C 0.6686(2) 0.66137(17) 1.08128(15) 0.0173(4) Uani 1 1 d . . . . .
C00O C 0.9308(2) 0.59393(17) 1.23622(15) 0.0181(4) Uani 1 1 d . . . . .
H00O H 0.928405 0.676421 1.262725 0.022 Uiso 1 1 calc R U . . .
C00P C 0.24914(19) -0.02952(15) 0.40344(14) 0.0130(3) Uani 1 1 d . . . . .
H00P H 0.328170 -0.006095 0.361651 0.016 Uiso 1 1 calc R U . . .
C00Q C 0.5681(2) 0.69824(17) 0.99745(15) 0.0162(4) Uani 1 1 d . . . . .
C00R C 0.5592(2) 0.64485(17) 0.88641(15) 0.0175(4) Uani 1 1 d . . . . .
C00S C 0.7572(2) 0.56825(17) 1.05327(15) 0.0165(4) Uani 1 1 d . . . . .
C00T C 0.9821(2) 0.41572(18) 1.22487(16) 0.0206(4) Uani 1 1 d . . . . .
H00T H 1.024086 0.348946 1.243653 0.025 Uiso 1 1 calc R U . . .
C00U C 0.3430(2) 0.78478(18) 0.69776(16) 0.0233(4) Uani 1 1 d . . . . .
H00U H 0.306367 0.849144 0.670673 0.028 Uiso 1 1 calc R U . . .
C00V C 0.7440(2) 0.51785(18) 0.94594(15) 0.0200(4) Uani 1 1 d . . . . .
H00V H 0.801227 0.454894 0.926108 0.024 Uiso 1 1 calc R U . . .
C00W C 0.8867(2) 0.41332(18) 1.12844(16) 0.0209(4) Uani 1 1 d . . . . .
H00W H 0.850490 0.346683 1.068202 0.025 Uiso 1 1 calc R U . . .
C00X C 0.1126(2) 0.14248(15) 0.36565(15) 0.0175(4) Uani 1 1 d . . . . .
H00G H 0.009568 0.164783 0.338372 0.021 Uiso 1 1 calc R U . . .
H00H H 0.184912 0.163897 0.319627 0.021 Uiso 1 1 calc R U . . .
C00Y C 0.6472(2) 0.55653(18) 0.86251(15) 0.0204(4) Uani 1 1 d . . . . .
H00Y H 0.643472 0.520240 0.788554 0.025 Uiso 1 1 calc R U . . .
C00Z C 0.0720(2) 0.12740(17) 0.03843(16) 0.0223(4) Uani 1 1 d . . . . .
H00J H 0.093359 0.207095 0.022871 0.027 Uiso 1 1 calc R U . . .
H00K H 0.121505 0.133690 0.115471 0.027 Uiso 1 1 calc R U . . .
C010 C 0.4373(2) 0.79592(18) 0.79672(16) 0.0241(4) Uani 1 1 d . . . . .
H010 H 0.478200 0.867520 0.850870 0.029 Uiso 1 1 calc R U . . .
C011 C 0.1943(2) -0.10210(16) 0.08878(15) 0.0184(4) Uani 1 1 d . . . . .
C012 C 0.1060(2) -0.08955(17) -0.02065(15) 0.0195(4) Uani 1 1 d . . . . .
H012 H 0.143350 -0.144114 -0.078328 0.023 Uiso 1 1 calc R U . . .
C013 C 0.1444(2) 0.03797(18) -0.03477(17) 0.0225(4) Uani 1 1 d . . . . .
H01A H 0.259788 0.062186 -0.017631 0.027 Uiso 1 1 calc R U . . .
H01B H 0.104615 0.039370 -0.111620 0.027 Uiso 1 1 calc R U . . .
 
loop_
 _atom_site_aniso_label
 _atom_site_aniso_U_11
 _atom_site_aniso_U_22
 _atom_site_aniso_U_33
 _atom_site_aniso_U_23
 _atom_site_aniso_U_13
 _atom_site_aniso_U_12
Cd01 0.01230(9) 0.01121(9) 0.01132(9) 0.00348(5) -0.00040(5) 0.00125(5)
O0 0.0270(7) 0.0197(7) 0.0184(7) 0.0082(5) 0.0002(5) 0.0039(5)
S002 0.0281(3) 0.0411(3) 0.0140(2) 0.0053(2) 0.00421(19) 0.0196(2)
O003 0.0228(6) 0.0138(6) 0.0190(7) 0.0068(5) 0.0065(5) 0.0044(5)
O004 0.0170(7) 0.0147(7) 0.0383(8) 0.0107(6) 0.0017(6) 0.0024(5)
O005 0.0172(6) 0.0124(6) 0.0219(7) 0.0064(5) 0.0058(5) 0.0065(5)
O006 0.0169(6) 0.0157(6) 0.0193(7) 0.0051(5) 0.0032(5) 0.0065(5)
O007 0.0303(7) 0.0138(6) 0.0158(6) 0.0049(5) 0.0070(5) 0.0084(5)
O008 0.0260(7) 0.0222(7) 0.0221(7) 0.0073(6) -0.0024(6) 0.0031(6)
N009 0.0173(7) 0.0194(8) 0.0150(8) 0.0055(6) -0.0007(6) 0.0030(6)
N00B 0.0175(7) 0.0196(8) 0.0116(7) 0.0032(6) -0.0020(6) 0.0016(6)
N00C 0.0176(7) 0.0175(8) 0.0169(8) 0.0067(6) -0.0003(6) 0.0015(6)
N00D 0.0179(7) 0.0173(8) 0.0133(7) 0.0041(6) -0.0019(6) 0.0023(6)
N00E 0.0195(7) 0.0292(9) 0.0139(7) 0.0056(6) 0.0021(6) 0.0091(6)
N00F 0.0251(8) 0.0346(9) 0.0123(8) 0.0056(7) 0.0020(6) 0.0126(7)
C00G 0.0182(8) 0.0106(8) 0.0126(8) 0.0029(6) 0.0032(6) 0.0039(6)
C00H 0.0101(7) 0.0122(8) 0.0163(8) 0.0042(6) -0.0010(6) 0.0038(6)
C00I 0.0193(9) 0.0199(9) 0.0136(9) 0.0043(7) -0.0024(7) 0.0019(7)
C00J 0.0154(8) 0.0135(8) 0.0147(8) 0.0033(6) 0.0004(6) 0.0046(6)
C00K 0.0127(8) 0.0140(8) 0.0151(8) 0.0051(7) 0.0001(6) 0.0047(6)
C00L 0.0168(8) 0.0126(8) 0.0192(9) 0.0025(7) -0.0020(7) 0.0036(6)
C00M 0.0149(8) 0.0115(8) 0.0162(8) 0.0047(6) 0.0030(6) 0.0046(6)
C00N 0.0162(8) 0.0224(9) 0.0130(8) 0.0052(7) 0.0011(7) 0.0033(7)
C00O 0.0205(9) 0.0174(9) 0.0135(9) 0.0032(7) -0.0025(7) 0.0020(7)
C00P 0.0124(7) 0.0115(8) 0.0160(8) 0.0045(6) 0.0027(6) 0.0040(6)
C00Q 0.0143(8) 0.0208(9) 0.0129(8) 0.0049(7) 0.0008(7) 0.0027(7)
C00R 0.0155(8) 0.0228(9) 0.0127(8) 0.0063(7) -0.0020(6) 0.0013(7)
C00S 0.0138(8) 0.0191(9) 0.0148(9) 0.0049(7) -0.0019(7) 0.0020(7)
C00T 0.0230(9) 0.0193(9) 0.0177(9) 0.0037(7) -0.0007(7) 0.0054(7)
C00U 0.0288(10) 0.0190(9) 0.0191(10) 0.0059(7) -0.0042(8) 0.0045(8)
C00V 0.0220(9) 0.0234(10) 0.0145(9) 0.0052(7) 0.0008(7) 0.0073(7)
C00W 0.0264(10) 0.0168(9) 0.0170(9) 0.0013(7) 0.0001(7) 0.0054(7)
C00X 0.0200(8) 0.0131(8) 0.0184(9) 0.0055(7) -0.0028(7) 0.0057(7)
C00Y 0.0236(9) 0.0246(10) 0.0115(8) 0.0031(7) 0.0000(7) 0.0056(8)
C00Z 0.0238(9) 0.0156(9) 0.0232(10) 0.0061(8) -0.0057(8) 0.0007(7)
C010 0.0324(11) 0.0184(9) 0.0167(9) 0.0040(7) -0.0043(8) 0.0003(8)
C011 0.0205(9) 0.0172(9) 0.0196(9) 0.0048(7) 0.0058(7) 0.0085(7)
C012 0.0241(9) 0.0186(9) 0.0159(9) 0.0039(7) 0.0029(7) 0.0058(7)
C013 0.0213(9) 0.0243(10) 0.0238(10) 0.0131(8) 0.0019(8) 0.0031(7)
 
_geom_special_details
;
 All esds (except the esd in the dihedral angle between two l.s. planes)
 are estimated using the full covariance matrix.  The cell esds are taken
 into account individually in the estimation of esds in distances, angles
 and torsion angles; correlations between esds in cell parameters are only
 used when they are defined by crystal symmetry.  An approximate (isotropic)
 treatment of cell esds is used for estimating esds involving l.s. planes.
;
 
loop_
 _geom_bond_atom_site_label_1
 _geom_bond_atom_site_label_2
 _geom_bond_distance
 _geom_bond_site_symmetry_2
 _geom_bond_publ_flag
Cd01 N009 2.2899(16) . ?
Cd01 O006 2.3164(13) . ?
Cd01 O005 2.3216(13) . ?
Cd01 N00C 2.3490(16) 1_454 ?
Cd01 O003 2.3515(13) 1_565 ?
Cd01 O005 2.3746(12) 2_566 ?
O0 C011 1.331(2) . ?
O0 H0 0.83(3) . ?
S002 N00F 1.6163(17) . ?
S002 N00E 1.6159(16) . ?
O003 C00H 1.254(2) . ?
O004 C00G 1.239(2) . ?
O005 C00G 1.283(2) . ?
O006 H006 0.84(3) . ?
O006 H1 0.79(3) . ?
O007 C00H 1.275(2) . ?
O008 C011 1.209(2) . ?
N009 C00I 1.315(2) . ?
N009 C00U 1.374(3) . ?
N00B C00I 1.358(2) . ?
N00B C010 1.390(3) . ?
N00B C00R 1.415(2) . ?
N00C C00O 1.313(2) . ?
N00C C00T 1.374(2) . ?
N00D C00O 1.361(2) . ?
N00D C00W 1.389(2) . ?
N00D C00S 1.418(2) . ?
N00E C00Q 1.347(2) . ?
N00F C00N 1.339(2) . ?
C00G C00M 1.518(2) . ?
C00H C00P 1.521(2) . ?
C00I H00I 0.9500 . ?
C00J C00K 1.525(2) . ?
C00J C00M 1.532(2) . ?
C00J H00A 0.9900 . ?
C00J H00B 0.9900 . ?
C00K C00P 1.532(2) . ?
C00K H00C 0.9900 . ?
C00K H00D 0.9900 . ?
C00L C00X 1.530(2) . ?
C00L C00P 1.537(2) . ?
C00L H00E 0.9900 . ?
C00L H00F 0.9900 . ?
C00M C00X 1.541(2) . ?
C00M H00M 1.0000 . ?
C00N C00S 1.426(3) . ?
C00N C00Q 1.431(2) . ?
C00O H00O 0.9500 . ?
C00P H00P 1.0000 . ?
C00Q C00R 1.418(3) . ?
C00R C00Y 1.369(3) . ?
C00S C00V 1.361(3) . ?
C00T C00W 1.355(3) . ?
C00T H00T 0.9500 . ?
C00U C010 1.356(3) . ?
C00U H00U 0.9500 . ?
C00V C00Y 1.423(3) . ?
C00V H00V 0.9500 . ?
C00W H00W 0.9500 . ?
C00X H00G 0.9900 . ?
C00X H00H 0.9900 . ?
C00Y H00Y 0.9500 . ?
C00Z C013 1.526(3) . ?
C00Z C012 1.535(3) 2 ?
C00Z H00J 0.9900 . ?
C00Z H00K 0.9900 . ?
C010 H010 0.9500 . ?
C011 C012 1.520(3) . ?
C012 C013 1.534(3) . ?
C012 H012 1.0000 . ?
C013 H01A 0.9900 . ?
C013 H01B 0.9900 . ?
 
loop_
 _geom_angle_atom_site_label_1
 _geom_angle_atom_site_label_2
 _geom_angle_atom_site_label_3
 _geom_angle
 _geom_angle_site_symmetry_1
 _geom_angle_site_symmetry_3
 _geom_angle_publ_flag
N009 Cd01 O006 97.62(5) . . ?
N009 Cd01 O005 102.82(5) . . ?
O006 Cd01 O005 108.49(5) . . ?
N009 Cd01 N00C 174.57(5) . 1_454 ?
O006 Cd01 N00C 83.56(5) . 1_454 ?
O005 Cd01 N00C 81.74(5) . 1_454 ?
N009 Cd01 O003 83.76(5) . 1_565 ?
O006 Cd01 O003 84.08(5) . 1_565 ?
O005 Cd01 O003 164.57(5) . 1_565 ?
N00C Cd01 O003 91.10(5) 1_454 1_565 ?
N009 Cd01 O005 91.48(5) . 2_566 ?
O006 Cd01 O005 167.49(5) . 2_566 ?
O005 Cd01 O005 77.57(5) . 2_566 ?
N00C Cd01 O005 86.59(5) 1_454 2_566 ?
O003 Cd01 O005 88.42(4) 1_565 2_566 ?
C011 O0 H0 109.5 . . ?
N00F S002 N00E 100.74(8) . . ?
C00H O003 Cd01 126.27(11) . 1_545 ?
C00G O005 Cd01 105.37(11) . . ?
C00G O005 Cd01 140.72(12) . 2_566 ?
Cd01 O005 Cd01 102.43(5) . 2_566 ?
Cd01 O006 H006 109.5 . . ?
Cd01 O006 H1 93.6(17) . . ?
H006 O006 H1 113.7 . . ?
C00I N009 C00U 106.17(16) . . ?
C00I N009 Cd01 126.30(13) . . ?
C00U N009 Cd01 127.46(12) . . ?
C00I N00B C010 106.90(16) . . ?
C00I N00B C00R 125.03(16) . . ?
C010 N00B C00R 127.94(16) . . ?
C00O N00C C00T 105.96(16) . . ?
C00O N00C Cd01 127.33(13) . 1_656 ?
C00T N00C Cd01 126.70(12) . 1_656 ?
C00O N00D C00W 106.68(15) . . ?
C00O N00D C00S 127.79(16) . . ?
C00W N00D C00S 125.52(16) . . ?
C00Q N00E S002 106.39(13) . . ?
C00N N00F S002 106.47(13) . . ?
O004 C00G O005 121.30(16) . . ?
O004 C00G C00M 121.02(15) . . ?
O005 C00G C00M 117.66(15) . . ?
O003 C00H O007 123.77(15) . . ?
O003 C00H C00P 118.79(15) . . ?
O007 C00H C00P 117.44(15) . . ?
N009 C00I N00B 111.12(17) . . ?
N009 C00I H00I 124.4 . . ?
N00B C00I H00I 124.4 . . ?
C00K C00J C00M 111.32(14) . . ?
C00K C00J H00A 109.4 . . ?
C00M C00J H00A 109.4 . . ?
C00K C00J H00B 109.4 . . ?
C00M C00J H00B 109.4 . . ?
H00A C00J H00B 108.0 . . ?
C00J C00K C00P 110.08(14) . . ?
C00J C00K H00C 109.6 . . ?
C00P C00K H00C 109.6 . . ?
C00J C00K H00D 109.6 . . ?
C00P C00K H00D 109.6 . . ?
H00C C00K H00D 108.2 . . ?
C00X C00L C00P 110.88(14) . . ?
C00X C00L H00E 109.5 . . ?
C00P C00L H00E 109.5 . . ?
C00X C00L H00F 109.5 . . ?
C00P C00L H00F 109.5 . . ?
H00E C00L H00F 108.1 . . ?
C00G C00M C00J 112.20(14) . . ?
C00G C00M C00X 109.77(14) . . ?
C00J C00M C00X 110.15(14) . . ?
C00G C00M H00M 108.2 . . ?
C00J C00M H00M 108.2 . . ?
C00X C00M H00M 108.2 . . ?
N00F C00N C00S 126.67(17) . . ?
N00F C00N C00Q 113.39(16) . . ?
C00S C00N C00Q 119.92(16) . . ?
N00C C00O N00D 111.37(17) . . ?
N00C C00O H00O 124.3 . . ?
N00D C00O H00O 124.3 . . ?
C00H C00P C00K 112.52(14) . . ?
C00H C00P C00L 110.50(14) . . ?
C00K C00P C00L 109.50(13) . . ?
C00H C00P H00P 108.1 . . ?
C00K C00P H00P 108.1 . . ?
C00L C00P H00P 108.1 . . ?
N00E C00Q C00R 126.61(17) . . ?
N00E C00Q C00N 113.00(16) . . ?
C00R C00Q C00N 120.39(16) . . ?
C00Y C00R N00B 120.70(17) . . ?
C00Y C00R C00Q 118.08(17) . . ?
N00B C00R C00Q 121.22(16) . . ?
C00V C00S N00D 121.74(17) . . ?
C00V C00S C00N 118.07(17) . . ?
N00D C00S C00N 120.17(16) . . ?
C00W C00T N00C 110.35(17) . . ?
C00W C00T H00T 124.8 . . ?
N00C C00T H00T 124.8 . . ?
C010 C00U N009 110.15(17) . . ?
C010 C00U H00U 124.9 . . ?
N009 C00U H00U 124.9 . . ?
C00S C00V C00Y 122.03(18) . . ?
C00S C00V H00V 119.0 . . ?
C00Y C00V H00V 119.0 . . ?
C00T C00W N00D 105.64(17) . . ?
C00T C00W H00W 127.2 . . ?
N00D C00W H00W 127.2 . . ?
C00L C00X C00M 111.38(15) . . ?
C00L C00X H00G 109.4 . . ?
C00M C00X H00G 109.4 . . ?
C00L C00X H00H 109.4 . . ?
C00M C00X H00H 109.4 . . ?
H00G C00X H00H 108.0 . . ?
C00R C00Y C00V 121.49(18) . . ?
C00R C00Y H00Y 119.3 . . ?
C00V C00Y H00Y 119.3 . . ?
C013 C00Z C012 111.39(16) . 2 ?
C013 C00Z H00J 109.4 . . ?
C012 C00Z H00J 109.4 2 . ?
C013 C00Z H00K 109.4 . . ?
C012 C00Z H00K 109.4 2 . ?
H00J C00Z H00K 108.0 . . ?
C00U C010 N00B 105.66(17) . . ?
C00U C010 H010 127.2 . . ?
N00B C010 H010 127.2 . . ?
O008 C011 O0 122.62(17) . . ?
O008 C011 C012 123.87(17) . . ?
O0 C011 C012 113.49(16) . . ?
C011 C012 C013 110.97(16) . . ?
C011 C012 C00Z 112.52(16) . 2 ?
C013 C012 C00Z 110.88(15) . 2 ?
C011 C012 H012 107.4 . . ?
C013 C012 H012 107.4 . . ?
C00Z C012 H012 107.4 2 . ?
C00Z C013 C012 112.17(16) . . ?
C00Z C013 H01A 109.2 . . ?
C012 C013 H01A 109.2 . . ?
C00Z C013 H01B 109.2 . . ?
C012 C013 H01B 109.2 . . ?
H01A C013 H01B 107.9 . . ?
 
_refine_diff_density_max    0.488
_refine_diff_density_min   -0.351
_refine_diff_density_rms    0.067

_shelx_res_file
;
TITL pvl713_auto_a.res in P-1
    pvl713.res
    created by SHELXL-2018/3 at 16:07:15 on 21-Jun-2023
REM Old TITL pvl713_auto in P1
REM SHELXT solution in P-1
REM R1 0.061,  Rweak 0.008,  Alpha 0.064,  Orientation as input
REM Formula found by SHELXT:  C24 N7 O6 S Cd
CELL  0.71073   8.7746  11.5915  12.8679  102.011  100.669   96.504
ZERR    4.000   0.0002   0.0002   0.0004    0.002    0.002    0.002
LATT  1
SFAC C H N O S CD
UNIT 40.00 40.00 16.00 16.00 4.00 4.00
ACTA
TEMP -103
L.S. 10
BOND $H
LIST 6
FMAP 2
PLAN 20
WGHT    0.100000
FVAR       0.51722
CD01  6    0.163879    0.589612    0.469079    11.00000    0.01230    0.01121 =
         0.01132    0.00348   -0.00040    0.00125
O0    4    0.143449   -0.202963    0.114433    11.00000    0.02698    0.01966 =
         0.01836    0.00825    0.00016    0.00388
AFIX 148
H0    2    0.192091   -0.203470    0.176275    11.00000   -1.50000
AFIX   0
S002  5    0.542249    0.812929    1.167601    11.00000    0.02813    0.04112 =
         0.01395    0.00527    0.00421    0.01960
O003  4    0.181459   -0.208840    0.460282    11.00000    0.02276    0.01376 =
         0.01896    0.00676    0.00651    0.00445
O004  4    0.332034    0.405383    0.507769    11.00000    0.01698    0.01472 =
         0.03831    0.01067    0.00166    0.00238
O005  4    0.075134    0.393988    0.471639    11.00000    0.01720    0.01238 =
         0.02193    0.00642    0.00580    0.00650
O006  4    0.370651    0.589863    0.380273    11.00000    0.01691    0.01568 =
         0.01934    0.00515    0.00319    0.00649
AFIX 148
H006  2    0.455337    0.598657    0.425591    11.00000   -1.50000
AFIX   0
H1    2    0.354574    0.648451    0.360467    11.00000   -1.50000
O007  4    0.265769   -0.225515    0.305350    11.00000    0.03030    0.01384 =
         0.01575    0.00485    0.00701    0.00835
O008  4    0.302463   -0.029410    0.146644    11.00000    0.02602    0.02224 =
         0.02205    0.00729   -0.00243    0.00306
N009  3    0.308106    0.666894    0.642374    11.00000    0.01730    0.01940 =
         0.01500    0.00549   -0.00075    0.00297
N00B  3    0.461536    0.680779    0.802370    11.00000    0.01745    0.01959 =
         0.01159    0.00316   -0.00201    0.00159
N00C  3    1.009497    0.528407    1.291569    11.00000    0.01764    0.01747 =
         0.01685    0.00668   -0.00026    0.00151
N00D  3    0.853011    0.528627    1.136056    11.00000    0.01790    0.01732 =
         0.01329    0.00409   -0.00186    0.00226
N00E  3    0.488636    0.784327    1.036606    11.00000    0.01948    0.02920 =
         0.01394    0.00559    0.00206    0.00912
N00F  3    0.664567    0.720148    1.181777    11.00000    0.02509    0.03456 =
         0.01235    0.00558    0.00196    0.01258
C00G  1    0.199271    0.345974    0.489329    11.00000    0.01825    0.01064 =
         0.01261    0.00289    0.00324    0.00386
C00H  1    0.230408   -0.164249    0.389456    11.00000    0.01011    0.01223 =
         0.01628    0.00423   -0.00101    0.00381
C00I  1    0.380779    0.606764    0.707035    11.00000    0.01933    0.01989 =
         0.01362    0.00425   -0.00245    0.00192
AFIX  43
H00I  2    0.377252    0.522607    0.689379    11.00000   -1.20000
AFIX   0
C00J  1    0.331137    0.172582    0.530828    11.00000    0.01541    0.01352 =
         0.01471    0.00332    0.00037    0.00461
AFIX  23
H00A  2    0.412158    0.193289    0.490611    11.00000   -1.20000
H00B  2    0.369019    0.215488    0.608064    11.00000   -1.20000
AFIX   0
C00K  1    0.307844    0.038357    0.522548    11.00000    0.01271    0.01397 =
         0.01513    0.00510    0.00008    0.00474
AFIX  23
H00C  2    0.230532    0.017756    0.565518    11.00000   -1.20000
H00D  2    0.408506    0.014634    0.552871    11.00000   -1.20000
AFIX   0
C00L  1    0.093068    0.007709    0.356580    11.00000    0.01676    0.01258 =
         0.01919    0.00253   -0.00195    0.00365
AFIX  23
H00E  2    0.056209   -0.035037    0.279227    11.00000   -1.20000
H00F  2    0.012747   -0.015038    0.396593    11.00000   -1.20000
AFIX   0
C00M  1    0.177932    0.212983    0.484163    11.00000    0.01494    0.01148 =
         0.01618    0.00470    0.00303    0.00461
AFIX  13
H00M  2    0.099366    0.195226    0.528212    11.00000   -1.20000
AFIX   0
C00N  1    0.668561    0.661367    1.081280    11.00000    0.01619    0.02243 =
         0.01304    0.00517    0.00110    0.00325
C00O  1    0.930777    0.593928    1.236223    11.00000    0.02053    0.01736 =
         0.01350    0.00325   -0.00248    0.00198
AFIX  43
H00O  2    0.928405    0.676421    1.262725    11.00000   -1.20000
AFIX   0
C00P  1    0.249142   -0.029524    0.403442    11.00000    0.01237    0.01150 =
         0.01602    0.00451    0.00268    0.00397
AFIX  13
H00P  2    0.328170   -0.006095    0.361651    11.00000   -1.20000
AFIX   0
C00Q  1    0.568076    0.698244    0.997451    11.00000    0.01429    0.02083 =
         0.01289    0.00490    0.00080    0.00270
C00R  1    0.559216    0.644855    0.886406    11.00000    0.01548    0.02281 =
         0.01266    0.00632   -0.00196    0.00127
C00S  1    0.757230    0.568255    1.053268    11.00000    0.01382    0.01914 =
         0.01480    0.00492   -0.00185    0.00197
C00T  1    0.982123    0.415715    1.224867    11.00000    0.02301    0.01932 =
         0.01771    0.00375   -0.00072    0.00541
AFIX  43
H00T  2    1.024086    0.348946    1.243653    11.00000   -1.20000
AFIX   0
C00U  1    0.342983    0.784776    0.697759    11.00000    0.02877    0.01896 =
         0.01911    0.00586   -0.00418    0.00448
AFIX  43
H00U  2    0.306367    0.849144    0.670673    11.00000   -1.20000
AFIX   0
C00V  1    0.744024    0.517849    0.945942    11.00000    0.02197    0.02342 =
         0.01451    0.00515    0.00084    0.00734
AFIX  43
H00V  2    0.801227    0.454894    0.926108    11.00000   -1.20000
AFIX   0
C00W  1    0.886732    0.413323    1.128439    11.00000    0.02642    0.01681 =
         0.01702    0.00129    0.00008    0.00541
AFIX  43
H00W  2    0.850490    0.346683    1.068202    11.00000   -1.20000
AFIX   0
C00X  1    0.112564    0.142476    0.365652    11.00000    0.01995    0.01306 =
         0.01839    0.00548   -0.00278    0.00569
AFIX  23
H00G  2    0.009568    0.164783    0.338372    11.00000   -1.20000
H00H  2    0.184912    0.163897    0.319627    11.00000   -1.20000
AFIX   0
C00Y  1    0.647180    0.556526    0.862511    11.00000    0.02360    0.02462 =
         0.01151    0.00308   -0.00001    0.00563
AFIX  43
H00Y  2    0.643472    0.520240    0.788554    11.00000   -1.20000
AFIX   0
C00Z  1    0.072022    0.127402    0.038426    11.00000    0.02385    0.01556 =
         0.02321    0.00606   -0.00571    0.00069
AFIX  23
H00J  2    0.093359    0.207095    0.022871    11.00000   -1.20000
H00K  2    0.121505    0.133690    0.115471    11.00000   -1.20000
AFIX   0
C010  1    0.437275    0.795920    0.796715    11.00000    0.03242    0.01843 =
         0.01674    0.00403   -0.00432    0.00027
AFIX  43
H010  2    0.478200    0.867520    0.850870    11.00000   -1.20000
AFIX   0
C011  1    0.194250   -0.102103    0.088779    11.00000    0.02053    0.01721 =
         0.01956    0.00480    0.00584    0.00851
C012  1    0.105996   -0.089549   -0.020649    11.00000    0.02415    0.01855 =
         0.01585    0.00394    0.00293    0.00581
AFIX  13
H012  2    0.143350   -0.144114   -0.078328    11.00000   -1.20000
AFIX   0
C013  1    0.144377    0.037969   -0.034771    11.00000    0.02128    0.02434 =
         0.02383    0.01307    0.00187    0.00313
AFIX  23
H01A  2    0.259788    0.062186   -0.017631    11.00000   -1.20000
H01B  2    0.104615    0.039370   -0.111620    11.00000   -1.20000
REM #####
AFIX   0
HKLF 4




REM  pvl713_auto_a.res in P-1
REM wR2 = 0.0800, GooF = S = 0.670, Restrained GooF = 0.670 for all data
REM R1 = 0.0222 for 5389 Fo > 4sig(Fo) and 0.0252 for all 5817 data
REM 359 parameters refined using 0 restraints

END

WGHT      0.0244      0.4748

REM Highest difference peak  0.488,  deepest hole -0.351,  1-sigma level  0.067
Q1    1   0.1894  0.2752  0.4847  11.00000  0.05    0.49
Q2    1   0.2425  0.1961  0.5026  11.00000  0.05    0.43
Q3    1   0.7099  0.6180  1.0728  11.00000  0.05    0.38
Q4    1   0.1688 -0.0179  0.3792  11.00000  0.05    0.37
Q5    1  -0.0171  0.1052  0.0216  11.00000  0.05    0.37
Q6    1   0.1407  0.1764  0.4251  11.00000  0.05    0.37
Q7    1   0.2766  0.0075  0.4614  11.00000  0.05    0.35
Q8    1   0.9841  0.5583  1.2707  11.00000  0.05    0.34
Q9    1   0.4228  0.7971  0.7437  11.00000  0.05    0.33
Q10   1   0.5530  0.6656  0.9370  11.00000  0.05    0.33
Q11   1   0.6156  0.6692  1.0373  11.00000  0.05    0.33
Q12   1   0.4196  0.6366  0.7640  11.00000  0.05    0.32
Q13   1   0.8944  0.5679  1.1731  11.00000  0.05    0.32
Q14   1   0.3279  0.6356  0.6672  11.00000  0.05    0.32
Q15   1   0.8675  0.4633  1.1269  11.00000  0.05    0.32
Q16   1   0.9163  0.4063  1.1865  11.00000  0.05    0.32
Q17   1   0.1325 -0.0838  0.0418  11.00000  0.05    0.31
Q18   1   0.6203  0.6119  0.8677  11.00000  0.05    0.30
Q19   1   0.2349 -0.0949  0.4003  11.00000  0.05    0.30
Q20   1   0.7157  0.5191  0.9968  11.00000  0.05    0.29
;
_shelx_res_checksum    7201

_shelx_hkl_file
;
 -11  -4   7  162.89   15.18
 -11  -3   7    1.01    3.26
 -11  -3   8  114.01   12.59
 -11  -2   7   54.78    8.29
 -11  -2   8    4.72    3.16
 -11  -2   9   19.50    5.84
 -11  -1   8  129.06   12.55
 -11  -1   9  115.98   12.58
 -11   0   9  156.40   14.07
 -10  -7   3    5.66    4.71
 -10  -6   1   19.68    6.47
 -10  -6   2    3.31    4.03
 -10  -6   2    5.84    3.90
 -10  -6   3   21.10    7.30
 -10  -6   3   14.52    5.66
 -10  -6   4   17.62    5.63
 -10  -6   5   20.46    5.43
 -10  -6   6   14.73    5.33
 -10  -5   0  215.92   17.79
 -10  -5   1  108.94   12.62
 -10  -5   2   21.64    6.01
 -10  -5   2   25.28    6.20
 -10  -5   3    9.12    3.81
 -10  -5   3    6.31    4.31
 -10  -5   4   -3.84    3.94
 -10  -5   5    4.12    3.82
 -10  -5   6   16.15    4.38
 -10  -5   7  103.66   11.56
 -10  -5   8  153.16   14.57
 -10  -4   0   91.62   11.58
 -10  -4   1  596.79   30.15
 -10  -4   2  148.69   12.37
 -10  -4   2  155.52   14.75
 -10  -4   3  106.69   10.81
 -10  -4   3   95.96   11.71
 -10  -4   4  221.15   15.76
 -10  -4   5   53.56    8.27
 -10  -4   6   78.78    9.93
 -10  -4   7   10.69    4.70
 -10  -4   8   -1.89    4.03
 -10  -4   9   12.76    5.21
 -10  -3  -1  157.62   15.18
 -10  -3   0   50.54    8.92
 -10  -3   1  249.99   19.05
 -10  -3   2  271.67   16.23
 -10  -3   2  314.10   21.11
 -10  -3   3   98.35    9.85
 -10  -3   3  111.79   12.64
 -10  -3   4  184.16   13.80
 -10  -3   5  407.86   21.33
 -10  -3   6   16.14    4.87
 -10  -3   7  209.24   15.84
 -10  -3   8   43.29    7.71
 -10  -3   9   86.90   10.97
 -10  -3  10   18.44    6.12
 -10  -2  -1    1.80    3.89
 -10  -2   0  155.35   15.08
 -10  -2   1   24.32    6.19
 -10  -2   2   28.67    6.95
 -10  -2   3  244.13   14.91
 -10  -2   3  280.47   20.11
 -10  -2   4  106.37   10.04
 -10  -2   5  217.74   14.86
 -10  -2   6  264.15   16.93
 -10  -2   7   68.16    9.10
 -10  -2   8  222.20   16.57
 -10  -2   9  260.24   18.28
 -10  -2  10  290.80   19.91
 -10  -1  -2   90.34   11.94
 -10  -1  -1   31.96    7.27
 -10  -1   0   21.98    6.16
 -10  -1   1   63.81    9.83
 -10  -1   2    5.57    3.52
 -10  -1   3   56.22    6.81
 -10  -1   3   69.50   10.32
 -10  -1   4  275.79   15.58
 -10  -1   5   20.10    4.69
 -10  -1   6   73.68    8.62
 -10  -1   7  105.80   10.86
 -10  -1   8   74.80    9.43
 -10  -1   9  250.13   17.63
 -10  -1  10  528.99   27.30
 -10  -1  11   28.48    6.98
 -10   0  -2  179.81   16.93
 -10   0  -1   50.19    9.09
 -10   0   0  266.23   20.13
 -10   0   1    0.22    3.98
 -10   0   2    8.44    4.71
 -10   0   3    5.83    4.83
 -10   0   4   23.50    4.77
 -10   0   5  215.87   13.79
 -10   0   6   67.01    8.05
 -10   0   7  388.95   20.45
 -10   0   8  417.07   22.05
 -10   0   9  180.81   14.87
 -10   0  10  183.39   15.32
 -10   0  11  184.72   15.97
 -10   1  -2  422.48   25.77
 -10   1  -1   89.67   11.57
 -10   1   0  491.51   27.42
 -10   1   1  175.57   16.02
 -10   1   2  342.95   22.41
 -10   1   3   46.00    8.14
 -10   1   4   45.61    5.84
 -10   1   5   53.43    6.56
 -10   1   6   10.31    3.49
 -10   1   7   23.70    5.21
 -10   1   8   38.77    7.11
 -10   1   9   70.80    9.44
 -10   1  10   73.33    9.65
 -10   1  11  190.72   16.31
 -10   2  -2  295.59   21.16
 -10   2  -1  182.07   16.31
 -10   2   0  264.33   19.69
 -10   2   1  159.03   15.11
 -10   2   2  702.06   33.30
 -10   2   3   66.42   10.11
 -10   2   5  220.18   13.13
 -10   2   6   98.11    9.22
 -10   2   7   92.10    9.49
 -10   2   8   91.39    9.92
 -10   2   9   26.86    5.93
 -10   2  10   -3.00    3.57
 -10   2  11   -4.24    4.30
 -10   3  -2    2.99    3.67
 -10   3  -1   98.18   11.99
 -10   3   0  257.82   19.50
 -10   3   1  318.96   21.77
 -10   3   2  351.72   22.77
 -10   3   6  184.76   12.70
 -10   3   7  141.02   11.59
 -10   3   8   96.80   10.31
 -10   3   9  309.08   19.03
 -10   3  10    6.83    3.42
 -10   3  11    3.19    3.57
 -10   4  -2   52.67    9.34
 -10   4  -1    1.71    3.26
 -10   4   0   -2.40    3.93
 -10   4   1  140.39   14.47
 -10   4   2   14.26    5.18
 -10   4   7  161.64   12.36
 -10   4   8  213.18   15.21
 -10   4   9  180.69   14.51
 -10   4  10  158.38   14.35
 -10   5  -2  136.27   14.43
 -10   5  -1   30.96    7.23
 -10   5   0   90.16   11.97
 -10   5   1    5.43    4.27
 -10   5   9  165.84   14.03
 -10   5  10   33.01    7.05
 -10   6  -2  345.94   23.23
 -10   6  -1  540.09   29.23
 -10   6   0   77.02   10.93
 -10   6   1  284.60   20.75
 -10   7  -1  365.18   23.99
 -10   7   0  266.76   20.13
  -9  -8   1   69.54   10.20
  -9  -8   2   -1.06    4.56
  -9  -8   3   -0.03    3.23
  -9  -8   4   78.00   10.56
  -9  -7  -1   99.76   11.62
  -9  -7  -1   93.29   11.30
  -9  -7   0  124.92   12.82
  -9  -7   0  136.77   13.30
  -9  -7   1   12.04    5.33
  -9  -7   1    6.66    4.28
  -9  -7   2   19.96    5.38
  -9  -7   2   17.52    5.05
  -9  -7   3   23.84    6.20
  -9  -7   3   15.38    4.82
  -9  -7   4   28.63    6.75
  -9  -7   5    2.70    3.78
  -9  -7   6    3.42    3.57
  -9  -7   7   72.97   10.12
  -9  -6  -3  215.06   17.63
  -9  -6  -2  214.33   17.26
  -9  -6  -1  426.98   22.86
  -9  -6  -1  446.11   24.72
  -9  -6   0  558.88   26.42
  -9  -6   0  553.48   27.39
  -9  -6   1  363.66   20.93
  -9  -6   1  366.59   21.61
  -9  -6   2  172.91   14.45
  -9  -6   2  179.24   14.97
  -9  -6   3  110.48   11.58
  -9  -6   3  111.14   11.65
  -9  -6   4  133.27   12.84
  -9  -6   5   40.86    7.61
  -9  -6   6   10.70    4.61
  -9  -6   7   43.03    7.94
  -9  -6   8   -1.82    3.42
  -9  -6   9    2.47    3.93
  -9  -5  -3    4.41    3.87
  -9  -5  -2  218.30   17.34
  -9  -5  -1   40.19    6.92
  -9  -5  -1   31.36    6.65
  -9  -5   0  266.02   16.80
  -9  -5   0  289.41   19.45
  -9  -5   1  127.84   11.73
  -9  -5   1  137.04   13.46
  -9  -5   2  303.38   18.24
  -9  -5   2  309.91   19.63
  -9  -5   3  271.13   17.50
  -9  -5   3  306.92   19.49
  -9  -5   4  353.47   20.46
  -9  -5   5  194.31   15.07
  -9  -5   6   91.39   10.64
  -9  -5   7    6.57    4.12
  -9  -5   8    9.02    4.24
  -9  -5   9    5.96    3.39
  -9  -5  10    7.48    4.72
  -9  -4  -3   -0.88    3.50
  -9  -4  -2    1.13    4.09
  -9  -4  -1   11.94    3.57
  -9  -4  -1   14.91    5.16
  -9  -4   0   36.35    6.13
  -9  -4   0   22.84    5.85
  -9  -4   1  111.43   10.31
  -9  -4   1  117.32   12.10
  -9  -4   2  125.48   11.15
  -9  -4   2  124.38   12.34
  -9  -4   3  244.94   15.88
  -9  -4   3  265.43   17.94
  -9  -4   4  313.88   18.34
  -9  -4   5   38.79    6.58
  -9  -4   6  226.94   15.89
  -9  -4   7   36.95    8.37
  -9  -4   8   84.80   10.27
  -9  -4   9  287.31   19.39
  -9  -4  10   13.29    5.29
  -9  -4  11    2.97    3.81
  -9  -3  -4  382.77   23.90
  -9  -3  -3  188.21   16.35
  -9  -3  -2   53.39    8.80
  -9  -3  -1   57.77    6.80
  -9  -3  -1   68.93    9.67
  -9  -3   0    4.02    2.53
  -9  -3   0    6.15    4.10
  -9  -3   1    1.93    2.60
  -9  -3   1    9.39    5.05
  -9  -3   2    1.14    2.71
  -9  -3   2   -2.35    4.07
  -9  -3   3   74.59    8.42
  -9  -3   3   78.53    9.96
  -9  -3   4  241.19   15.24
  -9  -3   4  254.64   17.81
  -9  -3   5   66.24    8.23
  -9  -3   6  188.26   14.01
  -9  -3   7   47.86    7.56
  -9  -3   8  174.45   15.32
  -9  -3   9  418.01   23.44
  -9  -3  10  187.64   15.69
  -9  -3  11   56.58    8.82
  -9  -2  -7   76.02   10.36
  -9  -2  -4  309.10   21.55
  -9  -2  -3  609.39   29.97
  -9  -2  -2   34.46    7.23
  -9  -2  -1  159.26   10.51
  -9  -2  -1  140.14   13.75
  -9  -2   0  275.45   14.29
  -9  -2   0  281.62   19.06
  -9  -2   1    8.92    3.52
  -9  -2   1    8.63    4.78
  -9  -2   2   14.64    3.65
  -9  -2   2   17.57    5.16
  -9  -2   3   38.66    5.89
  -9  -2   3   31.62    6.70
  -9  -2   4    3.03    2.71
  -9  -2   4   10.63    4.87
  -9  -2   5   41.91    6.36
  -9  -2   6   22.92    5.14
  -9  -2   7   23.30    5.20
  -9  -2   8  200.79   15.12
  -9  -2   9  277.67   18.35
  -9  -2  10   33.10    6.92
  -9  -2  11  372.47   22.73
  -9  -1  -7   46.18    7.61
  -9  -1  -6  149.30   13.36
  -9  -1  -5  219.15   18.26
  -9  -1  -4  368.78   23.23
  -9  -1  -3  139.23   14.04
  -9  -1  -2  407.08   23.85
  -9  -1  -1  454.24   24.89
  -9  -1   0  460.42   24.48
  -9  -1   0  403.82   16.58
  -9  -1   1  465.74   24.84
  -9  -1   1  492.25   19.02
  -9  -1   2  129.26   12.64
  -9  -1   2  110.82    8.85
  -9  -1   3   51.41    8.35
  -9  -1   3   51.99    6.32
  -9  -1   4  101.39    8.91
  -9  -1   5    8.85    3.52
  -9  -1   6    4.27    2.62
  -9  -1   7    1.12    2.97
  -9  -1   8   31.60    6.21
  -9  -1   9   58.00    9.50
  -9  -1  10   10.13    4.56
  -9  -1  11  302.80   20.15
  -9  -1  12  225.48   17.95
  -9   0  -7   45.46    7.41
  -9   0  -6    4.12    3.15
  -9   0  -5   89.63    9.33
  -9   0  -5  105.78   12.33
  -9   0  -4  269.96   19.88
  -9   0  -3   69.78   10.29
  -9   0  -2   92.11   11.18
  -9   0  -1  496.78   26.03
  -9   0   0   41.44    7.62
  -9   0   0   47.02    4.86
  -9   0   1  340.57   21.08
  -9   0   1  386.72   15.45
  -9   0   2  768.78   32.45
  -9   0   2  742.14   24.00
  -9   0   3  161.59   14.26
  -9   0   3  149.03   10.06
  -9   0   4  223.27   13.00
  -9   0   5  200.37   12.86
  -9   0   6    5.83    3.44
  -9   0   7   19.67    4.96
  -9   0   8   -3.74    2.56
  -9   0   9    8.48    4.10
  -9   0  10   91.17   10.64
  -9   0  11   10.66    4.85
  -9   0  12  113.78   12.75
  -9   1  -5   26.57    6.79
  -9   1  -5   19.50    4.50
  -9   1  -4    9.90    3.40
  -9   1  -4    2.32    3.66
  -9   1  -3   22.75    4.28
  -9   1  -3   22.00    6.29
  -9   1  -2   22.36    6.48
  -9   1  -1   57.45    9.14
  -9   1   0   76.43   10.22
  -9   1   1  385.12   22.36
  -9   1   1  397.01   14.70
  -9   1   2  167.84   14.59
  -9   1   2  169.19    9.68
  -9   1   3  319.02   20.32
  -9   1   3  308.83   14.31
  -9   1   4    6.75    2.42
  -9   1   5   38.49    5.56
  -9   1   6  148.99   11.31
  -9   1   7   75.32    8.47
  -9   1   8   46.75    7.06
  -9   1   9  177.76   14.08
  -9   1  10  106.87   11.27
  -9   1  11   14.44    4.90
  -9   1  12    1.94    3.21
  -9   2  -5  169.04   15.78
  -9   2  -4  657.32   31.58
  -9   2  -3   50.30    8.71
  -9   2  -2    1.66    3.71
  -9   2  -1   21.25    5.67
  -9   2   0    8.54    4.04
  -9   2   1   53.54    8.28
  -9   2   1   50.02    4.35
  -9   2   2   68.14    9.30
  -9   2   2   82.52    6.32
  -9   2   3  162.48   14.36
  -9   2   3  136.24    8.90
  -9   2   4  520.45   19.76
  -9   2   5  114.05    9.26
  -9   2   6  306.31   16.25
  -9   2   7  197.72   13.47
  -9   2   8  125.45   11.27
  -9   2   9  215.33   15.47
  -9   2  10  189.46   15.06
  -9   2  11   72.44    9.72
  -9   2  12  131.21   14.39
  -9   3  -5   53.39    9.06
  -9   3  -4  322.34   21.62
  -9   3  -3  311.55   20.75
  -9   3  -2   -2.11    4.13
  -9   3  -1  514.13   26.52
  -9   3   0   49.44    8.43
  -9   3   1  137.06   13.30
  -9   3   2   21.33    5.74
  -9   3   2   16.19    2.77
  -9   3   3    3.74    2.13
  -9   3   4   77.13    6.94
  -9   3   5  203.19   12.22
  -9   3   6   60.95    7.18
  -9   3   7  124.44   10.63
  -9   3   8  215.91   14.85
  -9   3   9  135.81   12.28
  -9   3  10  153.21   13.66
  -9   3  11  310.20   20.34
  -9   4  -5  564.38   29.27
  -9   4  -4  243.50   18.65
  -9   4  -3   82.33   10.77
  -9   4  -2   61.54    9.21
  -9   4  -1  309.00   20.21
  -9   4   0   62.24    9.20
  -9   4   1  165.73   14.70
  -9   4   2    8.56    4.35
  -9   4   3   27.62    3.96
  -9   4   4   45.03    5.40
  -9   4   5   79.04    7.49
  -9   4   6  120.83    9.91
  -9   4   7   21.32    4.69
  -9   4   8  151.77   12.47
  -9   4   9   81.43    9.64
  -9   4  10   40.37    7.40
  -9   4  11  259.13   18.65
  -9   5  -6   93.11   11.90
  -9   5  -5  116.10   13.09
  -9   5  -4  387.45   23.66
  -9   5  -3   81.42   10.77
  -9   5  -2  230.19   17.82
  -9   5  -1  756.77   33.05
  -9   5   0  282.76   19.34
  -9   5   1  377.03   22.47
  -9   5   2  194.45   15.90
  -9   5   4  129.21    8.93
  -9   5   5   28.91    4.71
  -9   5   6    1.19    2.22
  -9   5   7   81.37    8.86
  -9   5   8   -0.10    3.27
  -9   5   9  141.56   12.89
  -9   5  10   37.15    7.13
  -9   5  11   79.99   10.72
  -9   6  -5    2.06    3.44
  -9   6  -4   18.08    5.87
  -9   6  -3  115.98   12.62
  -9   6  -2   79.17   10.43
  -9   6  -1   94.97   11.58
  -9   6   0  330.85   21.19
  -9   6   1  371.62   22.61
  -9   6   2   84.26    7.23
  -9   6   3  167.98   10.79
  -9   6   5    7.15    2.68
  -9   6   6  170.60   12.14
  -9   6   7   79.50    8.98
  -9   6   8   -0.69    3.36
  -9   6   9   20.69    4.97
  -9   6  10   13.29    4.63
  -9   7  -5    0.17    3.32
  -9   7  -4   61.33    9.37
  -9   7  -3    5.70    3.46
  -9   7  -2   14.22    5.34
  -9   7  -1   10.49    4.36
  -9   7   0   10.07    5.08
  -9   7   2  197.59   11.98
  -9   7   3  189.87   12.31
  -9   7   4  501.53   21.73
  -9   7   5  180.33   13.03
  -9   7   6  107.11    9.74
  -9   7   7  157.17   12.62
  -9   7   8   59.90    8.50
  -9   7   9   26.67    6.12
  -9   7  10  397.65   23.55
  -9   8  -5   14.17    4.54
  -9   8  -4   28.79    6.71
  -9   8  -3  184.29   16.11
  -9   8  -2   73.99   10.09
  -9   8  -1    2.34    2.75
  -9   8   0  139.86   13.82
  -9   8   2   74.24    7.83
  -9   8   3   46.04    6.47
  -9   8   4   65.18    8.04
  -9   8   5  240.89   15.97
  -9   8   6  145.33   12.77
  -9   8   8  258.53   17.48
  -9   8   9  147.25   13.72
  -9   9  -5  303.66   21.21
  -9   9  -4  128.36   13.51
  -9   9  -3   15.92    5.56
  -9   9  -2   61.44    9.58
  -9   9  -1   19.90    6.45
  -9   9   2   -0.07    2.58
  -9   9   3    7.17    3.42
  -9   9   4    3.74    3.17
  -9   9   5   35.66    6.82
  -9   9   6  160.89   14.01
  -9   9   7   56.08    8.82
  -9  10  -5   83.56   11.39
  -9  10  -4  335.97   21.96
  -9  10  -3  192.97   16.61
  -9  10  -2  333.07   21.79
  -9  10   2   55.98    8.07
  -9  10   3   56.62    8.26
  -9  10   4    7.09    4.54
  -9  10   5   51.83    8.49
  -9  10   6   56.27    8.94
  -9  11  -3  135.99   14.10
  -9  11   3  370.16   21.99
  -8  -9   2   67.75   10.09
  -8  -9   3   36.30    7.51
  -8  -9   4   18.37    5.90
  -8  -8  -3   99.32   11.88
  -8  -8  -2  119.81   12.90
  -8  -8  -1  383.30   23.14
  -8  -8   0  317.17   20.78
  -8  -8   1  230.60   17.46
  -8  -8   2  142.45   13.60
  -8  -8   3  397.49   23.27
  -8  -8   4  234.04   17.76
  -8  -8   5   42.05    8.11
  -8  -8   6   24.16    6.40
  -8  -8   7    4.12    3.60
  -8  -8   8   17.98    6.27
  -8  -7  -4   44.89    7.73
  -8  -7  -4   49.00    8.45
  -8  -7  -3   17.44    5.81
  -8  -7  -3    8.21    3.82
  -8  -7  -2  169.73   14.48
  -8  -7  -2  188.80   15.23
  -8  -7  -1  246.20   17.37
  -8  -7  -1  271.08   17.71
  -8  -7   0  103.01   11.08
  -8  -7   0  123.82   11.76
  -8  -7   1   34.95    7.13
  -8  -7   1   53.42    7.88
  -8  -7   2  127.55   12.50
  -8  -7   2  164.12   13.00
  -8  -7   3  143.67   13.26
  -8  -7   3  146.47   12.12
  -8  -7   4  781.45   32.70
  -8  -7   5  147.26   13.52
  -8  -7   6  177.94   15.11
  -8  -7   7  142.20   13.70
  -8  -7   8   24.88    6.70
  -8  -7   9   19.09    5.74
  -8  -6  -5    3.29    4.10
  -8  -6  -4   -0.53    3.05
  -8  -6  -4   -7.76    4.22
  -8  -6  -3   -1.32    2.78
  -8  -6  -3    4.95    3.81
  -8  -6  -2    3.55    3.16
  -8  -6  -2    0.74    3.20
  -8  -6  -1  105.00   10.96
  -8  -6  -1  109.50   11.15
  -8  -6   0   43.97    7.08
  -8  -6   0   71.85    9.03
  -8  -6   1  195.82   14.62
  -8  -6   1  198.34   14.67
  -8  -6   2  354.92   20.04
  -8  -6   2  342.69   19.33
  -8  -6   3  681.50   29.03
  -8  -6   3  706.77   28.55
  -8  -6   4  148.01   13.04
  -8  -6   5  287.60   18.45
  -8  -6   6   76.44    9.71
  -8  -6   7  123.36   12.35
  -8  -6   8  204.17   16.35
  -8  -6   9  112.25   12.26
  -8  -6  10   26.85    6.43
  -8  -5  -5   20.69    5.91
  -8  -5  -4   61.18    8.16
  -8  -5  -4   59.79    9.19
  -8  -5  -3    7.77    3.29
  -8  -5  -3   -0.36    3.27
  -8  -5  -2   11.65    4.09
  -8  -5  -2   27.79    6.23
  -8  -5  -1    0.48    2.76
  -8  -5  -1    2.13    3.21
  -8  -5   0    7.13    2.50
  -8  -5   0    7.86    3.75
  -8  -5   1   86.86    9.29
  -8  -5   1   83.77    9.53
  -8  -5   2   71.44    8.46
  -8  -5   2   62.06    8.17
  -8  -5   3  498.81   23.41
  -8  -5   3  500.44   23.55
  -8  -5   4  572.66   25.43
  -8  -5   5  237.33   15.89
  -8  -5   6  899.14   33.96
  -8  -5   7  340.56   20.01
  -8  -5   8  358.74   21.09
  -8  -5   9  477.40   25.09
  -8  -5  10   55.33    8.93
  -8  -5  11   95.71   11.59
  -8  -4  -6  379.94   23.98
  -8  -4  -5   75.83   10.14
  -8  -4  -4  473.23   21.45
  -8  -4  -4  484.64   25.80
  -8  -4  -3  364.28   18.35
  -8  -4  -3  373.11   21.77
  -8  -4  -2   96.60    9.05
  -8  -4  -2   88.85   10.34
  -8  -4  -1  121.08   10.30
  -8  -4  -1  129.03   12.22
  -8  -4   0  100.41    9.29
  -8  -4   0  128.74   11.90
  -8  -4   1   61.55    7.35
  -8  -4   1   53.38    7.64
  -8  -4   2    1.32    2.88
  -8  -4   2    1.60    2.84
  -8  -4   3   13.60    4.31
  -8  -4   3   16.14    4.62
  -8  -4   4   40.89    6.26
  -8  -4   4   40.90    6.63
  -8  -4   5  144.55   11.82
  -8  -4   6    9.52    3.87
  -8  -4   7  221.76   15.48
  -8  -4   8  244.05   16.78
  -8  -4   9  403.85   22.36
  -8  -4  10  173.60   14.88
  -8  -4  11  179.75   15.52
  -8  -4  12  124.83   13.44
  -8  -3  -6   76.82   10.96
  -8  -3  -5  175.30   15.49
  -8  -3  -4  502.58   20.77
  -8  -3  -4  503.24   26.21
  -8  -3  -3  313.15   15.70
  -8  -3  -3  337.06   20.55
  -8  -3  -2  149.85   10.59
  -8  -3  -2  135.41   12.59
  -8  -3  -1  603.66   22.98
  -8  -3  -1  638.19   27.91
  -8  -3   0  136.61   10.22
  -8  -3   0  138.51   12.32
  -8  -3   1  364.77   17.38
  -8  -3   1  370.36   20.20
  -8  -3   2  325.37   16.63
  -8  -3   2  345.07   19.30
  -8  -3   3  248.42   14.38
  -8  -3   3  241.00   15.95
  -8  -3   4  213.99   13.49
  -8  -3   4  196.33   14.40
  -8  -3   5   -1.75    2.50
  -8  -3   6    0.21    2.47
  -8  -3   7   13.33    4.47
  -8  -3   8  164.46   13.29
  -8  -3   9   31.89    6.55
  -8  -3  10   37.62    7.14
  -8  -3  11  162.19   14.82
  -8  -3  12  176.87   15.58
  -8  -2  -8   -0.88    3.89
  -8  -2  -7   33.24    6.58
  -8  -2  -6   10.01    4.67
  -8  -2  -5  194.63   16.26
  -8  -2  -4  294.92   14.09
  -8  -2  -4  273.73   19.00
  -8  -2  -3   72.24    6.70
  -8  -2  -3   76.82    9.68
  -8  -2  -2  213.10   11.79
  -8  -2  -2  231.73   16.40
  -8  -2  -1  799.64   25.66
  -8  -2  -1  828.91   32.38
  -8  -2   0  156.01   10.31
  -8  -2   0  168.62   13.50
  -8  -2   1  275.70   14.67
  -8  -2   1  305.98   14.82
  -8  -2   1  300.24   18.07
  -8  -2   2  727.19   24.99
  -8  -2   2  687.43   24.55
  -8  -2   2  782.79   30.31
  -8  -2   3  398.59   17.36
  -8  -2   3  412.21   18.27
  -8  -2   3  393.01   20.86
  -8  -2   4  314.17   15.14
  -8  -2   4  321.15   16.30
  -8  -2   4  335.95   19.04
  -8  -2   5  382.18   17.02
  -8  -2   5  407.15   19.06
  -8  -2   6   14.47    3.88
  -8  -2   6   12.95    4.11
  -8  -2   7   48.87    7.04
  -8  -2   8   68.81    8.75
  -8  -2   9   -1.50    3.20
  -8  -2  10    8.64    5.03
  -8  -2  11   10.78    4.22
  -8  -2  12   92.88   11.23
  -8  -1  -9  109.49   12.18
  -8  -1  -8   67.50    9.42
  -8  -1  -7    7.03    4.10
  -8  -1  -6   52.70    9.03
  -8  -1  -6   40.89    6.91
  -8  -1  -5   20.59    5.85
  -8  -1  -4  117.76   12.36
  -8  -1  -3   71.84    6.01
  -8  -1  -3   58.00    8.72
  -8  -1  -2   46.07    4.96
  -8  -1  -2   41.58    7.19
  -8  -1  -1  347.69   16.50
  -8  -1  -1  339.80   14.17
  -8  -1  -1  350.39   20.00
  -8  -1   0  377.49   16.95
  -8  -1   0  396.13   15.71
  -8  -1   0  385.84   20.89
  -8  -1   1  494.20   19.03
  -8  -1   1  521.56   18.98
  -8  -1   1  490.85   23.67
  -8  -1   2  856.16   26.02
  -8  -1   2  842.08   26.37
  -8  -1   2  881.96   32.79
  -8  -1   3  876.51   26.32
  -8  -1   3  874.70   27.78
  -8  -1   3  930.85   33.93
  -8  -1   4  122.49    8.52
  -8  -1   4  122.99    9.54
  -8  -1   4  130.96   11.94
  -8  -1   5  487.91   18.30
  -8  -1   5  471.92   20.18
  -8  -1   6   82.43    7.12
  -8  -1   6   98.26    9.12
  -8  -1   7  206.14   11.84
  -8  -1   7  202.67   13.63
  -8  -1   8  178.86   13.38
  -8  -1   9   24.15    5.55
  -8  -1  10    7.35    3.77
  -8  -1  11   21.80    5.83
  -8  -1  12   17.60    5.55
  -8   0  -9  141.53   13.28
  -8   0  -8  146.20   13.15
  -8   0  -7  209.08   15.13
  -8   0  -6   98.23   10.04
  -8   0  -6   96.80   11.93
  -8   0  -5   63.21    9.69
  -8   0  -5   57.12    7.30
  -8   0  -4   23.77    6.30
  -8   0  -3  229.88    9.63
  -8   0  -3  220.04   16.26
  -8   0  -2  146.54    7.72
  -8   0  -2  143.99   12.82
  -8   0  -1    6.29    2.64
  -8   0  -1    8.32    2.16
  -8   0  -1   15.81    4.87
  -8   0   0  178.05   10.18
  -8   0   0  159.79    8.80
  -8   0   0  162.79   13.18
  -8   0   1  430.76   16.22
  -8   0   1  454.78   16.44
  -8   0   1  440.31   22.20
  -8   0   2  165.12    9.09
  -8   0   2  166.43    9.77
  -8   0   2  152.07   12.78
  -8   0   3  958.51   26.26
  -8   0   3  984.86   28.79
  -8   0   3 1026.49   35.93
  -8   0   4  921.78   25.44
  -8   0   4  945.24   28.86
  -8   0   5  515.99   17.57
  -8   0   5  502.52   20.48
  -8   0   6 1119.50   30.10
  -8   0   6 1151.79   34.89
  -8   0   7 1003.25   28.73
  -8   0   7 1063.19   34.17
  -8   0   8  255.63   13.09
  -8   0   8  269.49   16.18
  -8   0   9    5.76    3.84
  -8   0  10  225.31   15.97
  -8   0  11   -1.17    2.82
  -8   0  12  184.10   15.58
  -8   1 -10  111.70   12.07
  -8   1  -9  300.73   19.12
  -8   1  -8  189.44   14.41
  -8   1  -7  234.32   15.42
  -8   1  -7  244.12   18.97
  -8   1  -6  382.49   19.02
  -8   1  -6  381.56   23.20
  -8   1  -5  678.31   25.18
  -8   1  -5  655.77   30.55
  -8   1  -4  131.67    9.78
  -8   1  -4  126.54   12.60
  -8   1  -3  462.40   23.98
  -8   1  -2   64.35    3.97
  -8   1  -2   60.48    8.50
  -8   1  -1    5.99    2.27
  -8   1  -1    3.44    1.58
  -8   1  -1    0.40    3.00
  -8   1   0  290.06   12.17
  -8   1   0  304.98   11.42
  -8   1   0  297.79   18.16
  -8   1   1    4.39    1.72
  -8   1   1    7.95    2.21
  -8   1   1    5.61    3.82
  -8   1   2   72.26    5.25
  -8   1   2   77.64    6.24
  -8   1   2   77.80    9.13
  -8   1   3   21.33    2.94
  -8   1   3   18.87    3.58
  -8   1   3   20.88    5.51
  -8   1   4  208.99    9.13
  -8   1   4  219.34   11.94
  -8   1   5   87.60    5.91
  -8   1   5   92.16    8.04
  -8   1   6   67.24    5.52
  -8   1   6   59.83    6.97
  -8   1   7  383.43   14.71
  -8   1   7  365.09   18.23
  -8   1   8  599.13   25.03
  -8   1   9   28.81    5.74
  -8   1  10  637.13   28.07
  -8   1  11   90.23   10.48
  -8   1  12   88.03   10.82
  -8   2 -10   11.00    4.78
  -8   2  -9   81.54    9.79
  -8   2  -8   66.60    8.48
  -8   2  -7  120.56   10.42
  -8   2  -7  119.56   13.04
  -8   2  -6  134.27   10.43
  -8   2  -6  174.18   15.33
  -8   2  -5  746.81   25.60
  -8   2  -5  766.14   32.89
  -8   2  -4  372.81   15.96
  -8   2  -4  357.82   21.31
  -8   2  -3  136.42    8.62
  -8   2  -3  123.03   12.19
  -8   2  -2  752.15   21.73
  -8   2  -2  695.47   29.77
  -8   2  -1   53.97    4.60
  -8   2  -1   58.39    4.94
  -8   2  -1   66.17    3.27
  -8   2  -1   70.32    9.01
  -8   2   0  794.43   20.18
  -8   2   0  756.44   18.94
  -8   2   0  775.63   30.89
  -8   2   1  589.56   15.41
  -8   2   1  576.07   16.95
  -8   2   1  561.75   25.80
  -8   2   2  132.70    5.67
  -8   2   2  128.64    7.69
  -8   2   2  147.56   12.52
  -8   2   3   71.81    3.99
  -8   2   3   73.70    6.25
  -8   2   3   71.70    9.11
  -8   2   4  188.79    7.15
  -8   2   4  178.91   10.68
  -8   2   5  178.67    7.48
  -8   2   5  164.49   10.84
  -8   2   6   17.89    3.86
  -8   2   6   14.24    2.37
  -8   2   7    2.55    2.41
  -8   2   8   42.38    6.45
  -8   2   9   40.21    6.48
  -8   2  10    3.49    3.20
  -8   2  11  152.08   13.80
  -8   2  12  268.33   19.11
  -8   3  -9   13.08    4.40
  -8   3  -8  200.77   13.96
  -8   3  -8  215.25   17.92
  -8   3  -7  309.73   16.55
  -8   3  -7  323.63   21.52
  -8   3  -6  315.33   15.64
  -8   3  -6  317.56   20.87
  -8   3  -5  495.05   19.04
  -8   3  -5  496.48   25.85
  -8   3  -4  317.55   13.66
  -8   3  -4  295.47   19.24
  -8   3  -3  132.50    7.78
  -8   3  -3  131.45   12.62
  -8   3  -2  478.70   14.83
  -8   3  -2  500.30   24.56
  -8   3  -1  820.05   19.62
  -8   3  -1  798.69   19.28
  -8   3  -1  848.08   32.63
  -8   3   0  866.37   17.99
  -8   3   0  878.00   18.12
  -8   3   0  877.97   18.74
  -8   3   0  865.04   18.80
  -8   3   0  884.69   33.29
  -8   3   1  221.58    8.83
  -8   3   1  233.59    9.08
  -8   3   1  257.38   16.66
  -8   3   2  487.88   19.37
  -8   3   2  534.08   24.80
  -8   3   2  492.35   15.93
  -8   3   2  486.60   15.97
  -8   3   3  188.46    9.98
  -8   3   3  196.97   10.22
  -8   3   4  274.35   13.21
  -8   3   4  271.10   13.09
  -8   3   5  163.14   10.74
  -8   3   5  163.53   10.70
  -8   3   6   12.81    3.43
  -8   3   7   -1.35    2.09
  -8   3   8   -1.36    2.58
  -8   3   9  102.56   10.49
  -8   3  10   51.82    8.15
  -8   3  11   34.39    6.66
  -8   3  12  252.80   18.49
  -8   4  -8   57.11    9.20
  -8   4  -7    6.20    3.51
  -8   4  -7    4.26    4.65
  -8   4  -6   31.50    4.81
  -8   4  -6   29.64    6.30
  -8   4  -5   29.84    4.17
  -8   4  -5   32.11    6.74
  -8   4  -4  419.35   14.97
  -8   4  -4  401.05   22.55
  -8   4  -3  233.57    9.44
  -8   4  -3  213.93   15.82
  -8   4  -2  437.36   11.87
  -8   4  -2  421.98   22.54
  -8   4  -1  267.38   17.43
  -8   4   0 1172.58   39.81
  -8   4   1  101.76    5.38
  -8   4   1   96.37    5.27
  -8   4   1   96.51   10.46
  -8   4   2  403.21   17.27
  -8   4   2  433.47   14.48
  -8   4   2  414.49   14.27
  -8   4   2  460.60   23.11
  -8   4   3  744.10   23.64
  -8   4   3  758.93   22.62
  -8   4   3  746.67   22.39
  -8   4   4  276.67   13.30
  -8   4   4  272.22   13.11
  -8   4   5  401.41   17.53
  -8   4   5  436.32   18.25
  -8   4   6  133.58   10.31
  -8   4   7   39.56    6.05
  -8   4   8    2.85    2.71
  -8   4   9   16.30    4.66
  -8   4  10   14.06    4.64
  -8   4  11    1.23    2.92
  -8   4  12   28.68    7.06
  -8   5  -8   68.36    9.97
  -8   5  -7  172.95   15.51
  -8   5  -6  110.55   12.13
  -8   5  -5    0.07    2.79
  -8   5  -4   12.76    4.81
  -8   5  -3  144.34   13.15
  -8   5  -2   26.02    6.08
  -8   5  -2   15.65    2.27
  -8   5  -1  176.21   14.26
  -8   5  -1  191.94    8.45
  -8   5   0  115.05   11.43
  -8   5   0  104.99    6.56
  -8   5   1  699.16   29.52
  -8   5   1  696.97   17.63
  -8   5   1  709.13   20.96
  -8   5   2   95.19    8.02
  -8   5   2  115.55   11.43
  -8   5   2  114.79    6.88
  -8   5   2  106.98    6.69
  -8   5   2  107.43    7.57
  -8   5   3  888.92   26.47
  -8   5   3  913.65   25.67
  -8   5   3  880.35   25.38
  -8   5   3  912.33   26.97
  -8   5   4  524.01   19.61
  -8   5   4  585.47   20.45
  -8   5   4  537.98   20.49
  -8   5   5  246.07   13.48
  -8   5   6  697.41   25.78
  -8   5   7  246.11   15.13
  -8   5   8   18.36    4.83
  -8   5   9   22.60    5.60
  -8   5  10   38.40    7.51
  -8   5  11   -3.01    3.79
  -8   6  -8  238.10   18.57
  -8   6  -7  212.82   17.10
  -8   6  -6  552.03   27.78
  -8   6  -5  147.25   13.71
  -8   6  -4    5.65    2.88
  -8   6  -3  152.65   13.43
  -8   6  -2   58.01    8.23
  -8   6  -2   64.37    5.45
  -8   6  -1   21.69    5.59
  -8   6  -1   24.37    3.73
  -8   6   0   91.90   10.19
  -8   6   0   81.82    6.67
  -8   6   1   75.13    9.45
  -8   6   1   69.85    4.59
  -8   6   1   59.47    5.99
  -8   6   2  268.45   13.88
  -8   6   2  284.34   11.63
  -8   6   2  276.16   13.60
  -8   6   3   13.12    3.51
  -8   6   3    5.31    2.32
  -8   6   4  293.59   14.13
  -8   6   4  285.98   15.14
  -8   6   5  219.84   12.89
  -8   6   5  194.06   12.92
  -8   6   6  123.21   10.25
  -8   6   7  366.62   19.03
  -8   6   8  115.46   11.02
  -8   6   9  299.55   18.78
  -8   6  10  111.53   11.86
  -8   6  11  129.47   13.18
  -8   7  -8  336.06   22.12
  -8   7  -7  357.40   22.38
  -8   7  -6  125.04   12.86
  -8   7  -5  414.24   23.28
  -8   7  -4  220.80   16.40
  -8   7  -3  194.97   15.36
  -8   7  -3  219.78   11.32
  -8   7  -2  227.10   16.40
  -8   7  -2  229.94   11.76
  -8   7  -1  301.73   18.79
  -8   7  -1  312.45   14.30
  -8   7   0  114.81   11.62
  -8   7   0  124.68    8.96
  -8   7   1  263.07   13.75
  -8   7   2   18.18    4.08
  -8   7   2   12.14    2.57
  -8   7   3   14.10    3.94
  -8   7   3    7.15    2.47
  -8   7   4   10.44    2.87
  -8   7   4    9.87    3.29
  -8   7   5  121.82    9.82
  -8   7   5  123.06   10.72
  -8   7   6  123.70   10.54
  -8   7   6  126.34   11.44
  -8   7   7    2.93    3.49
  -8   7   7    0.22    2.86
  -8   7   8   78.91    9.43
  -8   7   9   92.42   10.98
  -8   7  10   16.49    5.33
  -8   8  -8  170.30   15.50
  -8   8  -7  458.93   25.76
  -8   8  -6  353.37   21.76
  -8   8  -5  121.20   12.44
  -8   8  -4  598.10   28.16
  -8   8  -3  241.49   17.12
  -8   8  -3  242.23   13.13
  -8   8  -2  184.61   14.76
  -8   8  -2  184.79   11.49
  -8   8  -1  684.42   29.70
  -8   8  -1  671.33   24.21
  -8   8   0  245.98   17.18
  -8   8   0  245.64   13.97
  -8   8   1   -0.33    2.21
  -8   8   2  340.54   17.59
  -8   8   3  156.83   10.07
  -8   8   3  161.21   12.11
  -8   8   4    4.27    2.77
  -8   8   4    8.09    3.56
  -8   8   5   47.55    6.69
  -8   8   5   38.94    6.74
  -8   8   6   77.70    8.81
  -8   8   6   86.75   10.03
  -8   8   7   85.88    9.65
  -8   8   7   93.38   10.95
  -8   8   8   60.86    8.80
  -8   8   8   46.51    7.79
  -8   8   9  207.92   16.19
  -8   9  -8   15.19    5.55
  -8   9  -7   11.35    4.56
  -8   9  -6  267.57   18.89
  -8   9  -5  171.04   14.92
  -8   9  -4  182.49   15.06
  -8   9  -3  515.43   25.77
  -8   9  -3  515.70   21.62
  -8   9  -2  269.62   18.09
  -8   9  -2  249.10   14.52
  -8   9  -1  280.75   18.38
  -8   9  -1  269.61   15.35
  -8   9   0  353.02   18.24
  -8   9   1  101.16    9.72
  -8   9   2  175.54   13.58
  -8   9   3  570.77   25.30
  -8   9   4  188.76   14.47
  -8   9   4  213.61   13.17
  -8   9   5   19.16    5.01
  -8   9   5    4.87    3.03
  -8   9   6   21.69    5.75
  -8   9   6   17.33    4.88
  -8   9   7    1.88    3.02
  -8   9   7   -3.63    2.90
  -8   9   8   -1.12    3.34
  -8   9   8   -0.65    3.38
  -8   9   9   12.88    4.98
  -8  10  -8   22.68    6.77
  -8  10  -7  106.22   12.15
  -8  10  -6    0.02    3.08
  -8  10  -5    2.91    4.05
  -8  10  -4   13.89    5.15
  -8  10  -3    3.23    3.76
  -8  10  -3    5.18    3.17
  -8  10  -2  216.17   16.21
  -8  10  -2  210.66   14.29
  -8  10  -1   48.39    7.09
  -8  10   0  252.64   16.11
  -8  10   1  437.93   22.04
  -8  10   2  172.13   13.74
  -8  10   3  281.67   18.21
  -8  10   4  235.71   16.94
  -8  10   5   76.95    9.93
  -8  10   6   12.58    4.31
  -8  10   6   20.08    5.51
  -8  10   7  252.00   17.46
  -8  10   8    2.76    4.34
  -8  11  -6  151.98   14.23
  -8  11  -5    1.13    3.62
  -8  11  -4   63.98    9.46
  -8  11  -3    5.93    3.68
  -8  11  -3   -1.20    3.10
  -8  11  -2   31.26    6.43
  -8  11  -1   18.52    5.04
  -8  11   0   19.24    5.67
  -8  11   1   68.71    9.09
  -8  11   2  322.21   19.99
  -8  11   3  146.03   13.68
  -8  11   4  262.73   18.72
  -8  11   5  184.19   15.95
  -8  12  -2   75.66    9.89
  -8  12  -1   40.48    7.96
  -8  12   0   -1.01    3.18
  -8  12   1   54.99    8.32
  -8  12   2    3.24    3.06
  -7 -10   3  103.86   12.33
  -7 -10   4   41.98    8.39
  -7  -9  -2  232.17   18.07
  -7  -9  -1  240.01   18.32
  -7  -9   0  152.91   14.40
  -7  -9   1   74.47   10.04
  -7  -9   2  292.06   19.96
  -7  -9   3  374.64   22.78
  -7  -9   4  401.60   23.86
  -7  -9   5  212.66   17.09
  -7  -9   6   88.89   10.97
  -7  -9   7   88.09   11.19
  -7  -9   8    7.71    4.36
  -7  -8  -5   27.14    7.05
  -7  -8  -4  -12.63    4.80
  -7  -8  -3   13.73    5.12
  -7  -8  -3    5.66    3.16
  -7  -8  -2   11.97    4.67
  -7  -8  -2    3.47    2.62
  -7  -8  -1  108.22   11.60
  -7  -8  -1  120.84   10.98
  -7  -8   0   10.08    4.47
  -7  -8   0    7.88    3.28
  -7  -8   1   18.45    7.77
  -7  -8   1   19.98    4.45
  -7  -8   2  151.67   13.70
  -7  -8   2  179.13   12.34
  -7  -8   3  448.59   24.37
  -7  -8   3  507.26   21.39
  -7  -8   4  118.81   12.25
  -7  -8   5  610.64   29.04
  -7  -8   6  143.48   13.63
  -7  -8   7  285.73   19.39
  -7  -8   8  238.79   18.00
  -7  -8   9  175.38   15.61
  -7  -8  10   29.05    7.52
  -7  -7  -6  163.87   14.47
  -7  -7  -5  154.79   13.94
  -7  -7  -5  171.35   14.89
  -7  -7  -4  104.08   11.25
  -7  -7  -4  113.17   11.92
  -7  -7  -3    4.42    3.68
  -7  -7  -3    0.24    2.99
  -7  -7  -2    5.44    3.16
  -7  -7  -2    8.38    3.69
  -7  -7  -1   14.10    4.56
  -7  -7  -1   12.91    4.29
  -7  -7   0   62.56    8.48
  -7  -7   0   44.37    6.63
  -7  -7   1    1.72    3.41
  -7  -7   1   -0.11    2.52
  -7  -7   2  110.71   11.24
  -7  -7   2   99.29    9.30
  -7  -7   3  231.85   16.45
  -7  -7   3  269.95   15.34
  -7  -7   4   14.38    4.54
  -7  -7   5  307.96   19.29
  -7  -7   6  172.61   14.19
  -7  -7   7  385.27   22.02
  -7  -7   8  260.52   18.10
  -7  -7   9   90.26   10.93
  -7  -7  10  167.18   15.04
  -7  -7  11   43.29    7.88
  -7  -6  -7  487.34   25.01
  -7  -6  -6  153.69   13.55
  -7  -6  -5  252.32   17.01
  -7  -6  -5  253.92   18.10
  -7  -6  -4  210.07   15.18
  -7  -6  -4  214.30   16.08
  -7  -6  -3  407.55   21.45
  -7  -6  -3  456.28   23.09
  -7  -6  -2  188.04   14.04
  -7  -6  -2  177.49   13.59
  -7  -6  -1  415.60   21.16
  -7  -6  -1  433.35   21.30
  -7  -6   0   43.80    6.68
  -7  -6   0   48.46    6.86
  -7  -6   1    8.12    3.31
  -7  -6   1    1.63    2.31
  -7  -6   2    7.20    4.09
  -7  -6   2    3.29    2.14
  -7  -6   3  132.65   11.61
  -7  -6   3  132.88   10.76
  -7  -6   4   20.87    5.14
  -7  -6   5   45.21    7.23
  -7  -6   6  133.10   12.03
  -7  -6   7  259.06   17.27
  -7  -6   8  327.08   19.92
  -7  -6   9  147.10   13.60
  -7  -6  10  303.19   19.90
  -7  -6  11  159.65   14.62
  -7  -6  12   65.51    9.67
  -7  -5  -7  196.73   14.86
  -7  -5  -6   53.07    7.59
  -7  -5  -5  534.09   24.14
  -7  -5  -4  229.05   14.97
  -7  -5  -4  268.88   17.72
  -7  -5  -3  498.86   22.55
  -7  -5  -3  523.92   24.77
  -7  -5  -2  227.10   14.60
  -7  -5  -2  229.07   15.48
  -7  -5  -1    2.47    2.46
  -7  -5  -1    0.54    2.44
  -7  -5   0  187.62   12.98
  -7  -5   0  186.14   13.27
  -7  -5   1   99.48    9.42
  -7  -5   1  112.21   10.03
  -7  -5   2  160.91   12.01
  -7  -5   2  127.79   10.62
  -7  -5   3  263.57   15.74
  -7  -5   3  271.23   15.52
  -7  -5   4    2.78    2.93
  -7  -5   5   20.05    4.54
  -7  -5   6   21.53    4.83
  -7  -5   7  117.33   11.15
  -7  -5   8  389.89   21.24
  -7  -5   9  167.70   13.89
  -7  -5  10  247.53   17.50
  -7  -5  11  127.68   13.15
  -7  -5  12  107.13   12.10
  -7  -4  -7   45.75    6.83
  -7  -4  -6   30.24    5.62
  -7  -4  -5  174.41   12.45
  -7  -4  -4  203.89   13.15
  -7  -4  -4  187.25   14.63
  -7  -4  -3   78.85    8.10
  -7  -4  -3   82.16    9.46
  -7  -4  -2  461.52   20.25
  -7  -4  -2  497.03   19.39
  -7  -4  -2  463.79   22.47
  -7  -4  -1  263.54   14.66
  -7  -4  -1  263.37   13.36
  -7  -4  -1  261.49   16.09
  -7  -4   0   73.97    7.67
  -7  -4   0   55.59    7.21
  -7  -4   1  344.32   17.11
  -7  -4   1  345.96   18.02
  -7  -4   2  406.06   18.84
  -7  -4   2  405.69   19.60
  -7  -4   3   99.66    9.03
  -7  -4   3   93.79    9.07
  -7  -4   4  338.74   17.39
  -7  -4   4  359.92   18.13
  -7  -4   5    1.44    2.41
  -7  -4   6   49.03    6.82
  -7  -4   7   15.16    4.03
  -7  -4   8    1.69    2.56
  -7  -4   9  114.96   11.38
  -7  -4  10   28.08    6.31
  -7  -4  11  142.47   13.46
  -7  -4  12  196.63   16.26
  -7  -4  13  106.60   12.39
  -7  -3  -7  102.11    9.33
  -7  -3  -6    2.36    2.05
  -7  -3  -5   60.36    6.90
  -7  -3  -4   23.74    4.42
  -7  -3  -4   13.61    4.74
  -7  -3  -3    5.41    2.68
  -7  -3  -3    5.85    3.13
  -7  -3  -3    2.19    3.12
  -7  -3  -2  154.88   10.59
  -7  -3  -2  164.00   12.80
  -7  -3  -2  157.98   10.75
  -7  -3  -1  143.93    9.94
  -7  -3  -1  148.77   10.26
  -7  -3  -1  145.85   11.79
  -7  -3   0  277.94   14.26
  -7  -3   0  306.06   17.03
  -7  -3   1  102.66    8.90
  -7  -3   1  104.51    8.61
  -7  -3   1   94.85    9.13
  -7  -3   2  664.44   24.04
  -7  -3   2  654.39   23.73
  -7  -3   2  698.53   26.35
  -7  -3   3  396.60   17.48
  -7  -3   3  392.45   17.83
  -7  -3   3  428.21   19.94
  -7  -3   4  442.89   18.65
  -7  -3   4  431.28   19.12
  -7  -3   4  454.19   20.81
  -7  -3   5  443.25   18.81
  -7  -3   5  455.50   20.06
  -7  -3   6  255.36   15.02
  -7  -3   7  457.68   21.30
  -7  -3   8  100.63    9.88
  -7  -3   9   95.81   10.04
  -7  -3  10    2.94    3.86
  -7  -3  11    0.94    2.95
  -7  -3  12   13.87    4.53
  -7  -3  13   72.03   10.12
  -7  -2  -9  112.69   12.43
  -7  -2  -8  157.93   14.25
  -7  -2  -6  188.92   11.38
  -7  -2  -5  152.79    9.89
  -7  -2  -4   59.86    6.04
  -7  -2  -4   59.73    8.30
  -7  -2  -3    4.91    2.35
  -7  -2  -3    3.42    3.54
  -7  -2  -2    3.77    2.30
  -7  -2  -2    6.58    3.66
  -7  -2  -2    4.25    2.91
  -7  -2  -1    9.97    2.98
  -7  -2  -1    4.44    2.86
  -7  -2  -1   11.12    3.37
  -7  -2   0   91.66    8.06
  -7  -2   0   88.09    7.24
  -7  -2   0   83.67    8.94
  -7  -2   0  101.10    8.58
  -7  -2   1  329.78   15.32
  -7  -2   1  321.13   14.62
  -7  -2   1  323.81   17.41
  -7  -2   2   92.28    7.68
  -7  -2   2   98.14    7.93
  -7  -2   2   84.23    8.85
  -7  -2   3  220.78   11.90
  -7  -2   3  230.13   12.66
  -7  -2   3  254.90   15.14
  -7  -2   4  513.97   19.27
  -7  -2   4  550.25   21.08
  -7  -2   4  537.09   23.02
  -7  -2   5   31.59    4.60
  -7  -2   5   29.01    4.84
  -7  -2   6  971.41   28.79
  -7  -2   6  878.88   30.10
  -7  -2   7  696.40   24.12
  -7  -2   7  690.15   26.48
  -7  -2   8  119.87   10.75
  -7  -2   9   34.38    5.99
  -7  -2  10  251.35   16.73
  -7  -2  11   15.44    4.78
  -7  -2  12   63.62    9.16
  -7  -2  13    0.06    3.35
  -7  -1 -10  355.05   22.34
  -7  -1  -9  357.51   21.62
  -7  -1  -8  155.61   13.64
  -7  -1  -7  270.61   17.24
  -7  -1  -6 1081.27   29.51
  -7  -1  -5  276.60   12.40
  -7  -1  -4  145.39    8.58
  -7  -1  -4  132.35   12.05
  -7  -1  -3  186.71    9.58
  -7  -1  -3  164.71   13.07
  -7  -1  -2  135.03    8.12
  -7  -1  -2  140.48   11.80
  -7  -1  -1   16.88    3.10
  -7  -1  -1   20.85    5.23
  -7  -1  -1   20.52    4.35
  -7  -1   0   30.99    4.32
  -7  -1   0   23.62    3.68
  -7  -1   0   33.84    6.01
  -7  -1   0   32.57    5.27
  -7  -1   1   48.58    5.32
  -7  -1   1   43.98    4.85
  -7  -1   1   43.92    6.38
  -7  -1   2  154.39    9.18
  -7  -1   2  164.43    9.70
  -7  -1   2  165.51   12.05
  -7  -1   3   62.49    5.73
  -7  -1   3   57.16    5.98
  -7  -1   3   74.89    8.24
  -7  -1   4  243.45   11.79
  -7  -1   4  272.23   13.49
  -7  -1   5   91.60    7.08
  -7  -1   5   75.24    7.39
  -7  -1   6  850.85   25.56
  -7  -1   6  857.95   28.58
  -7  -1   7  916.95   27.61
  -7  -1   7  930.32   30.98
  -7  -1   8  170.40   10.83
  -7  -1   8  172.93   12.64
  -7  -1   9  172.38   13.10
  -7  -1  10  153.42   12.80
  -7  -1  11  314.94   19.33
  -7  -1  12   96.31   11.04
  -7  -1  13  137.06   13.71
  -7   0 -10    5.61    3.55
  -7   0  -9   66.97    9.10
  -7   0  -8  180.44   14.09
  -7   0  -7   60.39    8.01
  -7   0  -6 1055.98   34.63
  -7   0  -5  798.64   21.39
  -7   0  -4   84.26    5.53
  -7   0  -4   95.65   10.20
  -7   0  -3  568.74   16.62
  -7   0  -3  579.21   25.33
  -7   0  -2   89.64    5.69
  -7   0  -2   98.39    9.99
  -7   0  -1   17.42    2.82
  -7   0  -1   14.03    4.54
  -7   0   0  184.25    9.87
  -7   0   0  178.81    8.93
  -7   0   0  191.81   12.52
  -7   0   0  202.88   13.64
  -7   0   1  144.62    8.27
  -7   0   1  151.13    8.37
  -7   0   1  156.38   11.89
  -7   0   2   12.91    2.68
  -7   0   2   16.28    3.16
  -7   0   2   11.77    3.83
  -7   0   3    4.38    1.91
  -7   0   3    6.76    2.52
  -7   0   3    7.95    3.71
  -7   0   4   -0.23    1.46
  -7   0   4   -1.09    1.85
  -7   0   5  242.44   11.05
  -7   0   5  266.08   13.58
  -7   0   6  366.10   14.34
  -7   0   6  349.14   16.69
  -7   0   7  363.86   15.06
  -7   0   7  372.90   17.91
  -7   0   8  236.58   12.37
  -7   0   8  234.83   14.57
  -7   0   9  736.35   24.90
  -7   0   9  729.81   28.52
  -7   0  10   42.84    7.04
  -7   0  11  396.34   21.87
  -7   0  12  188.28   15.40
  -7   0  13   86.27   10.75
  -7   1 -11   10.64    4.87
  -7   1 -10   -2.92    4.04
  -7   1  -9   28.17    5.65
  -7   1  -8   26.83    5.49
  -7   1  -7   89.92    9.16
  -7   1  -6   -3.17    2.42
  -7   1  -5  147.96   10.53
  -7   1  -5  166.07   13.68
  -7   1  -4  441.33   18.00
  -7   1  -4  435.25   22.14
  -7   1  -3  108.61    4.91
  -7   1  -3  109.92   10.57
  -7   1  -2  598.63   15.16
  -7   1  -2  616.87   25.52
  -7   1  -1  559.40   15.26
  -7   1  -1  587.68   24.50
  -7   1   0  106.89    8.80
  -7   1   0  104.09    6.48
  -7   1   0   98.71    5.84
  -7   1   0  111.33   10.11
  -7   1   1  166.80    7.85
  -7   1   1  160.31   10.47
  -7   1   1  166.94    8.20
  -7   1   1  148.71   11.66
  -7   1   2   75.55    4.97
  -7   1   2   76.78    5.90
  -7   1   2   78.64    8.57
  -7   1   3    8.26    1.89
  -7   1   3    8.82    2.42
  -7   1   3    8.92    3.98
  -7   1   4   24.95    2.95
  -7   1   4   24.11    3.92
  -7   1   5   16.18    2.66
  -7   1   5    7.92    2.72
  -7   1   6    9.40    2.37
  -7   1   6   13.01    3.51
  -7   1   7   13.88    3.61
  -7   1   7    8.17    2.28
  -7   1   8   73.37    6.51
  -7   1   8   84.49    8.64
  -7   1   9  438.56   17.79
  -7   1   9  437.82   21.21
  -7   1  10  258.52   16.69
  -7   1  11  230.29   16.43
  -7   1  12  399.58   22.94
  -7   1  13  113.86   12.68
  -7   2 -11   98.50   11.23
  -7   2 -10  222.06   16.29
  -7   2  -9   17.10    4.95
  -7   2  -8  240.68   15.28
  -7   2  -7   -0.54    2.63
  -7   2  -6   10.97    3.18
  -7   2  -5   55.17    6.14
  -7   2  -5   60.73    8.39
  -7   2  -4  247.02   12.33
  -7   2  -4  271.04   17.15
  -7   2  -3  183.95    9.69
  -7   2  -3  181.08   13.47
  -7   2  -2   53.99    4.73
  -7   2  -2   43.14    6.93
  -7   2  -1 1133.05   22.89
  -7   2  -1 1131.13   36.59
  -7   2   0  605.58   22.16
  -7   2   0  598.82   15.94
  -7   2   0  585.41   15.32
  -7   2   0  585.21   24.42
  -7   2   1   68.52    6.72
  -7   2   1   67.23    3.92
  -7   2   1   60.55    4.55
  -7   2   1   66.27    7.86
  -7   2   2 1213.14   33.05
  -7   2   2 1282.26   25.96
  -7   2   2 1269.45   30.42
  -7   2   2 1300.80   39.31
  -7   2   3  813.56   18.20
  -7   2   3  817.28   23.40
  -7   2   3  809.37   29.74
  -7   2   4  741.14   17.63
  -7   2   4  731.26   23.06
  -7   2   5  366.72   11.68
  -7   2   5  369.08   16.00
  -7   2   6  474.49   14.90
  -7   2   6  464.78   19.33
  -7   2   7   11.66    2.44
  -7   2   7   15.37    3.96
  -7   2   8   17.98    3.23
  -7   2   8   16.64    4.74
  -7   2   9  184.35   13.63
  -7   2  10   49.27    7.51
  -7   2  11    9.51    4.66
  -7   2  12   10.13    4.82
  -7   2  13   90.64   11.17
  -7   3 -12  133.63   13.48
  -7   3 -11  294.88   19.26
  -7   3 -10  328.16   19.42
  -7   3  -9  243.39   15.82
  -7   3  -8   59.88    7.48
  -7   3  -7  260.66   14.63
  -7   3  -6  125.43   12.07
  -7   3  -6  112.45    8.87
  -7   3  -5    3.69    2.89
  -7   3  -5    7.36    2.40
  -7   3  -5   12.02    1.37
  -7   3  -4   58.20    5.43
  -7   3  -4   56.21    7.64
  -7   3  -3  123.41    7.22
  -7   3  -3  114.17   10.66
  -7   3  -2   32.99    3.23
  -7   3  -2   25.02    5.32
  -7   3  -1  107.88    5.24
  -7   3  -1  107.99    5.10
  -7   3  -1  103.62   10.14
  -7   3   0  299.04   14.73
  -7   3   0  300.80    7.65
  -7   3   0  298.25    7.67
  -7   3   0  300.44    8.76
  -7   3   0  293.74    8.67
  -7   3   0  300.73   16.92
  -7   3   1  372.89   15.86
  -7   3   1  375.57   11.89
  -7   3   1  368.78   11.85
  -7   3   1  348.59   18.42
  -7   3   2    6.34    2.49
  -7   3   2    4.72    1.79
  -7   3   2    5.87    1.72
  -7   3   2    1.88    3.05
  -7   3   3  830.74   23.84
  -7   3   3  853.26   23.89
  -7   3   3  837.37   23.70
  -7   3   4  612.02   20.27
  -7   3   4  573.66   19.91
  -7   3   5  482.52   18.69
  -7   3   5  472.05   18.57
  -7   3   6  655.53   23.70
  -7   3   7  928.88   30.79
  -7   3   8   30.02    5.46
  -7   3   9  378.13   19.87
  -7   3  10   68.63    8.86
  -7   3  11   -1.73    3.37
  -7   3  12   50.55    8.55
  -7   3  13    7.59    4.44
  -7   4 -12  152.88   14.61
  -7   4 -11   86.92   10.34
  -7   4 -10  169.95   13.51
  -7   4  -9   88.76    9.22
  -7   4  -8  174.72   12.19
  -7   4  -7  276.17   14.69
  -7   4  -6 1194.88   41.74
  -7   4  -6 1254.05   34.32
  -7   4  -6 1261.15   28.72
  -7   4  -5    8.71    3.91
  -7   4  -5    7.27    2.35
  -7   4  -5    7.23    1.65
  -7   4  -4   49.40    7.27
  -7   4  -4   52.92    4.76
  -7   4  -4   53.34    3.68
  -7   4  -3  139.55   11.90
  -7   4  -3  141.46    7.08
  -7   4  -3  152.21    6.30
  -7   4  -2  262.93   16.14
  -7   4  -2  267.41    8.64
  -7   4  -2  275.36    9.12
  -7   4  -1    8.29    2.81
  -7   4  -1   13.52    2.11
  -7   4   0  136.29    9.65
  -7   4   0  156.17   12.04
  -7   4   0  142.28    5.10
  -7   4   0  143.20    5.11
  -7   4   0  136.63    6.88
  -7   4   1  227.14   12.01
  -7   4   1  218.19   14.31
  -7   4   1  241.95    8.87
  -7   4   1  225.53    8.67
  -7   4   1  225.85    9.81
  -7   4   2  286.83   13.07
  -7   4   2  321.73   17.60
  -7   4   2  308.55   11.69
  -7   4   2  291.92   11.45
  -7   4   2  300.16   12.29
  -7   4   3   70.35    5.83
  -7   4   3   75.92    6.07
  -7   4   3   74.47    6.05
  -7   4   3   67.84    6.03
  -7   4   4  545.07   16.80
  -7   4   4  552.97   19.32
  -7   4   4  517.94   18.93
  -7   4   4  543.15   19.41
  -7   4   5  313.20   14.91
  -7   4   5  329.75   15.23
  -7   4   6  526.94   21.14
  -7   4   7  464.00   20.54
  -7   4   8  170.75   12.57
  -7   4   9   31.15    6.13
  -7   4  10  161.71   13.63
  -7   4  11  201.48   15.84
  -7   4  12   -1.49    3.29
  -7   5 -11  156.04   13.58
  -7   5 -10  154.97   12.68
  -7   5  -9  178.21   12.91
  -7   5  -8  323.46   16.52
  -7   5  -7  326.60   20.29
  -7   5  -7  330.14   15.66
  -7   5  -6  749.36   31.32
  -7   5  -6  808.45   24.74
  -7   5  -6  779.83   22.20
  -7   5  -5  253.06   16.77
  -7   5  -5  249.88   11.43
  -7   5  -5  266.13   10.93
  -7   5  -4   74.76    8.87
  -7   5  -4   71.13    5.16
  -7   5  -4   72.27    5.32
  -7   5  -3  714.09   28.48
  -7   5  -3  695.55   17.46
  -7   5  -3  719.91   19.67
  -7   5  -2   53.73    7.51
  -7   5  -2   56.03    4.67
  -7   5  -1  120.28   10.77
  -7   5  -1  117.20    6.99
  -7   5   0    1.08    1.79
  -7   5   0    0.76    3.26
  -7   5   0    1.56    0.90
  -7   5   0    1.27    0.84
  -7   5   0   -0.68    1.55
  -7   5   1    1.52    1.80
  -7   5   1    4.88    3.41
  -7   5   1    3.04    1.30
  -7   5   1    1.68    1.18
  -7   5   1    2.28    1.66
  -7   5   2   39.34    4.75
  -7   5   2   32.91    3.72
  -7   5   2   27.67    4.02
  -7   5   2   31.12    3.73
  -7   5   3   35.78    4.15
  -7   5   3   37.49    4.47
  -7   5   3   34.09    4.65
  -7   5   3   36.68    4.37
  -7   5   4   89.21    6.10
  -7   5   4   90.00    7.39
  -7   5   4  104.85    7.95
  -7   5   4   87.24    7.78
  -7   5   5  205.82    8.22
  -7   5   5  218.14   12.38
  -7   5   5  187.10   11.53
  -7   5   5  189.66   12.06
  -7   5   6  451.21   19.60
  -7   5   6  425.54   19.51
  -7   5   7  149.89   11.43
  -7   5   8  391.40   20.04
  -7   5   9  488.14   23.60
  -7   5  10   47.85    9.38
  -7   5  11  282.53   19.18
  -7   5  12  125.38   13.37
  -7   6  -9   16.58    4.13
  -7   6  -8   61.78    9.10
  -7   6  -8   38.80    5.74
  -7   6  -7  223.24   16.53
  -7   6  -7  215.42   12.12
  -7   6  -6   29.37    6.12
  -7   6  -6   35.33    4.45
  -7   6  -6   45.88    4.99
  -7   6  -5  207.42   15.07
  -7   6  -5  221.24   10.22
  -7   6  -5  223.45   11.00
  -7   6  -4  472.83   23.15
  -7   6  -4  521.40   15.09
  -7   6  -4  516.64   17.64
  -7   6  -3  553.56   24.76
  -7   6  -3  561.45   13.20
  -7   6  -3  552.25   18.43
  -7   6  -2  221.72   14.78
  -7   6  -2  227.10   11.00
  -7   6  -1  717.48   28.17
  -7   6  -1  739.61   22.56
  -7   6   0    0.60    2.01
  -7   6   0    2.23    2.78
  -7   6   0    5.72    1.32
  -7   6   0    6.77    1.38
  -7   6   0    5.12    2.50
  -7   6   1   77.80    6.98
  -7   6   1   71.16    8.38
  -7   6   1   73.00    5.13
  -7   6   1   69.48    4.98
  -7   6   1   74.93    6.79
  -7   6   2  232.18   11.92
  -7   6   2  265.06   11.28
  -7   6   2  232.86   10.78
  -7   6   2  239.78   12.73
  -7   6   3   13.17    2.77
  -7   6   3   22.62    3.56
  -7   6   3   21.76    3.64
  -7   6   3   23.00    4.22
  -7   6   4   29.29    3.60
  -7   6   4   23.98    3.99
  -7   6   4   21.54    3.96
  -7   6   4   29.62    4.70
  -7   6   5   10.83    3.14
  -7   6   5    4.14    2.86
  -7   6   6    0.71    2.07
  -7   6   6   -1.75    2.80
  -7   6   7   77.97    8.63
  -7   6   7   75.12    8.79
  -7   6   8   58.40    8.05
  -7   6   9  530.95   25.36
  -7   6  10  208.09   16.00
  -7   6  11   87.18   10.94
  -7   7 -10   58.78    9.48
  -7   7  -9    2.60    3.23
  -7   7  -8   63.13    9.11
  -7   7  -7   13.70    4.63
  -7   7  -7   12.56    3.04
  -7   7  -6  158.48   13.45
  -7   7  -6  169.64   10.53
  -7   7  -5   21.80    5.44
  -7   7  -5   21.49    3.06
  -7   7  -5   27.33    4.24
  -7   7  -4  254.52   16.51
  -7   7  -4  262.43   13.01
  -7   7  -3  452.70   22.04
  -7   7  -3  446.14   17.61
  -7   7  -2  154.27   12.29
  -7   7  -2  137.94    9.39
  -7   7  -1  628.49   26.36
  -7   7  -1  663.11   22.60
  -7   7   0  226.44   15.00
  -7   7   0  224.65    8.43
  -7   7   0  213.20    8.38
  -7   7   0  211.38   12.15
  -7   7   1  193.48   11.69
  -7   7   1  209.37    9.46
  -7   7   1  208.60    9.62
  -7   7   1  206.90   12.26
  -7   7   2 1237.80   33.58
  -7   7   2 1240.21   31.96
  -7   7   2 1257.30   31.87
  -7   7   2 1210.05   35.59
  -7   7   3  504.48   17.87
  -7   7   3  471.66   18.40
  -7   7   3  481.25   20.70
  -7   7   3  501.38   18.63
  -7   7   4  346.85   16.23
  -7   7   4  343.01   15.99
  -7   7   4  322.83   17.12
  -7   7   5  150.03   11.94
  -7   7   5  173.94   11.74
  -7   7   6    4.41    3.16
  -7   7   6    0.15    2.25
  -7   7   7   -0.21    2.95
  -7   7   7    3.19    3.01
  -7   7   8   16.74    4.89
  -7   7   8   18.35    5.93
  -7   7   9    0.34    3.50
  -7   7  10   13.18    4.79
  -7   8 -10  304.42   21.10
  -7   8  -9  144.82   14.00
  -7   8  -8   29.13    6.33
  -7   8  -7   79.59    9.82
  -7   8  -7   93.92    8.54
  -7   8  -6   22.33    5.38
  -7   8  -6   18.94    4.19
  -7   8  -5    7.16    3.81
  -7   8  -5    8.47    3.05
  -7   8  -4   24.58    5.44
  -7   8  -4   13.62    3.81
  -7   8  -3   60.00    8.13
  -7   8  -3   68.58    6.99
  -7   8  -2  405.57   20.88
  -7   8  -2  431.27   18.58
  -7   8  -1   90.37    9.50
  -7   8  -1   89.93    8.27
  -7   8   0  248.43    9.95
  -7   8   0  233.22   13.73
  -7   8   1  184.01    9.56
  -7   8   1  178.05   12.12
  -7   8   2  104.24    8.34
  -7   8   2   99.12    7.54
  -7   8   2   92.49    8.98
  -7   8   3  308.97   17.22
  -7   8   3  338.00   15.54
  -7   8   4  646.18   23.86
  -7   8   4  608.86   25.77
  -7   8   5  189.46   14.06
  -7   8   5  182.77   12.60
  -7   8   6  247.04   15.54
  -7   8   6  225.33   15.93
  -7   8   7  298.26   17.93
  -7   8   7  283.18   18.53
  -7   8   8   68.82    9.59
  -7   8   8   70.00    9.25
  -7   8   9    1.12    2.86
  -7   8   9   -2.81    4.05
  -7   8  10   22.23    6.02
  -7   9 -10    8.79    3.86
  -7   9  -9  135.18   13.50
  -7   9  -8  283.27   19.09
  -7   9  -7    3.91    3.91
  -7   9  -7   -2.62    2.34
  -7   9  -6  473.39   24.01
  -7   9  -6  482.71   21.46
  -7   9  -5    2.48    3.22
  -7   9  -5    2.18    2.57
  -7   9  -4   43.62    7.27
  -7   9  -4   36.58    5.82
  -7   9  -3   36.67    6.33
  -7   9  -3   41.70    5.98
  -7   9  -2   -1.01    3.11
  -7   9  -2    4.47    2.82
  -7   9  -1  461.51   22.24
  -7   9  -1  434.70   20.25
  -7   9   0   25.77    5.02
  -7   9   0   20.62    3.26
  -7   9   1  272.33   12.78
  -7   9   1  291.99   16.58
  -7   9   2  224.20   14.95
  -7   9   2  244.35   12.75
  -7   9   3  119.07    9.29
  -7   9   3  100.41   10.35
  -7   9   4  174.61   13.91
  -7   9   4  183.11   12.43
  -7   9   5  107.90   11.04
  -7   9   5  100.09    9.58
  -7   9   6   87.07    9.53
  -7   9   6   94.66   10.73
  -7   9   7  101.35   10.79
  -7   9   7  122.94   12.64
  -7   9   8  137.14   12.95
  -7   9   8  143.87   13.89
  -7   9   9    9.96    4.66
  -7  10  -9  197.39   16.28
  -7  10  -8  372.62   22.06
  -7  10  -7  162.61   14.07
  -7  10  -7  146.67   12.17
  -7  10  -6  207.01   15.35
  -7  10  -6  188.88   13.79
  -7  10  -5  454.34   22.94
  -7  10  -5  454.37   21.75
  -7  10  -4   76.46    9.09
  -7  10  -4   66.98    8.11
  -7  10  -3  202.40   14.51
  -7  10  -3  175.84   12.97
  -7  10  -2  239.39   15.71
  -7  10  -2  202.07   14.18
  -7  10  -1    1.77    2.77
  -7  10   0   71.32    8.50
  -7  10   1   -6.24    3.93
  -7  10   1   -0.89    2.22
  -7  10   2   60.22    8.21
  -7  10   2   70.01    7.17
  -7  10   3  204.99   15.35
  -7  10   3  239.25   14.00
  -7  10   4   40.46    6.37
  -7  10   4   38.39    6.98
  -7  10   5  162.56   12.80
  -7  10   5  178.70   15.07
  -7  10   6  365.87   20.60
  -7  10   6  374.17   22.50
  -7  10   7  205.41   16.74
  -7  10   7  215.75   16.18
  -7  10   8  164.68   14.61
  -7  11  -7  344.90   20.56
  -7  11  -7  351.48   20.21
  -7  11  -6  186.97   14.63
  -7  11  -6  168.78   13.80
  -7  11  -5  286.95   17.84
  -7  11  -5  275.44   17.60
  -7  11  -4  487.64   23.55
  -7  11  -4  493.37   23.78
  -7  11  -3  147.31   12.54
  -7  11  -3  110.76   11.16
  -7  11  -2   97.83   10.43
  -7  11  -1   23.54    6.16
  -7  11   0   66.90    9.00
  -7  11   1   77.33    9.79
  -7  11   2  103.84   11.32
  -7  11   3   10.53    3.36
  -7  11   3    6.55    4.23
  -7  11   4   89.76   10.70
  -7  11   4   92.42    9.73
  -7  11   5    4.36    4.19
  -7  11   5   -2.50    2.54
  -7  11   6   72.49    9.37
  -7  11   7  107.38   11.96
  -7  12  -6   88.71   10.62
  -7  12  -5   23.05    5.61
  -7  12  -4  223.34   16.58
  -7  12  -3  311.07   19.72
  -7  12  -2   84.71   10.37
  -7  12  -1   58.10    8.89
  -7  12   0  149.43   13.82
  -7  12   1  117.59   12.39
  -7  12   2  103.72   11.71
  -7  12   3  130.37   13.37
  -7  12   5    2.12    3.99
  -7  13  -5   56.91    8.94
  -7  13  -4   15.68    5.18
  -7  13  -3  238.80   17.94
  -7  13  -2  121.30   12.87
  -7  13  -1  137.12   14.13
  -7  13   0  120.31   12.84
  -6 -10  -1  343.13   22.36
  -6 -10   0   23.49    6.08
  -6 -10   1  194.81   16.43
  -6 -10   2  367.97   22.95
  -6 -10   3  222.23   17.51
  -6 -10   4  235.44   18.02
  -6 -10   5  358.92   22.43
  -6 -10   6   62.71    9.41
  -6 -10   7  191.94   16.54
  -6 -10   8  112.49   12.74
  -6  -9  -4   90.58   11.32
  -6  -9  -3   32.26    7.48
  -6  -9  -2   27.48    6.36
  -6  -9  -1   20.67    5.79
  -6  -9   0   -2.21    3.24
  -6  -9   1   49.04    8.49
  -6  -9   2  117.47   12.17
  -6  -9   3  200.79   15.94
  -6  -9   4  453.20   24.51
  -6  -9   5  177.00   15.08
  -6  -9   6  577.41   28.13
  -6  -9   7  259.32   18.50
  -6  -9   8  241.37   18.08
  -6  -9   9  297.04   20.37
  -6  -9  10  138.75   14.18
  -6  -8  -6  217.70   17.31
  -6  -8  -5  178.18   15.45
  -6  -8  -4  257.53   18.26
  -6  -8  -4  255.52   16.67
  -6  -8  -3  244.69   17.58
  -6  -8  -3  284.81   16.79
  -6  -8  -2  210.11   15.91
  -6  -8  -2  196.68   13.32
  -6  -8  -1  122.38   12.13
  -6  -8  -1  122.14   10.10
  -6  -8   0   23.50    5.77
  -6  -8   0   46.02    5.93
  -6  -8   1    7.56    4.19
  -6  -8   1   12.53    3.34
  -6  -8   2   27.95    6.04
  -6  -8   2   33.28    4.90
  -6  -8   3   13.20    4.65
  -6  -8   4  322.96   19.68
  -6  -8   5   24.10    5.79
  -6  -8   6  365.48   21.11
  -6  -8   7  903.36   35.46
  -6  -8   8  386.67   22.44
  -6  -8   9  633.71   29.81
  -6  -8  10 1017.03   39.67
  -6  -8  11  321.96   21.36
  -6  -7  -8   14.98    5.74
  -6  -7  -7    5.25    3.15
  -6  -7  -6  274.07   18.58
  -6  -7  -5  126.88   12.31
  -6  -7  -4  327.26   19.59
  -6  -7  -3  714.67   30.00
  -6  -7  -3  785.39   29.50
  -6  -7  -2  331.75   19.25
  -6  -7  -2  358.96   18.31
  -6  -7  -1  136.89   12.23
  -6  -7  -1  151.81   11.28
  -6  -7   0  102.14   10.31
  -6  -7   0  123.22    9.86
  -6  -7   1  159.17   12.88
  -6  -7   1  181.43   11.67
  -6  -7   2   27.22    5.68
  -6  -7   2   26.84    4.65
  -6  -7   3   40.46    6.73
  -6  -7   3   24.08    4.24
  -6  -7   4   35.24    6.34
  -6  -7   5    1.38    2.74
  -6  -7   6    9.67    4.09
  -6  -7   7   71.65    9.05
  -6  -7   8   92.05   10.69
  -6  -7   9   87.28   10.29
  -6  -7  10  162.84   14.47
  -6  -7  11  338.09   21.51
  -6  -7  12  127.63   13.22
  -6  -6  -9   30.58    7.55
  -6  -6  -8  113.30   12.01
  -6  -6  -7   20.43    5.30
  -6  -6  -6   93.41   10.58
  -6  -6  -5  136.70   12.78
  -6  -6  -4  119.34   11.05
  -6  -6  -3  596.06   25.69
  -6  -6  -3  651.99   26.34
  -6  -6  -2  243.88   15.52
  -6  -6  -2  269.05   15.64
  -6  -6  -1  232.46   14.87
  -6  -6  -1  245.25   14.32
  -6  -6   0  368.63   18.86
  -6  -6   0  371.69   17.59
  -6  -6   1  755.70   28.35
  -6  -6   1  755.50   26.11
  -6  -6   2  516.81   22.78
  -6  -6   2  547.23   21.10
  -6  -6   3   22.89    5.04
  -6  -6   3   25.00    4.21
  -6  -6   4   72.95    8.28
  -6  -6   5   39.65    6.31
  -6  -6   6    1.42    2.56
  -6  -6   7   63.60    8.27
  -6  -6   8    5.90    3.92
  -6  -6   9  288.70   18.23
  -6  -6  10    5.60    3.86
  -6  -6  11  105.41   11.51
  -6  -6  12   62.46    9.39
  -6  -6  13   80.22   10.64
  -6  -5  -9   70.76    9.13
  -6  -5  -8   15.46    5.06
  -6  -5  -7   -2.74    3.97
  -6  -5  -6   14.76    4.28
  -6  -5  -5   24.33    5.31
  -6  -5  -4  573.37   24.04
  -6  -5  -3  205.55   13.40
  -6  -5  -3  170.74   12.76
  -6  -5  -3  183.85   10.21
  -6  -5  -2  750.21   27.61
  -6  -5  -2  808.88   23.20
  -6  -5  -2  737.33   27.70
  -6  -5  -1  326.53   16.79
  -6  -5  -1  340.56   17.08
  -6  -5   0  410.21   19.04
  -6  -5   0  449.62   19.43
  -6  -5   1  761.02   27.25
  -6  -5   1  796.65   26.85
  -6  -5   2 1197.00   36.33
  -6  -5   2 1228.07   35.14
  -6  -5   3  293.35   15.80
  -6  -5   3  305.19   15.13
  -6  -5   4  839.70   29.13
  -6  -5   5  409.24   19.43
  -6  -5   6  444.67   20.72
  -6  -5   7  249.04   15.51
  -6  -5   8  115.73   10.70
  -6  -5   9   14.57    4.21
  -6  -5  10   33.50    6.41
  -6  -5  11   15.06    5.45
  -6  -5  12  141.63   13.62
  -6  -5  13   69.21    9.75
  -6  -4  -9   89.87    9.92
  -6  -4  -8  403.10   20.51
  -6  -4  -7   55.36    8.07
  -6  -4  -6  154.71   11.71
  -6  -4  -5  273.27   15.32
  -6  -4  -5  255.62   13.78
  -6  -4  -4  191.25   12.37
  -6  -4  -4  199.22   11.55
  -6  -4  -3    3.31    2.86
  -6  -4  -3    4.49    2.48
  -6  -4  -2   24.56    4.11
  -6  -4  -2   24.71    4.92
  -6  -4  -2   31.96    4.34
  -6  -4  -1  312.97   15.56
  -6  -4  -1  336.04   16.93
  -6  -4  -1  346.89   14.21
  -6  -4   0  191.96   11.90
  -6  -4   0  223.73   13.25
  -6  -4   1  500.67   20.03
  -6  -4   1  467.43   19.74
  -6  -4   2  277.68   14.66
  -6  -4   2  268.06   14.26
  -6  -4   2  267.15   14.29
  -6  -4   3  402.00   17.92
  -6  -4   3  398.59   17.83
  -6  -4   3  405.20   17.91
  -6  -4   4  554.51   21.34
  -6  -4   4  532.90   21.40
  -6  -4   5  338.38   16.34
  -6  -4   5  354.42   17.23
  -6  -4   6 1178.13   36.12
  -6  -4   7  737.79   27.66
  -6  -4   8  260.51   15.80
  -6  -4   9  665.05   27.40
  -6  -4  10  142.91   12.57
  -6  -4  11   29.46    6.15
  -6  -4  12  100.53   11.33
  -6  -4  13   56.59    8.68
  -6  -4  14   47.21    8.57
  -6  -3  -9  128.87   13.22
  -6  -3  -8  233.95   14.39
  -6  -3  -7  113.88    9.61
  -6  -3  -6 1040.61   32.38
  -6  -3  -5  166.16   11.32
  -6  -3  -5  191.98   11.82
  -6  -3  -4  274.75   14.13
  -6  -3  -4  264.66   13.87
  -6  -3  -4  294.39    9.64
  -6  -3  -3  435.06   17.87
  -6  -3  -3  457.29   18.09
  -6  -3  -2   61.57    6.28
  -6  -3  -2   63.25    7.41
  -6  -3  -2   64.84    6.37
  -6  -3  -1  102.30    7.93
  -6  -3  -1  102.85    9.15
  -6  -3  -1   98.48    7.58
  -6  -3   0    3.09    2.35
  -6  -3   0    3.33    1.97
  -6  -3   0   -1.45    2.07
  -6  -3   0    0.12    2.36
  -6  -3   1  102.31    8.36
  -6  -3   1   90.88    7.63
  -6  -3   1   95.94    8.51
  -6  -3   2   11.65    3.00
  -6  -3   2   11.23    3.15
  -6  -3   2   16.03    3.96
  -6  -3   3   68.10    6.59
  -6  -3   3   71.48    7.07
  -6  -3   3   76.54    7.47
  -6  -3   4  217.66   12.01
  -6  -3   4  203.28   12.03
  -6  -3   5  119.84    8.85
  -6  -3   5  115.53    9.40
  -6  -3   6  941.12   28.93
  -6  -3   6  914.13   30.05
  -6  -3   7 1835.31   45.82
  -6  -3   7 1727.34   47.39
  -6  -3   8  111.77   10.15
  -6  -3   9  835.54   30.75
  -6  -3  10  829.18   31.65
  -6  -3  11  263.67   17.32
  -6  -3  12  195.43   15.68
  -6  -3  13  246.52   17.97
  -6  -3  14    2.64    4.52
  -6  -2 -10   67.86    9.75
  -6  -2  -9  131.48   13.06
  -6  -2  -8  275.44   18.09
  -6  -2  -7  105.80    8.78
  -6  -2  -6 1387.87   37.16
  -6  -2  -5  377.63   15.90
  -6  -2  -5  360.31   10.95
  -6  -2  -4  160.47   10.72
  -6  -2  -4  152.26    9.45
  -6  -2  -4  145.91    5.07
  -6  -2  -3 1150.92   30.75
  -6  -2  -3 1136.69   32.76
  -6  -2  -2  309.41   13.39
  -6  -2  -2  314.81   14.66
  -6  -2  -2  319.07   16.56
  -6  -2  -1  207.60   10.61
  -6  -2  -1  193.50   11.07
  -6  -2  -1  217.58   13.15
  -6  -2   0  171.23    9.77
  -6  -2   0  187.87   12.05
  -6  -2   0  198.35   11.04
  -6  -2   1  205.88   11.14
  -6  -2   1  205.71   10.70
  -6  -2   1  207.69   12.55
  -6  -2   2   65.65    6.13
  -6  -2   2   65.34    6.04
  -6  -2   2   57.08    6.59
  -6  -2   3    8.31    2.63
  -6  -2   3   12.61    3.19
  -6  -2   3    9.40    3.38
  -6  -2   4    7.62    2.55
  -6  -2   4    6.30    2.61
  -6  -2   5   69.53    6.27
  -6  -2   5   87.45    7.84
  -6  -2   6  337.47   14.85
  -6  -2   6  329.58   15.99
  -6  -2   7  113.39    8.56
  -6  -2   7  122.62    9.97
  -6  -2   8  168.27   10.96
  -6  -2   8  194.36   13.07
  -6  -2   9  196.81   14.02
  -6  -2  10  300.31   17.78
  -6  -2  11  791.30   31.51
  -6  -2  12  215.15   16.20
  -6  -2  13  359.42   21.76
  -6  -2  14  115.38   12.89
  -6  -1 -11   21.24    5.43
  -6  -1 -10   41.06    7.35
  -6  -1  -9   68.37   10.49
  -6  -1  -8  226.93   15.87
  -6  -1  -7  254.84   16.03
  -6  -1  -6  430.91   16.42
  -6  -1  -6  434.79   12.89
  -6  -1  -5  172.52    9.52
  -6  -1  -5  198.67    6.47
  -6  -1  -4  697.09   21.06
  -6  -1  -4  742.84   25.68
  -6  -1  -3 1074.34   27.77
  -6  -1  -3 1115.97   32.51
  -6  -1  -2  204.71    9.72
  -6  -1  -2  188.12   12.52
  -6  -1  -2  216.08   12.19
  -6  -1  -1 1109.49   28.06
  -6  -1  -1 1082.84   33.50
  -6  -1  -1 1117.90   31.97
  -6  -1  -1 1171.48   34.07
  -6  -1   0  612.58   19.02
  -6  -1   0  638.38   22.07
  -6  -1   0  640.87   23.63
  -6  -1   1  496.61   16.86
  -6  -1   1  449.32   15.85
  -6  -1   1  462.53   19.48
  -6  -1   2  383.00   14.38
  -6  -1   2  390.91   14.89
  -6  -1   2  399.82   17.75
  -6  -1   3   11.29    2.34
  -6  -1   3   12.41    2.81
  -6  -1   3   13.83    3.85
  -6  -1   4    7.22    2.39
  -6  -1   4    6.72    2.60
  -6  -1   5   83.82    6.48
  -6  -1   5   83.08    7.26
  -6  -1   6   17.39    3.25
  -6  -1   6   15.82    3.74
  -6  -1   7    5.43    2.18
  -6  -1   7    6.91    2.96
  -6  -1   8   72.06    6.87
  -6  -1   8   60.22    7.25
  -6  -1   9  624.25   22.85
  -6  -1   9  622.95   25.31
  -6  -1  10   95.10    9.79
  -6  -1  11  145.98   12.69
  -6  -1  12  211.95   15.90
  -6  -1  13    9.07    4.39
  -6  -1  14  132.68   13.46
  -6   0 -11  107.26   11.93
  -6   0 -10   33.83    9.86
  -6   0  -9   -4.59    3.95
  -6   0  -8    8.06    4.07
  -6   0  -7  100.96    9.65
  -6   0  -6   77.05    8.00
  -6   0  -6   62.42    4.04
  -6   0  -5  390.10   13.43
  -6   0  -5  391.45    9.46
  -6   0  -4  777.15   20.44
  -6   0  -3 1630.54   35.31
  -6   0  -3 1639.59   45.25
  -6   0  -3 1668.55   43.46
  -6   0  -2  414.59   13.11
  -6   0  -2  405.75   17.69
  -6   0  -2  413.33   18.84
  -6   0  -1 1455.27   38.33
  -6   0  -1 1331.06   30.58
  -6   0  -1 1400.22   37.64
  -6   0  -1 1383.22   38.91
  -6   0  -1 1357.13   38.13
  -6   0   0 1252.47   30.81
  -6   0   0 1258.05   29.51
  -6   0   0 1302.61   35.60
  -6   0   0 1345.35   37.50
  -6   0   0 1279.89   36.28
  -6   0   1  511.81   16.09
  -6   0   1  510.51   16.12
  -6   0   1  521.85   20.91
  -6   0   1  524.61   20.05
  -6   0   2  947.48   24.05
  -6   0   2  984.06   25.56
  -6   0   2  965.82   30.34
  -6   0   3 1051.10   25.80
  -6   0   3 1062.23   27.94
  -6   0   3 1046.02   32.27
  -6   0   4   74.12    5.39
  -6   0   4   65.86    5.99
  -6   0   5 1070.04   27.15
  -6   0   5 1098.21   30.61
  -6   0   6  499.26   16.88
  -6   0   6  489.51   19.38
  -6   0   7   -1.86    1.76
  -6   0   7   -0.50    2.47
  -6   0   8   24.98    4.75
  -6   0   8   15.05    3.21
  -6   0   9   31.91    5.75
  -6   0   9   24.75    4.16
  -6   0  10  244.75   15.80
  -6   0  11  145.05   12.57
  -6   0  12  135.57   12.78
  -6   0  13  292.06   19.59
  -6   0  14  129.31   13.46
  -6   1 -11  613.33   29.07
  -6   1 -10  214.00   15.76
  -6   1  -9   48.09    7.12
  -6   1  -8  124.77   10.98
  -6   1  -7  565.34   23.12
  -6   1  -6    3.67    3.03
  -6   1  -6    0.95    1.19
  -6   1  -5  533.20   20.55
  -6   1  -5  562.70   12.64
  -6   1  -5  548.47   12.57
  -6   1  -4   70.55    6.46
  -6   1  -4   75.26    4.11
  -6   1  -3   -0.51    0.90
  -6   1  -3   -1.59    2.31
  -6   1  -3   -3.28    3.21
  -6   1  -2  329.19   15.69
  -6   1  -2  295.41    9.11
  -6   1  -2  289.16   15.73
  -6   1  -2  315.99   15.59
  -6   1  -1  606.91   21.62
  -6   1  -1  570.29   14.95
  -6   1  -1  618.09   22.60
  -6   1  -1  623.56   23.32
  -6   1  -1  583.62   22.32
  -6   1   0  776.52   24.65
  -6   1   0  771.33   20.25
  -6   1   0  768.07   19.24
  -6   1   0  803.54   26.49
  -6   1   0  810.29   27.13
  -6   1   0  830.27   26.93
  -6   1   1  832.54   20.63
  -6   1   1  838.80   25.07
  -6   1   1  852.52   21.56
  -6   1   1  893.40   28.07
  -6   1   1  886.32   28.03
  -6   1   1  869.16   28.35
  -6   1   2   33.37    3.06
  -6   1   2   38.36    3.99
  -6   1   2   22.44    4.43
  -6   1   3 1001.44   23.30
  -6   1   3 1004.49   26.60
  -6   1   3 1091.92   32.69
  -6   1   4  240.94    9.20
  -6   1   4  243.14   11.56
  -6   1   5 1112.87   26.61
  -6   1   5 1115.84   30.86
  -6   1   6  528.11   16.59
  -6   1   6  492.99   19.50
  -6   1   7  500.78   17.25
  -6   1   7  530.71   20.95
  -6   1   8  337.76   14.41
  -6   1   8  342.65   17.26
  -6   1   9  298.82   14.32
  -6   1   9  283.70   16.39
  -6   1  10  125.77   11.32
  -6   1  11    9.69    4.40
  -6   1  12    4.14    3.51
  -6   1  13    5.91    4.23
  -6   1  14   32.99    7.11
  -6   2 -12  382.25   22.93
  -6   2 -11   76.75    9.81
  -6   2 -10  397.33   21.45
  -6   2  -9  261.93   16.42
  -6   2  -8  168.25   12.25
  -6   2  -7 1005.42   32.04
  -6   2  -7 1017.09   25.15
  -6   2  -6  481.69   19.33
  -6   2  -6  465.34   13.70
  -6   2  -6  496.88   14.07
  -6   2  -5   14.27    3.31
  -6   2  -5   11.46    1.61
  -6   2  -5   14.72    1.96
  -6   2  -4  343.48   17.97
  -6   2  -4  361.46   14.54
  -6   2  -4  368.32    8.70
  -6   2  -4  359.35    8.60
  -6   2  -3  164.75    8.59
  -6   2  -3  142.39   11.03
  -6   2  -2  105.58    8.49
  -6   2  -2  105.13    6.22
  -6   2  -2  120.12    9.78
  -6   2  -2  108.02    9.14
  -6   2  -1   25.19    4.18
  -6   2  -1   18.18    1.64
  -6   2  -1   14.62    3.68
  -6   2  -1   21.75    4.64
  -6   2  -1   22.83    4.17
  -6   2   0   21.20    3.62
  -6   2   0   27.01    2.55
  -6   2   0   23.66    2.27
  -6   2   0   22.27    4.47
  -6   2   0   23.91    4.24
  -6   2   0   25.40    4.76
  -6   2   1  126.61    5.02
  -6   2   1  125.66    8.18
  -6   2   1  125.71    6.24
  -6   2   1  131.69   10.13
  -6   2   1  132.25    9.63
  -6   2   1  141.90   10.27
  -6   2   2  141.47    8.17
  -6   2   2  140.24    5.05
  -6   2   2  147.86    7.50
  -6   2   2  125.91    9.91
  -6   2   2  135.64    9.71
  -6   2   3   42.66    2.77
  -6   2   3   34.72    3.94
  -6   2   3   36.47    4.05
  -6   2   3   42.86    6.20
  -6   2   4 1438.43   29.71
  -6   2   4 1454.71   35.75
  -6   2   5  381.85   12.09
  -6   2   5  401.17   16.17
  -6   2   6  554.11   16.70
  -6   2   6  587.61   21.24
  -6   2   7  213.76   10.19
  -6   2   7  220.81   13.11
  -6   2   8  658.77   21.13
  -6   2   8  647.04   24.98
  -6   2   9   19.71    4.49
  -6   2  10 1068.50   36.60
  -6   2  11  117.16   11.51
  -6   2  12   20.68    5.55
  -6   2  13   31.64    6.92
  -6   3 -12  204.29   16.47
  -6   3 -11  515.94   25.39
  -6   3 -10   80.10    9.36
  -6   3  -9  630.04   25.96
  -6   3  -8  501.59   21.63
  -6   3  -7  628.69   23.68
  -6   3  -7  686.60   19.79
  -6   3  -7  665.32   19.36
  -6   3  -6  792.73   26.05
  -6   3  -6  889.50   22.21
  -6   3  -5  370.26   15.25
  -6   3  -5  406.66   12.29
  -6   3  -4   65.30    7.66
  -6   3  -4   54.89    4.94
  -6   3  -4   59.16    3.80
  -6   3  -3  552.58   22.88
  -6   3  -3  550.67   16.61
  -6   3  -3  562.84   13.69
  -6   3  -2  985.82   31.80
  -6   3  -2 1003.96   30.43
  -6   3  -2  977.42   23.06
  -6   3  -2 1016.28   21.18
  -6   3  -1   26.58    4.93
  -6   3  -1   25.89    4.84
  -6   3  -1   23.17    2.22
  -6   3  -1   30.89    4.77
  -6   3  -1   25.12    2.32
  -6   3   0    7.82    2.64
  -6   3   0   10.03    0.99
  -6   3   0    9.69    0.98
  -6   3   0    9.15    2.89
  -6   3   0    8.58    3.43
  -6   3   0   10.01    3.00
  -6   3   0   10.97    1.52
  -6   3   0    7.60    1.28
  -6   3   0   11.20    1.83
  -6   3   1    6.79    2.31
  -6   3   1    0.68    1.68
  -6   3   1    2.60    2.61
  -6   3   1    6.32    3.01
  -6   3   1    5.48    1.59
  -6   3   1    4.29    1.29
  -6   3   1    4.50    1.36
  -6   3   2  320.91   12.87
  -6   3   2  380.74   16.65
  -6   3   2  371.69   17.50
  -6   3   2  354.06   12.37
  -6   3   2  352.45   12.34
  -6   3   2  338.63   12.25
  -6   3   3   43.77    4.14
  -6   3   3   44.83    5.38
  -6   3   3   54.62    4.99
  -6   3   3   46.48    4.54
  -6   3   3   56.27    4.97
  -6   3   4    5.74    1.68
  -6   3   4    1.84    1.61
  -6   3   4    2.63    1.82
  -6   3   5  943.91   27.91
  -6   3   5  954.60   28.00
  -6   3   6  306.88   14.97
  -6   3   6  323.62   15.31
  -6   3   7  361.07   17.18
  -6   3   8 1105.18   34.97
  -6   3   9  210.77   14.21
  -6   3  10  694.84   28.65
  -6   3  11  601.65   27.52
  -6   3  12   44.53    7.47
  -6   3  13   73.50   10.08
  -6   4 -12    1.33    3.03
  -6   4 -11   74.93    9.35
  -6   4 -10  167.57   13.20
  -6   4  -9   22.44    4.77
  -6   4  -8  289.82   15.59
  -6   4  -8  286.50   13.06
  -6   4  -7  705.03   24.58
  -6   4  -7  709.91   21.45
  -6   4  -6  141.13    9.35
  -6   4  -6  142.82    7.89
  -6   4  -5  876.97   31.51
  -6   4  -5  913.87   25.75
  -6   4  -5  924.67   23.52
  -6   4  -4  853.90   30.05
  -6   4  -4  848.94   23.13
  -6   4  -4  882.71   22.00
  -6   4  -3  559.49   23.04
  -6   4  -3  599.05   16.55
  -6   4  -3  604.10   16.53
  -6   4  -2 1328.53   38.06
  -6   4  -2 1264.32   26.33
  -6   4  -2 1216.62   35.11
  -6   4  -2 1282.46   28.56
  -6   4  -1  429.66   19.14
  -6   4  -1  439.87   17.72
  -6   4  -1  424.63   13.39
  -6   4   0    2.04    1.86
  -6   4   0   14.64    3.70
  -6   4   0    0.58    2.67
  -6   4   0    5.31    1.18
  -6   4   0    4.93    1.17
  -6   4   0    4.12    1.74
  -6   4   1  172.49    9.59
  -6   4   1  171.40   11.07
  -6   4   1  178.12   11.89
  -6   4   1  185.80    7.67
  -6   4   1  176.87    7.50
  -6   4   1  181.66    8.82
  -6   4   2  143.08    8.19
  -6   4   2  152.70   11.17
  -6   4   2  167.65   10.67
  -6   4   2  152.53    7.81
  -6   4   2  142.22    7.58
  -6   4   2  161.08    8.64
  -6   4   3  210.48    9.19
  -6   4   3  201.63   11.84
  -6   4   3  180.88    9.46
  -6   4   3  194.60    9.77
  -6   4   3  202.70   10.37
  -6   4   4    0.38    1.18
  -6   4   4    0.16    1.67
  -6   4   4   -0.67    1.54
  -6   4   4    2.94    2.25
  -6   4   4    1.38    1.77
  -6   4   5   41.79    2.98
  -6   4   5   40.72    5.42
  -6   4   5   37.09    5.02
  -6   4   5   36.47    4.99
  -6   4   5   41.43    5.34
  -6   4   6  462.20   19.20
  -6   4   6  481.15   19.54
  -6   4   7   54.07    6.76
  -6   4   8  168.51   12.30
  -6   4   9  797.00   30.29
  -6   4  10  161.57   13.34
  -6   4  11  195.59   15.45
  -6   4  12  136.05   13.23
  -6   4  13  118.29   13.02
  -6   5 -13   79.44   10.56
  -6   5 -12   76.16    9.71
  -6   5 -11   35.93    6.71
  -6   5 -10   19.12    4.68
  -6   5  -9   52.05    6.86
  -6   5  -9   40.86    5.33
  -6   5  -8    8.88    3.65
  -6   5  -8   15.36    3.35
  -6   5  -7   81.38    7.36
  -6   5  -7   79.46    6.55
  -6   5  -6  176.34   13.30
  -6   5  -6  182.15   10.42
  -6   5  -6  200.80   10.29
  -6   5  -5   97.26    9.43
  -6   5  -5   82.91    6.39
  -6   5  -5   81.51    6.18
  -6   5  -4 1099.17   35.12
  -6   5  -4 1128.00   27.08
  -6   5  -4 1092.21   28.10
  -6   5  -3  672.70   25.72
  -6   5  -3  726.23   17.77
  -6   5  -3  672.90   20.07
  -6   5  -2 1240.70   36.77
  -6   5  -2 1199.95   34.79
  -6   5  -2 1198.76   23.60
  -6   5  -2 1217.18   29.60
  -6   5  -1  279.75   15.20
  -6   5  -1  284.26   13.96
  -6   5  -1  281.76   11.67
  -6   5   0  755.46   24.05
  -6   5   0  758.23   26.73
  -6   5   0  759.78   17.54
  -6   5   0  738.26   17.55
  -6   5   0  771.98   22.03
  -6   5   1  256.02   11.98
  -6   5   1  270.47   15.27
  -6   5   1  271.26   14.22
  -6   5   1  268.49    9.91
  -6   5   1  252.32    9.77
  -6   5   1  247.90   11.59
  -6   5   2  744.47   22.14
  -6   5   2  786.13   26.01
  -6   5   2  781.73   21.59
  -6   5   2  786.52   21.74
  -6   5   2  788.42   23.78
  -6   5   3  277.24   11.00
  -6   5   3  273.26   13.85
  -6   5   3  254.80   11.81
  -6   5   3  252.60   12.71
  -6   5   3  252.54   11.71
  -6   5   4    0.17    1.19
  -6   5   4    0.47    1.87
  -6   5   4   -0.66    1.60
  -6   5   4   -0.85    2.24
  -6   5   4    1.41    2.14
  -6   5   5  266.24    8.52
  -6   5   5  258.70   13.24
  -6   5   5  259.51   13.51
  -6   5   5  239.22   12.97
  -6   5   5  223.07   13.09
  -6   5   6  138.17    9.33
  -6   5   6  128.63    9.96
  -6   5   6  117.09    9.76
  -6   5   7  161.80   10.24
  -6   5   7  165.64   12.15
  -6   5   7  194.19   12.84
  -6   5   8   24.29    4.13
  -6   5   8   28.02    5.48
  -6   5   9  163.83   13.15
  -6   5  10  427.38   22.61
  -6   5  11   46.30    8.07
  -6   5  12  125.06   12.96
  -6   6 -13  165.02   14.98
  -6   6 -12  178.67   14.84
  -6   6 -11  171.79   13.80
  -6   6 -10  188.67   13.68
  -6   6 -10  203.57   13.09
  -6   6  -9   30.75    5.49
  -6   6  -9   28.47    4.72
  -6   6  -8  157.12   11.09
  -6   6  -8  172.83   10.92
  -6   6  -7   94.45    9.92
  -6   6  -7   87.18    7.64
  -6   6  -7  105.66    8.24
  -6   6  -6   28.63    5.50
  -6   6  -6   28.38    4.08
  -6   6  -6   36.18    4.70
  -6   6  -5   32.68    5.72
  -6   6  -5   27.08    3.65
  -6   6  -5   26.88    4.02
  -6   6  -4   -0.23    2.14
  -6   6  -4    1.67    1.24
  -6   6  -4   -0.48    1.69
  -6   6  -3  367.24   18.12
  -6   6  -3  380.65   11.01
  -6   6  -3  351.63   14.62
  -6   6  -2  461.25   20.26
  -6   6  -2  454.42   16.74
  -6   6  -1  382.30   16.83
  -6   6  -1  390.77   18.31
  -6   6  -1  389.86    9.68
  -6   6  -1  369.21    9.58
  -6   6  -1  351.07   14.71
  -6   6   0  504.09   19.22
  -6   6   0  489.64   20.98
  -6   6   0  516.21   14.19
  -6   6   0  496.49   14.22
  -6   6   0  532.57   18.68
  -6   6   1  787.67   24.40
  -6   6   1  838.60   27.55
  -6   6   1  829.70   28.73
  -6   6   1  803.95   21.80
  -6   6   1  837.02   25.46
  -6   6   1  828.01   21.75
  -6   6   2  295.76   12.73
  -6   6   2  300.49   14.84
  -6   6   2  294.34   12.47
  -6   6   2  287.41   14.07
  -6   6   2  306.79   12.49
  -6   6   3  497.93   16.67
  -6   6   3  548.69   20.58
  -6   6   3  525.58   18.73
  -6   6   3  530.04   20.58
  -6   6   3  536.01   18.76
  -6   6   4  711.23   19.48
  -6   6   4  708.22   24.11
  -6   6   4  721.52   23.96
  -6   6   4  739.44   24.04
  -6   6   4  735.22   25.62
  -6   6   5  106.56    5.46
  -6   6   5  102.40    8.15
  -6   6   5  115.00    9.26
  -6   6   5  112.82    9.00
  -6   6   5   98.64    9.05
  -6   6   6  269.60   13.26
  -6   6   6  269.52    6.93
  -6   6   6  258.05   15.34
  -6   6   6  252.64   14.69
  -6   6   7  333.94   14.89
  -6   6   7  369.13   18.64
  -6   6   7  340.05   18.50
  -6   6   8   37.91    6.15
  -6   6   8   43.25    7.15
  -6   6   9  136.26   12.42
  -6   6  10   -0.84    3.21
  -6   6  11   44.09    7.73
  -6   7 -12  178.33   14.63
  -6   7 -11  170.23   13.52
  -6   7 -10  266.16   16.24
  -6   7 -10  286.76   16.34
  -6   7  -9  488.79   21.57
  -6   7  -9  536.91   22.15
  -6   7  -8  304.98   18.73
  -6   7  -8  302.78   15.39
  -6   7  -8  287.25   15.33
  -6   7  -7  160.56   12.97
  -6   7  -7  161.80   10.27
  -6   7  -7  175.17   11.41
  -6   7  -6   61.97    7.83
  -6   7  -6   57.13    5.65
  -6   7  -6   60.04    6.51
  -6   7  -5   31.07    5.77
  -6   7  -5   32.75    3.98
  -6   7  -5   29.15    4.69
  -6   7  -4  174.14   12.51
  -6   7  -4  173.55    8.01
  -6   7  -4  182.38   10.91
  -6   7  -3   17.78    4.54
  -6   7  -3   10.66    1.77
  -6   7  -3   10.04    2.97
  -6   7  -2   81.93    8.34
  -6   7  -2   78.72    3.03
  -6   7  -2   79.37    3.06
  -6   7  -2   71.59    6.79
  -6   7  -1  187.49   12.45
  -6   7  -1  171.42    6.99
  -6   7  -1  168.64    6.86
  -6   7  -1  163.04   10.37
  -6   7   0    2.86    2.17
  -6   7   0    0.35    2.62
  -6   7   0    5.90    1.70
  -6   7   0    4.58    2.63
  -6   7   0    4.34    1.55
  -6   7   1  308.00   12.58
  -6   7   1  331.89   12.77
  -6   7   1  306.34   14.22
  -6   7   1  307.64   15.17
  -6   7   2  210.83   12.44
  -6   7   2  197.81   10.54
  -6   7   2  177.71   11.62
  -6   7   2  185.73   10.08
  -6   7   2  183.74   10.22
  -6   7   3  484.35   16.95
  -6   7   3  522.33   20.17
  -6   7   3  491.18   18.89
  -6   7   3  511.28   21.18
  -6   7   3  496.42   18.75
  -6   7   4  702.66   20.08
  -6   7   4  714.19   23.95
  -6   7   4  675.28   24.21
  -6   7   4  704.00   24.39
  -6   7   4  715.68   26.47
  -6   7   5  376.48   16.11
  -6   7   5  376.83   12.36
  -6   7   5  385.58   19.19
  -6   7   5  373.62   17.80
  -6   7   6   66.15    6.36
  -6   7   6   64.16    8.06
  -6   7   6   63.13    7.48
  -6   7   7  541.44   23.97
  -6   7   7  541.71   24.88
  -6   7   8  182.54   14.57
  -6   7   8  169.23   13.55
  -6   7   9   73.68   10.06
  -6   7   9   65.72    8.92
  -6   7  10  356.96   21.61
  -6   7  11   13.85    4.63
  -6   8 -11  352.91   19.79
  -6   8 -10  288.17   16.81
  -6   8 -10  243.73   15.71
  -6   8  -9  318.12   19.70
  -6   8  -9  309.17   16.67
  -6   8  -9  359.01   18.51
  -6   8  -8  414.52   21.97
  -6   8  -8  427.20   18.62
  -6   8  -8  415.34   19.72
  -6   8  -7  172.12   13.42
  -6   8  -7  167.95   10.42
  -6   8  -7  154.92   11.57
  -6   8  -6  336.36   18.56
  -6   8  -6  363.56   14.79
  -6   8  -6  355.02   17.31
  -6   8  -5  392.86   19.84
  -6   8  -5  432.23   15.11
  -6   8  -5  380.76   17.93
  -6   8  -4   43.21    6.38
  -6   8  -4   39.42    3.86
  -6   8  -4   48.88    6.25
  -6   8  -3  118.20   10.09
  -6   8  -3  113.49    3.67
  -6   8  -3  124.83    3.78
  -6   8  -3  135.66   10.02
  -6   8  -2   84.84    8.49
  -6   8  -2   90.19    4.76
  -6   8  -2   82.33    7.84
  -6   8  -2   87.07    4.66
  -6   8  -1  437.90   19.80
  -6   8  -1  395.16   13.16
  -6   8  -1  406.39   13.21
  -6   8  -1  413.09   18.32
  -6   8   0  279.00   11.77
  -6   8   0  298.90   11.92
  -6   8   0  282.15   15.23
  -6   8   1   27.83    4.46
  -6   8   1   25.10    3.81
  -6   8   1   26.97    3.82
  -6   8   1   20.16    4.52
  -6   8   2  462.84   18.04
  -6   8   2  443.30   17.42
  -6   8   2  443.36   17.61
  -6   8   2  481.14   20.91
  -6   8   3   22.51    3.80
  -6   8   3   19.87    3.96
  -6   8   3   21.12    4.27
  -6   8   3   27.04    5.27
  -6   8   3   25.79    4.42
  -6   8   4  197.74   11.68
  -6   8   4  175.89   11.76
  -6   8   4  190.18    9.70
  -6   8   4  183.72   13.35
  -6   8   5  325.27   14.90
  -6   8   5  326.10   18.49
  -6   8   5  298.41   16.38
  -6   8   6  789.64   31.00
  -6   8   6  751.82   28.85
  -6   8   7  693.37   29.73
  -6   8   7  673.10   28.02
  -6   8   8  613.43   28.69
  -6   8   8  636.67   28.16
  -6   8   9  395.21   22.57
  -6   8   9  393.48   23.25
  -6   8  10  198.34   16.23
  -6   9 -11  147.56   14.10
  -6   9 -10  172.13   14.82
  -6   9 -10  174.00   14.00
  -6   9  -9   33.23    6.51
  -6   9  -9   42.00    6.90
  -6   9  -8  173.34   13.98
  -6   9  -8  210.48   14.45
  -6   9  -7  416.52   21.24
  -6   9  -7  415.47   17.26
  -6   9  -7  395.99   19.92
  -6   9  -6  411.54   20.74
  -6   9  -6  455.09   16.94
  -6   9  -6  403.60   19.88
  -6   9  -5  318.84   17.62
  -6   9  -5  339.40   13.37
  -6   9  -5  305.02   16.92
  -6   9  -4  686.84   26.58
  -6   9  -4  682.29   26.12
  -6   9  -3  309.62   16.62
  -6   9  -3  291.40    9.51
  -6   9  -3  261.75   15.37
  -6   9  -2  299.79   16.36
  -6   9  -2  307.70   16.48
  -6   9  -2  309.77   11.26
  -6   9  -1   44.16    4.54
  -6   9  -1   55.82    7.21
  -6   9  -1   56.65    5.00
  -6   9   0   12.12    2.86
  -6   9   0   23.29    4.98
  -6   9   0   13.06    2.70
  -6   9   1   46.32    5.51
  -6   9   1   41.71    4.91
  -6   9   1   45.72    6.70
  -6   9   2    9.74    2.83
  -6   9   2   10.40    3.17
  -6   9   2    9.11    3.54
  -6   9   2    7.35    2.74
  -6   9   3   96.67    9.89
  -6   9   3   96.03    8.62
  -6   9   4   64.88    8.58
  -6   9   4   78.62    8.12
  -6   9   5   16.47    4.72
  -6   9   5   25.66    5.22
  -6   9   6  141.34   12.87
  -6   9   6  152.33   12.52
  -6   9   7  119.44   12.27
  -6   9   7  116.42   12.05
  -6   9   8  104.54   11.83
  -6   9   8   77.06    9.75
  -6   9   9  304.70   20.50
  -6   9   9  309.69   21.06
  -6  10 -11   -5.86    4.20
  -6  10 -10   49.54    8.03
  -6  10 -10   50.44    8.14
  -6  10  -9  166.52   14.03
  -6  10  -9  165.03   13.62
  -6  10  -8   46.53    7.54
  -6  10  -8   41.33    6.84
  -6  10  -7   45.52    6.97
  -6  10  -7   61.40    8.18
  -6  10  -6  123.57   10.91
  -6  10  -6  131.61   11.66
  -6  10  -5  175.44   12.90
  -6  10  -5  186.80   13.51
  -6  10  -4  273.42   15.72
  -6  10  -4  229.20   15.17
  -6  10  -3  996.81   33.09
  -6  10  -3  993.96   34.27
  -6  10  -2   94.99    9.55
  -6  10  -1  141.58   12.03
  -6  10   0  499.65   23.32
  -6  10   1  197.94   14.46
  -6  10   2  143.91   12.47
  -6  10   2  122.57    9.82
  -6  10   3   87.21   10.06
  -6  10   3   74.88    8.18
  -6  10   4   34.99    7.19
  -6  10   4   29.80    5.68
  -6  10   5   51.81    7.40
  -6  10   5   47.93    8.25
  -6  10   6   16.55    5.33
  -6  10   6   17.94    5.07
  -6  10   7   36.99    7.36
  -6  10   7   46.69    7.85
  -6  10   8   83.95   10.48
  -6  11 -10   55.58    9.00
  -6  11  -9   25.02    6.29
  -6  11  -8   51.34    8.01
  -6  11  -7    8.65    3.53
  -6  11  -7   -3.27    3.75
  -6  11  -6  150.97   12.00
  -6  11  -6  177.38   14.22
  -6  11  -5  181.68   12.87
  -6  11  -5  162.95   13.50
  -6  11  -4  263.11   15.46
  -6  11  -4  273.21   17.44
  -6  11  -3  150.56   12.94
  -6  11  -2  725.01   29.81
  -6  11  -1   86.21    9.95
  -6  11   0  396.73   21.64
  -6  11   1  736.98   30.98
  -6  11   2  151.65   14.46
  -6  11   3  190.80   15.51
  -6  11   4  192.92   15.88
  -6  11   4  174.73   13.51
  -6  11   5   95.15   10.54
  -6  11   5  109.20   11.96
  -6  11   6  101.25   11.03
  -6  11   6   79.76   10.84
  -6  11   7  122.77   12.57
  -6  12  -9  200.56   16.61
  -6  12  -8    0.56    2.90
  -6  12  -7   76.71   10.05
  -6  12  -6   32.85    6.38
  -6  12  -5   45.32    8.17
  -6  12  -4   11.15    5.17
  -6  12  -3    2.21    3.48
  -6  12  -2  118.81   12.27
  -6  12  -1  373.92   21.82
  -6  12   0   63.70    9.43
  -6  12   1  201.56   16.30
  -6  12   2  257.51   18.68
  -6  12   3  113.96   12.47
  -6  12   4  285.27   20.33
  -6  12   4  281.49   18.11
  -6  12   5  312.75   19.89
  -6  12   6   91.11   10.96
  -6  13  -7   61.34    9.95
  -6  13  -6  224.95   17.59
  -6  13  -5   58.14    8.99
  -6  13  -4    3.60    4.76
  -6  13  -3   13.98    5.02
  -6  13  -2   24.20    6.36
  -6  13  -1   53.57    8.74
  -6  13   0  185.40   16.10
  -6  13   1   39.03    7.80
  -6  13   4   70.85    9.43
  -6  13   5  216.34   17.32
  -5 -11   0   23.94    6.50
  -5 -11   1   95.73   11.63
  -5 -11   2  139.36   13.94
  -5 -11   3   88.86   11.20
  -5 -11   4  368.92   23.06
  -5 -11   5   98.61   11.98
  -5 -11   6  131.66   13.68
  -5 -11   7   66.57    9.71
  -5 -11   8  264.16   19.66
  -5 -10  -3  196.57   16.65
  -5 -10  -2   73.07   10.25
  -5 -10  -1  117.05   12.68
  -5 -10   0    3.36    3.15
  -5 -10   1   18.24    6.02
  -5 -10   2    1.94    3.60
  -5 -10   3  108.59   11.85
  -5 -10   4  175.20   15.23
  -5 -10   5   48.99    8.19
  -5 -10   6   89.50   11.07
  -5 -10   7  173.83   15.30
  -5 -10   8  244.37   18.24
  -5 -10   9  283.11   19.93
  -5 -10  10  400.26   24.05
  -5  -9  -5  217.28   17.29
  -5  -9  -4  177.88   15.55
  -5  -9  -3  641.78   24.99
  -5  -9  -3  639.01   29.80
  -5  -9  -2  390.21   17.79
  -5  -9  -2  369.05   21.86
  -5  -9  -1  244.53   13.17
  -5  -9  -1  245.18   17.31
  -5  -9   0  450.86   17.81
  -5  -9   0  465.63   23.97
  -5  -9   1  212.05   11.09
  -5  -9   1  213.95   15.87
  -5  -9   2  231.34   11.08
  -5  -9   2  217.98   16.08
  -5  -9   3  163.65   13.76
  -5  -9   4    8.20    3.47
  -5  -9   5   18.40    5.12
  -5  -9   6   67.48    9.08
  -5  -9   7  146.08   13.39
  -5  -9   8   41.54    7.36
  -5  -9   9  125.82   12.83
  -5  -9  10  186.94   15.80
  -5  -9  11  177.94   15.59
  -5  -9  12  137.33   14.01
  -5  -8  -7    1.01    2.73
  -5  -8  -6   78.20   10.19
  -5  -8  -5   79.79   10.09
  -5  -8  -4  184.85   14.95
  -5  -8  -3  260.59   17.54
  -5  -8  -2  599.54   22.91
  -5  -8  -2  578.39   26.60
  -5  -8  -1   68.41    6.86
  -5  -8  -1   78.69    9.19
  -5  -8   0  443.71   17.74
  -5  -8   0  417.96   21.68
  -5  -8   1  872.65   26.07
  -5  -8   1  837.90   31.97
  -5  -8   2   24.54    3.81
  -5  -8   2   28.38    5.63
  -5  -8   3   71.77    8.69
  -5  -8   4  266.50   16.77
  -5  -8   5   49.03    7.33
  -5  -8   6   80.22    9.36
  -5  -8   7   68.19    8.73
  -5  -8   8   31.84    6.39
  -5  -8   9   78.14    9.78
  -5  -8  10  157.45   14.07
  -5  -8  11  159.77   14.48
  -5  -8  12  252.22   18.68
  -5  -8  13  430.29   25.50
  -5  -7  -8   14.97    5.54
  -5  -7  -7   -1.66    4.08
  -5  -7  -6    2.51    3.27
  -5  -7  -5    2.58    3.01
  -5  -7  -4  325.13   19.06
  -5  -7  -3  131.29    9.61
  -5  -7  -3  117.71   11.09
  -5  -7  -3  132.69    9.67
  -5  -7  -2   73.44    7.47
  -5  -7  -2   77.25    8.84
  -5  -7  -2   75.06    7.03
  -5  -7  -1  129.00    9.80
  -5  -7  -1  123.10   10.98
  -5  -7   0  532.35   19.89
  -5  -7   0  543.84   23.75
  -5  -7   1  490.14   18.29
  -5  -7   1  458.29   21.70
  -5  -7   2  939.84   26.98
  -5  -7   2  901.13   31.88
  -5  -7   3   18.17    3.32
  -5  -7   3   29.66    5.85
  -5  -7   4   37.17    6.04
  -5  -7   5  105.89    9.94
  -5  -7   6    2.02    2.81
  -5  -7   7    9.64    3.94
  -5  -7   8    8.54    3.88
  -5  -7   9   14.27    8.52
  -5  -7  10    7.98    4.08
  -5  -7  11    3.23    3.58
  -5  -7  12  128.74   13.07
  -5  -7  13  559.42   28.54
  -5  -6 -10  301.65   20.27
  -5  -6  -9  389.91   22.55
  -5  -6  -8  131.88   12.73
  -5  -6  -7   48.95    7.74
  -5  -6  -6   17.25    4.29
  -5  -6  -5   60.78    8.00
  -5  -6  -4   86.93    7.66
  -5  -6  -4   72.54    8.55
  -5  -6  -4   78.36    7.16
  -5  -6  -3    1.71    1.38
  -5  -6  -3   -1.36    1.80
  -5  -6  -3    1.92    2.33
  -5  -6  -3    1.48    1.85
  -5  -6  -2   22.15    2.85
  -5  -6  -2   30.73    5.81
  -5  -6  -2   19.63    3.55
  -5  -6  -1    1.11    2.00
  -5  -6  -1    4.92    2.56
  -5  -6   0  474.36   18.40
  -5  -6   0  445.45   20.31
  -5  -6   1  645.28   21.71
  -5  -6   1  620.13   24.30
  -5  -6   2   19.63    3.43
  -5  -6   2   24.02    5.00
  -5  -6   3 1683.73   40.86
  -5  -6   3 1710.12   46.03
  -5  -6   4   48.83    6.85
  -5  -6   5  905.71   30.89
  -5  -6   6  353.75   18.34
  -5  -6   7  156.71   12.30
  -5  -6   8  239.29   15.56
  -5  -6   9  262.17   16.64
  -5  -6  10    4.91    7.96
  -5  -6  11    1.53    3.51
  -5  -6  12   51.68    8.30
  -5  -6  13   55.77    8.97
  -5  -6  14   -0.83    3.79
  -5  -5  -9  239.61   16.74
  -5  -5  -8  225.38   15.65
  -5  -5  -7  385.12   20.21
  -5  -5  -6  206.02   14.04
  -5  -5  -5  448.01   18.28
  -5  -5  -5  442.37   17.13
  -5  -5  -5  436.56   20.51
  -5  -5  -5  440.90   17.24
  -5  -5  -4  227.83   12.68
  -5  -5  -4  273.91   12.13
  -5  -5  -4  256.31   14.84
  -5  -5  -4  261.76   12.25
  -5  -5  -3  109.47    7.00
  -5  -5  -3  115.03    8.76
  -5  -5  -3  107.52    9.37
  -5  -5  -3  111.45    7.39
  -5  -5  -2    3.06    1.47
  -5  -5  -2    1.71    2.19
  -5  -5  -2    2.93    1.71
  -5  -5  -1   33.76    5.16
  -5  -5  -1   35.48    3.59
  -5  -5  -1   32.28    4.83
  -5  -5   0   30.58    5.33
  -5  -5   0   30.79    4.65
  -5  -5   1  113.96    9.18
  -5  -5   1  116.54    8.43
  -5  -5   2   28.69    4.82
  -5  -5   2   22.08    4.08
  -5  -5   2   29.07    4.34
  -5  -5   3  381.31   17.38
  -5  -5   3  347.49   16.63
  -5  -5   3  382.14   15.60
  -5  -5   4  466.33   19.48
  -5  -5   4  447.88   19.39
  -5  -5   5  224.14   13.50
  -5  -5   6  655.53   25.01
  -5  -5   7  311.89   16.77
  -5  -5   8  375.23   18.97
  -5  -5   9  375.91   19.71
  -5  -5  10  434.67   21.91
  -5  -5  11  120.12   11.64
  -5  -5  12   35.95    6.94
  -5  -5  13  130.00   13.10
  -5  -5  14    5.57    4.10
  -5  -4  -9  260.16   16.82
  -5  -4  -8   17.78    4.62
  -5  -4  -7  327.30   17.52
  -5  -4  -6  379.55   16.94
  -5  -4  -6  383.28   16.98
  -5  -4  -6  390.82   18.66
  -5  -4  -6  396.55   15.88
  -5  -4  -5  232.52   12.38
  -5  -4  -5  247.76   13.24
  -5  -4  -5  249.22   14.19
  -5  -4  -5  258.48   11.77
  -5  -4  -4  444.51   18.18
  -5  -4  -4  461.88   17.08
  -5  -4  -4  442.51   18.97
  -5  -4  -4  453.23   15.52
  -5  -4  -3  629.60   22.39
  -5  -4  -3  651.62   20.29
  -5  -4  -3  655.44   23.26
  -5  -4  -3  652.67   18.69
  -5  -4  -2  519.60   16.98
  -5  -4  -2  515.47   19.87
  -5  -4  -2  510.97   15.39
  -5  -4  -1  309.17   14.66
  -5  -4  -1  322.99   12.21
  -5  -4  -1  299.70   14.56
  -5  -4   0  362.79   15.89
  -5  -4   0  350.89   15.37
  -5  -4   1    1.52    1.81
  -5  -4   1    3.66    2.37
  -5  -4   1   -1.79    2.25
  -5  -4   2    2.73    1.77
  -5  -4   2    1.25    2.04
  -5  -4   2    0.82    1.83
  -5  -4   3    0.28    1.71
  -5  -4   3    0.55    1.99
  -5  -4   3   -0.61    1.79
  -5  -4   4   39.91    5.23
  -5  -4   4   42.51    5.56
  -5  -4   5  217.58   12.18
  -5  -4   5  179.41   11.66
  -5  -4   6  322.85   15.42
  -5  -4   6  307.24   15.56
  -5  -4   7  275.23   15.07
  -5  -4   8  449.06   20.61
  -5  -4   9  184.67   13.18
  -5  -4  10  753.30   29.53
  -5  -4  11  595.92   26.48
  -5  -4  12  483.83   24.48
  -5  -4  13  112.62   12.09
  -5  -4  14  342.83   21.81
  -5  -3 -10    1.35    3.39
  -5  -3  -9   78.54   10.21
  -5  -3  -8    7.67    3.04
  -5  -3  -7  579.34   22.05
  -5  -3  -7  576.26   22.61
  -5  -3  -7  539.92   19.35
  -5  -3  -6  103.76    8.53
  -5  -3  -6   90.59    8.13
  -5  -3  -6  101.37    8.63
  -5  -3  -6  101.81    7.15
  -5  -3  -5  584.67   21.07
  -5  -3  -5  555.27   21.02
  -5  -3  -5  553.91   20.97
  -5  -3  -5  584.28   17.78
  -5  -3  -4  171.21   10.12
  -5  -3  -4  174.00   10.77
  -5  -3  -4  160.56   10.29
  -5  -3  -4  176.54    8.13
  -5  -3  -3  614.32   21.76
  -5  -3  -3  601.59   19.95
  -5  -3  -3  612.74   21.06
  -5  -3  -3  621.46   16.44
  -5  -3  -2  796.21   22.76
  -5  -3  -2  761.56   24.77
  -5  -3  -2  756.27   23.67
  -5  -3  -2  752.22   18.19
  -5  -3  -1  776.90   23.95
  -5  -3  -1  797.09   25.58
  -5  -3  -1  807.94   22.62
  -5  -3   0 1186.26   31.55
  -5  -3   0 1198.02   32.72
  -5  -3   0 1191.34   29.66
  -5  -3   1  849.28   25.78
  -5  -3   1  836.61   24.84
  -5  -3   1  818.03   25.32
  -5  -3   2   10.91    3.04
  -5  -3   2    9.69    2.79
  -5  -3   2   13.77    3.29
  -5  -3   3   36.39    4.57
  -5  -3   3   42.49    5.08
  -5  -3   3   46.85    5.33
  -5  -3   4  368.04   15.23
  -5  -3   4  345.21   15.22
  -5  -3   5    9.71    2.29
  -5  -3   5    5.87    2.52
  -5  -3   6   -2.22    2.31
  -5  -3   6    3.26    2.97
  -5  -3   7   -0.46    1.78
  -5  -3   7    0.33    2.29
  -5  -3   8  191.17   11.79
  -5  -3   8  187.90   12.53
  -5  -3   9  199.28   13.42
  -5  -3  10  217.66   14.55
  -5  -3  11  845.51   32.14
  -5  -3  12  558.26   26.25
  -5  -3  13  189.92   15.50
  -5  -3  14  291.70   19.77
  -5  -3  15  200.92   17.02
  -5  -2 -11   90.20   11.34
  -5  -2 -10    3.48    3.31
  -5  -2  -9    4.54    3.69
  -5  -2  -8    6.48    3.83
  -5  -2  -8    8.98    2.92
  -5  -2  -7  139.48   10.31
  -5  -2  -7  126.90    8.14
  -5  -2  -6    7.80    3.03
  -5  -2  -6    7.32    2.56
  -5  -2  -6    2.45    2.13
  -5  -2  -6    0.97    1.39
  -5  -2  -5   27.18    4.57
  -5  -2  -5   33.11    4.79
  -5  -2  -5   33.96    4.61
  -5  -2  -5   28.88    3.26
  -5  -2  -4  872.89   27.32
  -5  -2  -4  863.66   26.51
  -5  -2  -4  854.89   25.17
  -5  -2  -4  871.80   20.59
  -5  -2  -3   57.18    6.38
  -5  -2  -3   44.09    4.98
  -5  -2  -3   49.95    5.02
  -5  -2  -3   59.79    3.46
  -5  -2  -2  189.67    9.76
  -5  -2  -2  203.11   11.44
  -5  -2  -2  201.03   10.35
  -5  -2  -1 1153.56   29.72
  -5  -2  -1 1181.92   32.93
  -5  -2  -1 1209.00   30.65
  -5  -2   0  854.58   23.87
  -5  -2   0  868.80   26.43
  -5  -2   0  865.41   24.28
  -5  -2   1  914.93   25.63
  -5  -2   1  896.29   24.70
  -5  -2   1  906.51   27.00
  -5  -2   2  807.17   23.32
  -5  -2   2  804.07   23.43
  -5  -2   2  836.73   25.31
  -5  -2   3   41.97    4.58
  -5  -2   3   38.71    4.78
  -5  -2   3   38.86    5.09
  -5  -2   4   63.20    5.52
  -5  -2   4   30.07    4.44
  -5  -2   5  416.78   15.82
  -5  -2   5  424.58   16.96
  -5  -2   6   54.08    5.54
  -5  -2   6   40.86    5.52
  -5  -2   7    1.09    1.76
  -5  -2   7    1.16    2.64
  -5  -2   8   -1.05    1.94
  -5  -2   8   -2.21    2.91
  -5  -2   9  107.98    9.79
  -5  -2  10   58.70    7.77
  -5  -2  11  102.46   10.40
  -5  -2  12  446.50   23.02
  -5  -2  13  230.43   16.85
  -5  -2  14  646.39   30.45
  -5  -2  15  130.64   13.83
  -5  -1 -11  338.59   21.34
  -5  -1 -10  251.59   17.55
  -5  -1  -9  104.06   10.87
  -5  -1  -8   13.99    4.29
  -5  -1  -8   11.20    2.97
  -5  -1  -7  390.20   19.38
  -5  -1  -7  409.61   16.56
  -5  -1  -7  407.35   14.80
  -5  -1  -6   92.20    8.20
  -5  -1  -6   97.86    7.24
  -5  -1  -6   94.68    5.96
  -5  -1  -5   41.88    5.60
  -5  -1  -5   38.13    5.30
  -5  -1  -5   40.19    4.50
  -5  -1  -5   40.87    3.45
  -5  -1  -4    4.04    2.18
  -5  -1  -4    2.18    1.72
  -5  -1  -4    3.63    1.75
  -5  -1  -4    5.37    1.26
  -5  -1  -3  111.08    8.94
  -5  -1  -3  114.56    8.23
  -5  -1  -3  114.85    8.54
  -5  -1  -3   95.54    6.23
  -5  -1  -3  105.84    3.50
  -5  -1  -2  262.26   13.40
  -5  -1  -2  219.03    9.57
  -5  -1  -2  242.73   11.72
  -5  -1  -2  212.92   11.85
  -5  -1  -1  107.64    6.40
  -5  -1  -1   99.95    7.85
  -5  -1  -1   88.02    7.60
  -5  -1  -1   88.62    6.86
  -5  -1   0 1762.57   38.60
  -5  -1   0 1790.71   43.43
  -5  -1   0 1773.38   41.35
  -5  -1   1  332.47   12.63
  -5  -1   1  327.92   12.26
  -5  -1   1  328.41   14.74
  -5  -1   1  337.84   13.79
  -5  -1   2  858.41   23.10
  -5  -1   2  899.21   23.98
  -5  -1   2  928.14   27.02
  -5  -1   3  161.19    8.20
  -5  -1   3  152.99    8.67
  -5  -1   3  183.23   10.69
  -5  -1   4  561.72   17.49
  -5  -1   4  568.74   19.00
  -5  -1   5 1276.24   31.53
  -5  -1   5 1319.97   34.13
  -5  -1   6  451.77   16.31
  -5  -1   6  447.83   17.86
  -5  -1   7   38.39    4.70
  -5  -1   7   43.93    5.83
  -5  -1   8  199.68   11.38
  -5  -1   8  204.49   12.61
  -5  -1   9   96.23    8.12
  -5  -1   9  106.29    9.61
  -5  -1  10   64.72    8.01
  -5  -1  11    3.10    3.30
  -5  -1  12    9.58    4.45
  -5  -1  13   31.89    6.79
  -5  -1  14   60.08    9.03
  -5   0 -12  134.04   13.45
  -5   0 -11   96.12   11.10
  -5   0 -10  131.62   12.25
  -5   0  -9  387.92   20.47
  -5   0  -8  608.44   25.40
  -5   0  -8  671.75   20.91
  -5   0  -7  294.07   16.21
  -5   0  -7  326.41   12.60
  -5   0  -6  379.92   17.71
  -5   0  -6  413.88   13.29
  -5   0  -5   10.82    3.37
  -5   0  -5    4.76    2.33
  -5   0  -5    5.06    1.73
  -5   0  -5    8.82    1.67
  -5   0  -4  405.70   17.32
  -5   0  -4  389.97   16.88
  -5   0  -4  404.70   12.88
  -5   0  -4  393.72   10.03
  -5   0  -3    3.22    2.54
  -5   0  -3    3.52    1.41
  -5   0  -3    4.86    2.75
  -5   0  -3    4.77    2.35
  -5   0  -2   69.85    6.67
  -5   0  -2   59.19    4.22
  -5   0  -2   74.97    6.81
  -5   0  -2   60.92    6.41
  -5   0  -2   66.40    6.27
  -5   0  -1  225.27   11.51
  -5   0  -1  192.83    7.86
  -5   0  -1  209.56   11.03
  -5   0  -1  201.17   11.52
  -5   0  -1  194.96   11.06
  -5   0   0    1.83    1.60
  -5   0   0    6.57    1.78
  -5   0   0    5.63    3.13
  -5   0   0    4.40    2.33
  -5   0   1  823.62   20.92
  -5   0   1  823.60   21.02
  -5   0   1  826.08   24.85
  -5   0   1  858.01   25.76
  -5   0   2   54.53    4.11
  -5   0   2   50.71    4.49
  -5   0   2   52.74    5.79
  -5   0   3  218.03    8.82
  -5   0   3  246.61   10.63
  -5   0   3  225.43   12.23
  -5   0   4 2788.52   55.51
  -5   0   4 2834.94   58.82
  -5   0   5  412.42   13.99
  -5   0   5  417.50   16.17
  -5   0   6   50.40    4.75
  -5   0   6   44.53    5.42
  -5   0   7  391.00   15.29
  -5   0   7  402.47   17.37
  -5   0   8  597.84   20.45
  -5   0   8  561.29   22.25
  -5   0   9  375.29   16.50
  -5   0   9  377.35   18.37
  -5   0  10  831.01   30.28
  -5   0  11   -1.60    3.35
  -5   0  12   18.64    5.35
  -5   0  13    3.45    3.34
  -5   0  14    1.45    3.36
  -5   1 -12  232.07   17.57
  -5   1 -11  157.65   13.92
  -5   1 -10  107.67   10.94
  -5   1  -9  334.91   18.43
  -5   1  -8  458.87   20.84
  -5   1  -8  459.91   16.64
  -5   1  -7  147.90   10.68
  -5   1  -7  153.07    8.20
  -5   1  -6   26.55    4.55
  -5   1  -6   20.68    2.73
  -5   1  -5  884.45   28.54
  -5   1  -5  845.28   27.88
  -5   1  -5  847.20   26.09
  -5   1  -5  852.43   20.06
  -5   1  -4  211.27   12.49
  -5   1  -4  214.91   10.79
  -5   1  -4  217.15   12.35
  -5   1  -4  197.29   11.82
  -5   1  -4  202.42    7.19
  -5   1  -4  205.58    6.54
  -5   1  -3 1005.01   29.39
  -5   1  -3  947.72   20.25
  -5   1  -3  954.16   28.75
  -5   1  -3  935.87   28.75
  -5   1  -2 1483.26   37.61
  -5   1  -2 1462.03   28.72
  -5   1  -2 1424.22   37.50
  -5   1  -2 1496.27   38.41
  -5   1  -2 1427.17   38.46
  -5   1  -1    0.76    1.42
  -5   1  -1    1.97    1.12
  -5   1  -1   -0.42    1.78
  -5   1  -1    4.36    2.41
  -5   1  -1   -0.04    2.13
  -5   1   0   16.31    3.03
  -5   1   0   18.23    2.13
  -5   1   0   18.53    4.12
  -5   1   0   17.89    3.27
  -5   1   0   22.35    3.82
  -5   1   1   42.54    4.42
  -5   1   1   43.55    3.18
  -5   1   1   44.75    3.64
  -5   1   1   51.00    5.47
  -5   1   1   46.71    5.46
  -5   1   2  488.64   12.77
  -5   1   2  495.87   15.46
  -5   1   2  473.39   14.67
  -5   1   2  491.57   18.74
  -5   1   3  159.08    6.47
  -5   1   3  151.10    8.01
  -5   1   3  165.42   10.51
  -5   1   4  548.86   15.05
  -5   1   4  553.57   18.06
  -5   1   5  384.25   12.73
  -5   1   5  382.11   15.29
  -5   1   6  120.45    7.14
  -5   1   6  115.39    8.47
  -5   1   7  394.15   14.86
  -5   1   7  394.25   17.24
  -5   1   8  487.83   17.95
  -5   1   8  472.40   20.10
  -5   1   9  939.00   28.49
  -5   1   9  882.50   30.59
  -5   1  10  521.13   23.30
  -5   1  11  598.09   26.30
  -5   1  12   43.62    7.27
  -5   1  13   65.39    9.13
  -5   1  14  146.19   14.25
  -5   2 -13   36.43    7.54
  -5   2 -12   -2.19    3.11
  -5   2 -11   66.10    8.98
  -5   2 -10   67.61    8.40
  -5   2  -9   80.57    8.56
  -5   2  -9   73.40    6.63
  -5   2  -8  984.64   32.21
  -5   2  -8 1020.00   27.65
  -5   2  -7  662.14   23.81
  -5   2  -7  638.75   19.30
  -5   2  -6  626.68   21.69
  -5   2  -6  581.05   16.98
  -5   2  -5  493.89   17.92
  -5   2  -4  712.43   24.88
  -5   2  -4  761.31   25.48
  -5   2  -4  763.36   25.39
  -5   2  -4  672.95   20.83
  -5   2  -4  717.29   17.02
  -5   2  -3  411.25   17.44
  -5   2  -3  397.62   17.12
  -5   2  -3  402.55   16.99
  -5   2  -3  409.00   13.81
  -5   2  -3  404.93   10.27
  -5   2  -2 3016.58   63.44
  -5   2  -2 2739.67   62.33
  -5   2  -2 2912.45   62.85
  -5   2  -2 2825.86   54.92
  -5   2  -2 2840.20   61.46
  -5   2  -2 2790.01   50.31
  -5   2  -1 1295.07   32.80
  -5   2  -1 1297.35   34.62
  -5   2  -1 1290.14   34.28
  -5   2  -1 1290.40   34.67
  -5   2  -1 1234.44   23.65
  -5   2  -1 1264.56   24.23
  -5   2   0  577.55   18.44
  -5   2   0  570.41   13.35
  -5   2   0  572.96   20.53
  -5   2   0  627.63   21.15
  -5   2   0  551.14   19.78
  -5   2   0  562.36   13.44
  -5   2   0  541.27   13.10
  -5   2   1 1330.15   31.61
  -5   2   1 1335.80   25.34
  -5   2   1 1355.04   35.72
  -5   2   1 1374.10   36.05
  -5   2   1 1360.10   34.96
  -5   2   1 1386.70   28.62
  -5   2   1 1285.36   27.76
  -5   2   2  234.33    6.35
  -5   2   2  228.65    9.49
  -5   2   2  241.40   12.66
  -5   2   2  242.52    9.42
  -5   2   2  242.19    8.99
  -5   2   3   14.51    1.66
  -5   2   3   14.61    2.23
  -5   2   3   13.04    2.51
  -5   2   4   50.03    3.46
  -5   2   4   54.81    5.19
  -5   2   5    3.56    1.44
  -5   2   5    9.50    2.97
  -5   2   6  245.80   10.24
  -5   2   6  219.35   12.06
  -5   2   7  159.52    8.81
  -5   2   7  168.68   11.55
  -5   2   8   10.86    3.24
  -5   2   9  552.10   23.21
  -5   2  10  405.75   20.38
  -5   2  11  254.39   16.68
  -5   2  12  636.30   28.69
  -5   2  13  161.41   14.48
  -5   2  14  195.24   16.69
  -5   3 -13   -0.42    3.36
  -5   3 -12  366.84   21.60
  -5   3 -11    6.27    3.68
  -5   3 -10   21.87    5.12
  -5   3  -9   43.30    6.66
  -5   3  -9   42.54    5.20
  -5   3  -8    2.53    2.68
  -5   3  -7  342.33   15.99
  -5   3  -6  115.85    8.37
  -5   3  -5   94.33    7.00
  -5   3  -5   84.03    5.51
  -5   3  -4 1167.03   34.01
  -5   3  -4 1150.77   34.11
  -5   3  -4 1197.31   33.84
  -5   3  -4 1105.78   28.04
  -5   3  -4 1109.42   25.67
  -5   3  -3 1158.59   33.43
  -5   3  -3 1163.76   33.23
  -5   3  -3 1174.52   33.36
  -5   3  -3 1105.51   26.33
  -5   3  -3 1179.96   32.66
  -5   3  -3 1103.07   24.84
  -5   3  -2  405.27   17.07
  -5   3  -2  426.01   17.79
  -5   3  -2  420.41   17.43
  -5   3  -2  424.15   16.68
  -5   3  -2  391.61   11.60
  -5   3  -2  410.49   11.67
  -5   3  -1 1209.36   33.20
  -5   3  -1 1207.46   32.99
  -5   3  -1 1139.64   33.00
  -5   3  -1 1170.49   23.36
  -5   3  -1 1181.86   31.00
  -5   3  -1 1163.64   25.31
  -5   3   0  556.25   18.30
  -5   3   0  593.17   20.96
  -5   3   0  599.36   21.43
  -5   3   0  594.69   20.58
  -5   3   0  569.74   13.41
  -5   3   0  588.50   13.52
  -5   3   0  584.00   15.42
  -5   3   1   60.49    5.08
  -5   3   1   76.48    7.15
  -5   3   1   57.37    5.80
  -5   3   1   69.57    6.91
  -5   3   1   58.13    3.88
  -5   3   1   64.47    4.08
  -5   3   1   59.81    4.41
  -5   3   2 1384.06   30.86
  -5   3   2 1321.03   34.50
  -5   3   2 1375.07   36.71
  -5   3   2 1357.67   30.37
  -5   3   2 1343.87   30.37
  -5   3   2 1329.51   30.93
  -5   3   3   76.66    4.70
  -5   3   3   70.88    6.34
  -5   3   3   90.68    6.14
  -5   3   3   77.30    5.71
  -5   3   3   78.65    5.78
  -5   3   4  390.98   10.89
  -5   3   4  412.59   15.17
  -5   3   4  392.75   14.87
  -5   3   4  386.01   14.84
  -5   3   5  106.05    7.82
  -5   3   5  111.59    8.09
  -5   3   5  113.41    8.04
  -5   3   6    2.89    2.25
  -5   3   6   -0.50    2.15
  -5   3   7    9.34    2.95
  -5   3   8   58.54    7.02
  -5   3   9   76.90    8.49
  -5   3  10  290.98   17.41
  -5   3  11  118.38   11.72
  -5   3  12  122.44   12.28
  -5   3  13  438.71   24.67
  -5   4 -13  183.42   15.73
  -5   4 -12   98.80   11.00
  -5   4 -11  114.36   11.34
  -5   4 -10   54.17    7.47
  -5   4  -9   18.95    4.87
  -5   4  -8  128.06    9.96
  -5   4  -7   13.46    3.43
  -5   4  -6  254.15   12.42
  -5   4  -6  258.00   11.49
  -5   4  -5   47.21    4.85
  -5   4  -5   49.60    4.51
  -5   4  -4   61.70    6.67
  -5   4  -4   69.03    5.19
  -5   4  -4   62.43    6.79
  -5   4  -4   71.09    5.21
  -5   4  -3 1158.63   33.87
  -5   4  -3 1160.07   33.33
  -5   4  -3 1215.66   34.90
  -5   4  -3 1173.43   33.13
  -5   4  -3 1144.41   26.16
  -5   4  -3 1143.24   27.31
  -5   4  -2  163.27   10.49
  -5   4  -2  178.88   11.00
  -5   4  -2  166.41   10.88
  -5   4  -2  166.71   10.10
  -5   4  -2  162.89    6.14
  -5   4  -2  162.85    7.65
  -5   4  -1   38.17    5.00
  -5   4  -1   34.80    4.94
  -5   4  -1   30.39    4.59
  -5   4  -1   45.41    5.05
  -5   4  -1   32.10    3.35
  -5   4   0 1634.52   38.24
  -5   4   0 1578.93   41.81
  -5   4   0 1651.36   40.94
  -5   4   0 1653.00   41.37
  -5   4   0 1655.48   31.95
  -5   4   0 1578.34   31.93
  -5   4   0 1626.74   35.73
  -5   4   1  611.89   18.59
  -5   4   1  648.91   22.22
  -5   4   1  605.19   20.89
  -5   4   1  644.56   22.93
  -5   4   1  607.10   16.18
  -5   4   1  627.20   16.49
  -5   4   1  603.12   18.17
  -5   4   2  395.95   13.33
  -5   4   2  397.37   15.94
  -5   4   2  394.60   13.43
  -5   4   2  408.32   14.65
  -5   4   2  417.62   13.59
  -5   4   3  449.34   13.32
  -5   4   3  433.49   16.56
  -5   4   3  445.70   15.47
  -5   4   3  446.57   15.41
  -5   4   3  439.17   16.12
  -5   4   4   33.98    2.82
  -5   4   4   33.72    4.42
  -5   4   4   32.61    4.18
  -5   4   4   30.17    4.14
  -5   4   4   29.90    4.21
  -5   4   5  140.03    4.56
  -5   4   5  129.91    8.35
  -5   4   5  143.09    9.38
  -5   4   5  134.99    9.31
  -5   4   5  117.64    8.56
  -5   4   6    0.53    1.80
  -5   4   6    2.67    2.85
  -5   4   6    0.85    2.08
  -5   4   7  178.78   11.86
  -5   4   7  180.30   11.92
  -5   4   8  114.55    9.91
  -5   4   9   55.30    7.55
  -5   4  10   91.00    9.81
  -5   4  11  114.18   11.70
  -5   4  12   22.42    5.82
  -5   4  13   79.62   10.56
  -5   5 -13  288.32   19.52
  -5   5 -12  394.13   21.99
  -5   5 -11  244.07   16.31
  -5   5 -10  288.44   16.78
  -5   5  -9  628.73   24.72
  -5   5  -8  257.44   14.18
  -5   5  -8  280.02   13.87
  -5   5  -7   23.91    4.16
  -5   5  -7   20.34    3.65
  -5   5  -6   73.36    6.42
  -5   5  -6   60.16    5.72
  -5   5  -5   33.73    4.08
  -5   5  -5   32.15    4.13
  -5   5  -4   49.25    6.03
  -5   5  -4   54.27    4.49
  -5   5  -4   49.27    4.86
  -5   5  -3  102.67    8.45
  -5   5  -3  108.18    8.61
  -5   5  -3   99.00    5.33
  -5   5  -3  108.61    6.89
  -5   5  -2  702.98   25.04
  -5   5  -2  686.89   23.56
  -5   5  -2  711.11   24.49
  -5   5  -2  696.92   23.10
  -5   5  -2  672.85   15.39
  -5   5  -2  659.73   19.92
  -5   5  -1  109.65    7.79
  -5   5  -1   99.23    8.56
  -5   5  -1   87.37    7.55
  -5   5  -1  106.11    8.42
  -5   5  -1  103.18    4.09
  -5   5  -1   99.07    4.15
  -5   5  -1   97.78    6.71
  -5   5   0   30.21    4.05
  -5   5   0   29.56    4.73
  -5   5   0   26.46    4.46
  -5   5   0   26.52    4.29
  -5   5   0   29.99    2.77
  -5   5   0   29.98    2.76
  -5   5   0   35.19    4.15
  -5   5   1 1904.59   42.60
  -5   5   1 1944.14   48.57
  -5   5   1 1917.84   45.63
  -5   5   1 1965.08   47.23
  -5   5   1 1858.02   40.08
  -5   5   1 1929.65   43.51
  -5   5   1 1921.17   39.98
  -5   5   2  142.95    7.66
  -5   5   2  142.14    9.03
  -5   5   2  145.87    7.95
  -5   5   2  140.32    7.75
  -5   5   2  136.23    8.67
  -5   5   3  447.26   14.06
  -5   5   3  448.28   17.08
  -5   5   3  448.63   16.34
  -5   5   3  502.30   16.88
  -5   5   3  455.62   17.51
  -5   5   4 1393.44   29.62
  -5   5   4 1368.45   34.70
  -5   5   4 1446.31   36.29
  -5   5   4 1374.50   35.52
  -5   5   4 1363.12   36.73
  -5   5   5   22.91    2.13
  -5   5   5   23.36    3.59
  -5   5   5   25.36    4.20
  -5   5   5   20.88    3.93
  -5   5   5   16.55    3.66
  -5   5   6    2.04    1.83
  -5   5   6    3.12    2.32
  -5   5   6   -0.13    2.54
  -5   5   7  892.02   24.96
  -5   5   7  867.95   29.69
  -5   5   7  882.09   30.35
  -5   5   8   85.77    6.57
  -5   5   8   77.42    8.59
  -5   5   8   87.21    8.88
  -5   5   9  308.10   12.74
  -5   5   9  273.13   16.92
  -5   5  10  118.21   11.63
  -5   5  11   39.41    7.25
  -5   5  12   12.28    4.80
  -5   6 -13   50.55    8.39
  -5   6 -12  300.98   18.96
  -5   6 -11  200.55   14.67
  -5   6 -10  343.62   18.44
  -5   6  -9  439.06   20.15
  -5   6  -9  479.23   20.32
  -5   6  -8  906.24   29.25
  -5   6  -8  913.68   29.17
  -5   6  -7   33.87    4.94
  -5   6  -7   30.34    4.74
  -5   6  -6  418.60   16.26
  -5   6  -6  407.09   16.82
  -5   6  -5  892.93   29.38
  -5   6  -5  878.14   24.25
  -5   6  -5  857.23   26.00
  -5   6  -4  115.68    9.31
  -5   6  -4  123.30    6.87
  -5   6  -4  119.51    8.22
  -5   6  -3 1284.19   35.76
  -5   6  -3 1297.96   28.03
  -5   6  -3 1241.20   32.80
  -5   6  -3 1236.32   35.82
  -5   6  -2   75.24    3.87
  -5   6  -2   65.37    6.77
  -5   6  -2   68.93    3.28
  -5   6  -2   63.56    5.91
  -5   6  -2   65.09    3.15
  -5   6  -2   66.05    6.66
  -5   6  -1  103.29    8.49
  -5   6  -1  114.02    9.56
  -5   6  -1  110.20    8.63
  -5   6  -1  106.24    5.31
  -5   6  -1  114.17    7.89
  -5   6  -1  116.15    8.33
  -5   6  -1  110.63    5.26
  -5   6   0    3.09    1.75
  -5   6   0    1.78    2.19
  -5   6   0    2.24    1.79
  -5   6   0    0.36    1.89
  -5   6   0    0.83    1.24
  -5   6   0    0.36    1.07
  -5   6   0    0.86    1.79
  -5   6   1    2.14    1.69
  -5   6   1    5.77    2.72
  -5   6   1    1.17    1.30
  -5   6   1    0.93    1.32
  -5   6   1    1.84    2.25
  -5   6   2  842.60   25.48
  -5   6   2  849.18   24.01
  -5   6   2  825.81   23.58
  -5   6   2  814.36   22.96
  -5   6   2  852.19   26.25
  -5   6   3   44.20    4.96
  -5   6   3   55.50    5.65
  -5   6   3   49.41    4.33
  -5   6   3   50.86    5.79
  -5   6   3   45.07    5.12
  -5   6   4  469.97   16.87
  -5   6   4  465.41   18.27
  -5   6   4  453.77   19.20
  -5   6   4  431.56   17.61
  -5   6   4  444.23   13.75
  -5   6   5  414.66   15.65
  -5   6   5  424.74   18.30
  -5   6   5  409.93   17.93
  -5   6   5  424.51   12.16
  -5   6   5  428.99   19.16
  -5   6   6   79.20    6.20
  -5   6   6   89.15    3.83
  -5   6   6   81.84    8.13
  -5   6   6   84.16    8.58
  -5   6   7  407.79   14.77
  -5   6   7  401.08   19.47
  -5   6   7  398.83   19.89
  -5   6   8  475.57   15.87
  -5   6   8  458.44   22.43
  -5   6   8  470.58   22.21
  -5   6   9  370.23   20.87
  -5   6   9  454.45   22.54
  -5   6  10   90.67   10.46
  -5   6  11   82.38   10.62
  -5   6  12  121.47   13.09
  -5   7 -13   24.62    5.65
  -5   7 -12   18.96    4.85
  -5   7 -12   20.73    5.12
  -5   7 -11  138.56   12.21
  -5   7 -11  159.16   12.70
  -5   7 -10  175.57   13.08
  -5   7 -10  177.60   12.90
  -5   7  -9  407.41   19.12
  -5   7  -9  372.56   18.59
  -5   7  -8  663.99   24.25
  -5   7  -8  647.96   24.60
  -5   7  -7  702.83   23.68
  -5   7  -7  695.62   25.04
  -5   7  -6  488.13   21.17
  -5   7  -6  492.06   17.98
  -5   7  -6  490.27   19.84
  -5   7  -5  892.98   29.49
  -5   7  -5  891.23   24.75
  -5   7  -5  892.69   27.96
  -5   7  -4  211.13    9.38
  -5   7  -4  191.04   12.12
  -5   7  -4  201.03    5.26
  -5   7  -4  201.70   11.71
  -5   7  -3 1262.21   28.30
  -5   7  -3 1241.17   35.41
  -5   7  -3 1267.48   25.47
  -5   7  -3 1237.73   34.28
  -5   7  -2  193.05   11.57
  -5   7  -2  188.09    7.42
  -5   7  -2  172.58   10.70
  -5   7  -2  192.85   11.84
  -5   7  -1  781.68   25.59
  -5   7  -1  766.00   20.06
  -5   7  -1  730.05   24.43
  -5   7  -1  791.86   25.39
  -5   7   0  353.00   16.07
  -5   7   0  338.70   12.73
  -5   7   0  318.28   15.17
  -5   7   0  336.29   14.96
  -5   7   1  209.76   10.43
  -5   7   1  220.69   12.57
  -5   7   1  238.06   11.73
  -5   7   2  105.29    8.02
  -5   7   2  105.32    7.75
  -5   7   2   96.98    8.38
  -5   7   2  104.86    7.34
  -5   7   3   53.23    5.63
  -5   7   3   48.00    5.52
  -5   7   3   51.66    4.93
  -5   7   3   55.11    5.98
  -5   7   3   56.18    6.81
  -5   7   4    1.98    1.41
  -5   7   4    0.57    1.60
  -5   7   4   -0.69    1.61
  -5   7   4    3.42    2.51
  -5   7   4    4.60    3.05
  -5   7   5   84.08    6.52
  -5   7   5   83.70    5.32
  -5   7   5   72.56    8.23
  -5   7   5   92.44    8.60
  -5   7   6  478.17   16.17
  -5   7   6  421.56   20.00
  -5   7   6  463.56   21.77
  -5   7   6  464.94   12.95
  -5   7   7  117.39    7.07
  -5   7   7  119.99    4.37
  -5   7   7  114.42   10.51
  -5   7   7  121.88   11.13
  -5   7   8  100.01   10.27
  -5   7   8   96.39   10.56
  -5   7   9  478.42   24.91
  -5   7   9  511.03   25.07
  -5   7  10  143.92   13.39
  -5   7  11  184.50   15.84
  -5   8 -13   63.96    9.18
  -5   8 -13   68.71    9.55
  -5   8 -12    1.68    3.55
  -5   8 -12   -4.77    4.16
  -5   8 -11    6.77    3.91
  -5   8 -11    3.46    2.91
  -5   8 -10   65.48    7.91
  -5   8 -10   67.62    8.34
  -5   8  -9   74.65    8.17
  -5   8  -9   67.80    8.17
  -5   8  -8   35.47    5.18
  -5   8  -8   36.30    5.92
  -5   8  -7  233.86   14.57
  -5   8  -7  232.16   12.62
  -5   8  -7  204.93   13.35
  -5   8  -6  234.44   14.12
  -5   8  -6  254.85   12.39
  -5   8  -6  240.46    6.93
  -5   8  -6  248.47   14.38
  -5   8  -5  331.03   13.64
  -5   8  -5  344.87   16.86
  -5   8  -5  341.38    9.35
  -5   8  -5  319.96   16.28
  -5   8  -4  708.41   20.04
  -5   8  -4  645.59   23.83
  -5   8  -4  656.62   16.23
  -5   8  -4  653.61   24.26
  -5   8  -3 1052.01   31.51
  -5   8  -3 1031.78   24.17
  -5   8  -3 1064.25   32.16
  -5   8  -2   46.72    5.77
  -5   8  -2   43.36    4.02
  -5   8  -2   42.61    5.77
  -5   8  -1  627.80   22.50
  -5   8  -1  556.72   17.84
  -5   8  -1  624.82   22.75
  -5   8  -1  600.44   22.67
  -5   8   0  248.42   11.55
  -5   8   0  244.15   13.85
  -5   8   0  243.16   12.94
  -5   8   1    1.63    1.65
  -5   8   1    8.61    2.69
  -5   8   1    4.37    2.76
  -5   8   2  151.62    9.88
  -5   8   2  140.15   10.87
  -5   8   2  141.31    9.20
  -5   8   3   10.35    2.63
  -5   8   3    7.95    3.13
  -5   8   3    9.00    3.26
  -5   8   4   -0.19    1.35
  -5   8   4    1.36    2.59
  -5   8   4    0.30    2.02
  -5   8   5   89.99    9.68
  -5   8   5   79.28    5.75
  -5   8   5   86.81    8.69
  -5   8   6    4.48    3.49
  -5   8   6    0.19    2.35
  -5   8   7  192.91   14.17
  -5   8   7  205.83   15.32
  -5   8   8   50.91    8.19
  -5   8   8   47.22    7.55
  -5   8   9  177.98   15.33
  -5   8   9  139.91   13.37
  -5   8  10  176.09   15.26
  -5   8  10  191.09   16.41
  -5   9 -13  205.44   16.53
  -5   9 -13  205.00   16.75
  -5   9 -12   49.71    8.15
  -5   9 -12   43.87    7.78
  -5   9 -11   13.32    4.82
  -5   9 -11    4.79    3.43
  -5   9 -10   26.33    5.19
  -5   9 -10   24.18    5.48
  -5   9  -9   62.71    8.03
  -5   9  -9   63.23    7.52
  -5   9  -9   49.32    7.24
  -5   9  -8   52.09    7.12
  -5   9  -8   50.13    6.41
  -5   9  -8   46.03    7.00
  -5   9  -7    5.30    2.49
  -5   9  -7    4.54    2.92
  -5   9  -7    4.30    3.00
  -5   9  -6  317.12   16.43
  -5   9  -6  296.65   14.03
  -5   9  -6  250.73   15.53
  -5   9  -5   80.99    8.05
  -5   9  -5   78.84    6.61
  -5   9  -5   87.01    8.74
  -5   9  -4  130.16    7.91
  -5   9  -4  137.36   10.12
  -5   9  -4  130.36    6.85
  -5   9  -4  125.50   10.38
  -5   9  -3  204.41   12.20
  -5   9  -3  181.62    8.87
  -5   9  -3  198.34   13.14
  -5   9  -2   66.10    6.97
  -5   9  -2   68.50    5.65
  -5   9  -2   72.70    8.04
  -5   9  -1  163.68    9.39
  -5   9  -1  157.52   11.78
  -5   9   0  895.00   27.10
  -5   9   0  956.39   31.91
  -5   9   1  235.20   12.79
  -5   9   1  251.85   15.38
  -5   9   2  218.82   12.83
  -5   9   2  198.58   13.85
  -5   9   3   49.89    7.20
  -5   9   4   53.24    7.53
  -5   9   5    1.22    2.82
  -5   9   5    5.68    2.94
  -5   9   6    2.17    2.80
  -5   9   6    4.32    3.05
  -5   9   7   77.47    9.44
  -5   9   7   76.83    9.70
  -5   9   8    9.79    4.19
  -5   9   8    5.17    3.70
  -5   9   9   23.47    5.76
  -5   9   9   33.16    6.62
  -5  10 -12  507.93   26.53
  -5  10 -11  478.56   24.37
  -5  10 -11  473.48   23.67
  -5  10 -11  542.29   26.83
  -5  10 -10  171.11   13.61
  -5  10 -10  174.45   13.30
  -5  10 -10  152.05   13.56
  -5  10  -9  174.66   13.23
  -5  10  -9  178.65   12.77
  -5  10  -9  156.11   13.47
  -5  10  -8   36.37    6.04
  -5  10  -8   28.68    4.95
  -5  10  -8   23.78    5.72
  -5  10  -7    2.21    2.31
  -5  10  -7    9.76    3.58
  -5  10  -7    9.24    3.54
  -5  10  -6   49.13    6.42
  -5  10  -6   49.33    5.75
  -5  10  -6   46.38    7.29
  -5  10  -5   -0.31    2.46
  -5  10  -5   -1.87    2.13
  -5  10  -5    6.51    3.40
  -5  10  -4   -0.47    2.68
  -5  10  -4    7.03    3.53
  -5  10  -3   24.04    4.54
  -5  10  -3   30.70    5.94
  -5  10  -2  363.71   15.07
  -5  10  -2  350.56   18.84
  -5  10  -1  150.27    9.76
  -5  10  -1  147.43   11.97
  -5  10   0  173.18   11.10
  -5  10   0  196.35   14.03
  -5  10   1  737.80   29.34
  -5  10   2  182.29   13.97
  -5  10   3  198.55   14.84
  -5  10   4  279.77   18.21
  -5  10   5  315.66   19.88
  -5  10   6   56.45    7.98
  -5  10   6   48.10    8.27
  -5  10   7   95.66   11.28
  -5  10   7   89.16   10.66
  -5  10   8   71.25   10.12
  -5  10   8   65.31    9.22
  -5  11 -11  241.15   18.04
  -5  11 -10  283.66   19.25
  -5  11  -9  188.09   15.43
  -5  11  -8  808.11   29.14
  -5  11  -8  792.37   28.50
  -5  11  -8  750.64   31.97
  -5  11  -7   48.20    6.52
  -5  11  -7   52.75    6.60
  -5  11  -7   39.81    7.22
  -5  11  -6  121.32    9.79
  -5  11  -6  112.82    9.02
  -5  11  -6  107.09   10.92
  -5  11  -5  510.78   20.54
  -5  11  -5  462.74   23.52
  -5  11  -4   53.77    6.27
  -5  11  -4   44.28    6.96
  -5  11  -3   -0.29    3.24
  -5  11  -2   21.58    5.62
  -5  11  -1  104.07   10.81
  -5  11   0    0.84    3.56
  -5  11   1   91.93   10.49
  -5  11   2  207.11   15.65
  -5  11   3  172.53   14.68
  -5  11   4  311.19   20.17
  -5  11   5  213.91   17.05
  -5  11   6  224.31   17.69
  -5  11   7   85.46   10.70
  -5  12 -10  197.09   16.75
  -5  12  -9  110.68   12.77
  -5  12  -8  148.80   14.12
  -5  12  -7  408.08   23.27
  -5  12  -6   98.35   11.38
  -5  12  -5  179.07   14.92
  -5  12  -4  351.89   21.10
  -5  12  -3   22.25    7.79
  -5  12  -2  106.38   11.39
  -5  12  -1  166.04   14.36
  -5  12   0    3.88    3.03
  -5  12   1    8.92    4.88
  -5  12   2   10.08    4.41
  -5  12   3  111.81   12.16
  -5  12   4   79.45   10.47
  -5  13  -8   77.65   10.67
  -5  13  -7  154.49   14.70
  -5  13  -6  348.19   22.20
  -5  13  -5   97.35   11.79
  -5  13  -4  152.80   14.39
  -5  13  -3  294.71   19.96
  -5  13  -2   67.52    9.86
  -5  13  -1  197.85   16.68
  -5  13   0   59.34    9.29
  -5  13   1    5.55    3.74
  -5  13   2    0.83    3.78
  -4 -12   1    4.87    4.70
  -4 -12   2   -3.49    3.69
  -4 -12   3  309.24   21.02
  -4 -12   4  159.37   15.03
  -4 -12   5  115.68   12.89
  -4 -12   6   59.54    9.40
  -4 -12   7  164.36   15.48
  -4 -12   8  172.38   16.10
  -4 -11  -2  120.64   13.35
  -4 -11  -1  140.72   13.93
  -4 -11   0   73.31   10.06
  -4 -11   1   63.90    9.40
  -4 -11   2   49.40    8.24
  -4 -11   3    5.51    3.67
  -4 -11   4   60.87    9.27
  -4 -11   5    9.01    4.88
  -4 -11   6   43.80    7.71
  -4 -11   7  191.47   16.07
  -4 -11   8  127.37   13.26
  -4 -11   9  173.29   15.59
  -4 -11  10  169.16   15.37
  -4 -10  -4  108.07   12.26
  -4 -10  -3  389.00   23.31
  -4 -10  -2  266.87   18.78
  -4 -10  -1  345.31   21.08
  -4 -10   0  597.22   28.08
  -4 -10   1  302.64   19.31
  -4 -10   2  342.44   20.37
  -4 -10   3   84.19   10.10
  -4 -10   4  241.27   16.97
  -4 -10   5   15.29    5.13
  -4 -10   6   10.43    4.78
  -4 -10   7   11.42    4.33
  -4 -10   8    4.81    4.46
  -4 -10   9  112.93   12.00
  -4 -10  10    4.52    3.90
  -4 -10  11  127.39   13.29
  -4 -10  12  344.02   22.42
  -4  -9  -6    2.73    3.56
  -4  -9  -5  123.95   12.85
  -4  -9  -4  182.24   15.22
  -4  -9  -3  229.78   16.77
  -4  -9  -2   46.66    5.45
  -4  -9  -2   54.22    8.31
  -4  -9  -1  327.70   14.08
  -4  -9  -1  305.94   18.82
  -4  -9   0  673.14   20.56
  -4  -9   0  659.85   28.45
  -4  -9   1  783.54   21.47
  -4  -9   1  743.90   30.25
  -4  -9   2  794.85   31.14
  -4  -9   3  841.77   32.12
  -4  -9   4  554.06   25.23
  -4  -9   5  495.29   23.77
  -4  -9   6  221.70   15.69
  -4  -9   7   27.15    5.68
  -4  -9   8  103.51   10.80
  -4  -9   9    1.60    2.82
  -4  -9  10   53.88    8.25
  -4  -9  11    2.73    3.47
  -4  -9  12  223.11   17.50
  -4  -9  13   23.07    5.62
  -4  -8  -8   78.30   10.32
  -4  -8  -7   78.89   10.26
  -4  -8  -6   -4.61    3.80
  -4  -8  -5  100.37   11.02
  -4  -8  -4   99.71   10.88
  -4  -8  -3   55.72    7.91
  -4  -8  -2    1.43    3.37
  -4  -8  -1  660.33   21.54
  -4  -8  -1  633.36   26.77
  -4  -8   0  613.53   19.59
  -4  -8   0  573.01   24.98
  -4  -8   1 1031.95   26.50
  -4  -8   1  968.09   33.92
  -4  -8   2 1017.45   25.57
  -4  -8   2  984.88   33.90
  -4  -8   3  429.52   20.90
  -4  -8   4  427.05   20.81
  -4  -8   5 1155.55   37.59
  -4  -8   6  908.06   32.57
  -4  -8   7 1245.22   40.08
  -4  -8   8  493.54   23.50
  -4  -8   9  653.51   28.14
  -4  -8  10   68.88    9.01
  -4  -8  11  155.60   13.80
  -4  -8  12    9.54    4.16
  -4  -8  13    2.44    3.47
  -4  -8  14  117.17   12.96
  -4  -7  -9   74.55   10.26
  -4  -7  -8  110.59   11.80
  -4  -7  -7  175.63   15.34
  -4  -7  -6   58.79    8.40
  -4  -7  -5   55.84    8.10
  -4  -7  -4  347.63   14.17
  -4  -7  -4  322.90   18.44
  -4  -7  -3   33.97    2.62
  -4  -7  -3   21.00    5.13
  -4  -7  -3   30.81    4.88
  -4  -7  -2   48.99    7.15
  -4  -7  -2   42.01    5.42
  -4  -7  -1   21.09    3.68
  -4  -7  -1   19.99    4.92
  -4  -7  -1   20.12    3.84
  -4  -7   0   85.45    6.56
  -4  -7   0   80.43    8.42
  -4  -7   1   24.97    3.50
  -4  -7   1   23.04    4.57
  -4  -7   2  445.13   15.03
  -4  -7   2  413.15   19.50
  -4  -7   3  114.57    9.98
  -4  -7   4 1156.86   35.92
  -4  -7   5  299.60   16.31
  -4  -7   6  216.12   13.87
  -4  -7   7  161.58   12.28
  -4  -7   8  239.61   15.52
  -4  -7   9  148.89   12.50
  -4  -7  10  313.81   18.77
  -4  -7  11   83.28    9.88
  -4  -7  12  419.08   22.98
  -4  -7  13   81.83   10.54
  -4  -7  14    0.21    3.01
  -4  -6 -10  171.64   14.99
  -4  -6  -9  685.93   30.49
  -4  -6  -8  235.85   16.49
  -4  -6  -7  118.69   11.39
  -4  -6  -6  381.11   20.10
  -4  -6  -5  292.95   12.24
  -4  -6  -5  278.83   12.51
  -4  -6  -5  287.45   16.79
  -4  -6  -5  283.18   14.62
  -4  -6  -4  148.50    8.97
  -4  -6  -4  156.61    8.04
  -4  -6  -4  187.87   12.91
  -4  -6  -4  166.60   10.51
  -4  -6  -3  372.05   11.80
  -4  -6  -3  337.08   17.43
  -4  -6  -3  362.15   15.63
  -4  -6  -2   11.13    1.76
  -4  -6  -2   12.60    3.70
  -4  -6  -2   10.23    2.54
  -4  -6  -1  109.50    9.32
  -4  -6  -1  111.20    7.82
  -4  -6   0  375.22   17.39
  -4  -6   0  332.31   13.74
  -4  -6   1    9.29    3.08
  -4  -6   1   13.57    2.76
  -4  -6   2    1.57    2.75
  -4  -6   2    0.06    1.24
  -4  -6   3    0.24    2.08
  -4  -6   3    3.05    1.87
  -4  -6   3    2.89    2.62
  -4  -6   4  615.16   23.32
  -4  -6   5  318.46   16.21
  -4  -6   6   22.79    4.74
  -4  -6   7  544.14   22.75
  -4  -6   8  453.35   20.95
  -4  -6   9   67.01    8.20
  -4  -6  10  161.84   12.94
  -4  -6  11  147.40   12.80
  -4  -6  12   67.90    9.20
  -4  -6  13   95.27   11.16
  -4  -6  14  102.63   11.76
  -4  -6  15   10.08    4.77
  -4  -5 -10   -0.80    3.33
  -4  -5  -9   47.45    7.40
  -4  -5  -8  391.44   20.59
  -4  -5  -7  327.32   15.61
  -4  -5  -7  344.41   18.44
  -4  -5  -6  923.17   26.87
  -4  -5  -6  876.47   25.48
  -4  -5  -6  877.68   30.85
  -4  -5  -6  881.33   27.95
  -4  -5  -5 1730.94   40.05
  -4  -5  -5 1671.35   40.12
  -4  -5  -5 1694.29   46.03
  -4  -5  -5 1666.93   42.03
  -4  -5  -4  299.92   12.05
  -4  -5  -4  291.81   12.96
  -4  -5  -4  323.33   16.23
  -4  -5  -4  294.18   13.41
  -4  -5  -3  773.73   20.21
  -4  -5  -3  701.34   22.36
  -4  -5  -3  712.19   25.40
  -4  -5  -3  783.66   22.95
  -4  -5  -2  930.99   21.99
  -4  -5  -2  892.72   28.65
  -4  -5  -2  912.22   25.19
  -4  -5  -1 1261.35   26.60
  -4  -5  -1 1212.42   34.47
  -4  -5  -1 1219.93   30.42
  -4  -5   0  653.34   22.81
  -4  -5   0  652.30   20.34
  -4  -5   1 1100.02   32.17
  -4  -5   1 1035.65   30.87
  -4  -5   1 1094.62   28.00
  -4  -5   2  134.39    9.61
  -4  -5   2  114.31    8.78
  -4  -5   2  130.23    7.65
  -4  -5   3  332.05   15.52
  -4  -5   3  313.28   15.01
  -4  -5   3  356.53   13.23
  -4  -5   4   38.06    5.13
  -4  -5   4   40.11    5.36
  -4  -5   5   20.70    4.06
  -4  -5   5   16.20    3.78
  -4  -5   6  266.01   14.09
  -4  -5   6  267.46   14.38
  -4  -5   7   14.24    3.92
  -4  -5   8   96.71    9.04
  -4  -5   9  386.01   19.22
  -4  -5  10   49.69    7.28
  -4  -5  11 1061.71   36.76
  -4  -5  12  869.44   33.61
  -4  -5  13   71.17    9.50
  -4  -5  14  419.62   23.86
  -4  -5  15  166.64   15.25
  -4  -4 -10   28.65    6.96
  -4  -4  -9   40.92    6.90
  -4  -4  -8   31.68    6.16
  -4  -4  -7   40.20    5.30
  -4  -4  -7   28.34    5.17
  -4  -4  -7   35.68    4.99
  -4  -4  -6  104.38    7.55
  -4  -4  -6   91.85    7.50
  -4  -4  -6   96.78    8.80
  -4  -4  -6   94.64    7.60
  -4  -4  -5  145.13    8.89
  -4  -4  -5  136.87    8.66
  -4  -4  -5  134.95    9.97
  -4  -4  -5  139.21    8.68
  -4  -4  -4  383.45   14.25
  -4  -4  -4  361.74   14.60
  -4  -4  -4  347.33   16.11
  -4  -4  -4  385.90   14.41
  -4  -4  -3  135.08    8.46
  -4  -4  -3  145.12    7.73
  -4  -4  -3  137.12    9.35
  -4  -4  -3  148.25    7.93
  -4  -4  -2 1084.04   25.82
  -4  -4  -2 1098.08   30.71
  -4  -4  -2 1077.52   26.57
  -4  -4  -1 2845.45   55.13
  -4  -4  -1 2889.08   61.67
  -4  -4  -1 2809.28   56.11
  -4  -4   0 2116.74   48.75
  -4  -4   0 2130.54   47.01
  -4  -4   1  543.01   19.52
  -4  -4   1  488.50   18.24
  -4  -4   1  507.10   16.94
  -4  -4   2 2837.27   61.79
  -4  -4   2 2826.25   61.15
  -4  -4   2 2873.96   58.64
  -4  -4   3  168.67   10.01
  -4  -4   3  167.11    9.99
  -4  -4   3  167.35    8.87
  -4  -4   4 1667.64   40.80
  -4  -4   4 1633.91   41.05
  -4  -4   5  720.17   23.54
  -4  -4   5  713.33   23.79
  -4  -4   6   69.00    6.72
  -4  -4   6   70.39    7.10
  -4  -4   7   -0.08    1.98
  -4  -4   7    4.93    3.19
  -4  -4   8  249.95   14.33
  -4  -4   9   26.55    5.21
  -4  -4  10   99.87    9.76
  -4  -4  11   33.41    6.10
  -4  -4  12  588.02   26.52
  -4  -4  13  143.34   13.23
  -4  -4  14  103.36   11.62
  -4  -4  15  379.04   23.13
  -4  -3 -11  366.02   22.80
  -4  -3 -10  173.43   15.06
  -4  -3  -9    6.21    3.46
  -4  -3  -8  293.24   15.82
  -4  -3  -8  287.01   14.38
  -4  -3  -7    9.17    3.00
  -4  -3  -7    8.51    2.93
  -4  -3  -7    5.83    2.41
  -4  -3  -6    9.06    2.76
  -4  -3  -6    8.65    2.62
  -4  -3  -6   12.73    3.35
  -4  -3  -6   10.63    2.62
  -4  -3  -5    8.89    2.70
  -4  -3  -5   13.12    2.98
  -4  -3  -5   11.24    3.17
  -4  -3  -5    8.46    2.33
  -4  -3  -4  339.84   14.12
  -4  -3  -4  338.30   13.64
  -4  -3  -4  344.60   14.89
  -4  -3  -4  345.83   12.50
  -4  -3  -3   63.23    5.70
  -4  -3  -3   76.32    5.71
  -4  -3  -3   66.95    6.18
  -4  -3  -3   67.00    4.84
  -4  -3  -2  113.85    6.66
  -4  -3  -2  116.93    7.83
  -4  -3  -2  127.98    6.20
  -4  -3  -1 1210.34   27.91
  -4  -3  -1 1202.49   30.72
  -4  -3  -1 1179.63   25.90
  -4  -3   0 1576.86   37.40
  -4  -3   0 1593.28   34.16
  -4  -3   0 1571.82   37.27
  -4  -3   1  786.85   23.55
  -4  -3   1  816.12   23.22
  -4  -3   1  793.32   22.70
  -4  -3   2 3014.18   62.98
  -4  -3   2 2993.12   62.55
  -4  -3   2 3087.38   61.99
  -4  -3   3  262.00   11.86
  -4  -3   3  269.42   12.22
  -4  -3   3  243.17   11.16
  -4  -3   4 2143.11   47.98
  -4  -3   4 2149.63   48.55
  -4  -3   5 2024.94   46.43
  -4  -3   5 2028.46   47.33
  -4  -3   6  706.26   22.82
  -4  -3   6  704.45   23.61
  -4  -3   7  713.83   23.55
  -4  -3   7  693.99   24.20
  -4  -3   8  147.19   10.07
  -4  -3   8  127.97    9.98
  -4  -3   9  521.14   21.80
  -4  -3  10    1.21    2.88
  -4  -3  11    1.95    2.88
  -4  -3  12   70.23    8.83
  -4  -3  13  238.34   16.82
  -4  -3  14  183.15   15.34
  -4  -3  15   29.27    6.80
  -4  -2 -12   67.66   10.32
  -4  -2 -11  238.98   17.70
  -4  -2 -10  396.20   22.16
  -4  -2  -9   37.10    6.70
  -4  -2  -9   54.58    6.38
  -4  -2  -8  718.50   28.30
  -4  -2  -8  707.01   23.48
  -4  -2  -7  267.38   14.36
  -4  -2  -7  250.98   13.24
  -4  -2  -7  271.12   12.52
  -4  -2  -6    0.40    1.78
  -4  -2  -6    1.00    2.17
  -4  -2  -6   -0.67    1.80
  -4  -2  -6    0.72    1.40
  -4  -2  -5   48.07    5.32
  -4  -2  -5   41.28    4.89
  -4  -2  -5   35.75    4.56
  -4  -2  -5   42.90    4.03
  -4  -2  -4   52.28    5.16
  -4  -2  -4   39.14    4.65
  -4  -2  -4   41.78    4.65
  -4  -2  -4   43.13    3.73
  -4  -2  -3  313.76   12.75
  -4  -2  -3  308.88   13.26
  -4  -2  -3  337.41   12.98
  -4  -2  -3  317.14   10.06
  -4  -2  -2   14.97    2.78
  -4  -2  -2   13.11    2.74
  -4  -2  -2    9.83    2.45
  -4  -2  -2   14.64    1.81
  -4  -2  -1  127.58    7.31
  -4  -2  -1  125.22    7.07
  -4  -2   0  180.15    8.76
  -4  -2   0  194.39    9.89
  -4  -2   0  175.63    8.28
  -4  -2   1  877.81   23.77
  -4  -2   1  866.05   23.12
  -4  -2   1  886.61   24.42
  -4  -2   2  542.59   16.93
  -4  -2   2  514.82   16.68
  -4  -2   2  511.97   17.19
  -4  -2   3 1057.97   27.15
  -4  -2   3 1117.35   28.16
  -4  -2   3 1091.15   28.53
  -4  -2   4 2633.97   54.20
  -4  -2   4 2545.20   55.18
  -4  -2   5  918.48   25.42
  -4  -2   5  950.45   26.84
  -4  -2   6    6.52    2.32
  -4  -2   6    5.64    2.67
  -4  -2   7  550.56   19.44
  -4  -2   7  534.39   20.29
  -4  -2   8   65.91    6.48
  -4  -2   8   76.50    7.58
  -4  -2   9  324.32   15.52
  -4  -2   9  251.34   14.59
  -4  -2  10  404.58   19.55
  -4  -2  11   43.09    6.72
  -4  -2  12  184.36   14.09
  -4  -2  13   40.51    7.48
  -4  -2  14  112.77   12.21
  -4  -2  15   29.95    7.05
  -4  -1 -12  249.99   18.30
  -4  -1 -11  136.30   13.00
  -4  -1 -10  358.66   20.44
  -4  -1  -9  756.93   29.65
  -4  -1  -9  741.91   24.96
  -4  -1  -8 1587.47   45.02
  -4  -1  -8 1495.03   38.25
  -4  -1  -7    0.79    2.20
  -4  -1  -7    2.24    1.57
  -4  -1  -6  795.66   25.92
  -4  -1  -6  752.65   24.65
  -4  -1  -6  815.25   23.49
  -4  -1  -6  793.61   21.84
  -4  -1  -5  394.54   17.36
  -4  -1  -5  362.03   15.13
  -4  -1  -5  378.03   15.78
  -4  -1  -5  340.67   13.32
  -4  -1  -5  357.95   12.10
  -4  -1  -4  119.33    8.90
  -4  -1  -4  108.64    7.64
  -4  -1  -4   97.27    7.39
  -4  -1  -4  104.80    6.52
  -4  -1  -4  103.96    5.33
  -4  -1  -3  369.42   15.78
  -4  -1  -3  369.80   14.26
  -4  -1  -3  355.81   14.43
  -4  -1  -3  356.41   12.40
  -4  -1  -3  371.96    9.87
  -4  -1  -2   36.71    4.81
  -4  -1  -2   32.75    4.18
  -4  -1  -2   34.50    3.94
  -4  -1  -2   31.21    3.39
  -4  -1  -2   34.29    1.92
  -4  -1  -1  230.34    9.03
  -4  -1  -1  207.92    9.67
  -4  -1  -1  229.12   11.24
  -4  -1   0    5.13    1.93
  -4  -1   0    6.42    2.23
  -4  -1   0    6.45    2.68
  -4  -1   1    4.53    1.84
  -4  -1   1    4.94    1.76
  -4  -1   1    0.69    2.32
  -4  -1   1    7.64    2.30
  -4  -1   2  159.85    7.51
  -4  -1   2  157.48    7.82
  -4  -1   2  157.64    8.85
  -4  -1   3  155.91    7.49
  -4  -1   3  148.50    7.97
  -4  -1   3  152.33    8.86
  -4  -1   4 3102.52   61.57
  -4  -1   4 3166.42   63.61
  -4  -1   5  266.99   11.10
  -4  -1   5  266.96   12.20
  -4  -1   6    2.96    1.68
  -4  -1   6    4.22    2.54
  -4  -1   7 1249.21   32.66
  -4  -1   7 1276.75   34.70
  -4  -1   8  473.90   18.14
  -4  -1   8  465.60   19.35
  -4  -1   9  370.52   16.55
  -4  -1   9  370.77   17.72
  -4  -1  10  215.65   13.84
  -4  -1  11   37.97    6.41
  -4  -1  12    6.54    3.37
  -4  -1  13  238.43   16.76
  -4  -1  14   20.02    5.73
  -4  -1  15    1.42    3.30
  -4   0 -13   61.50   10.17
  -4   0 -12   -2.66    3.41
  -4   0 -11  106.30   11.20
  -4   0 -10  148.45   12.63
  -4   0  -9   99.99    9.75
  -4   0  -9  118.34    8.66
  -4   0  -8 2456.45   59.96
  -4   0  -8 2406.36   53.60
  -4   0  -7  197.20   12.47
  -4   0  -7  202.56   10.02
  -4   0  -6 1601.87   41.19
  -4   0  -6 1502.94   40.30
  -4   0  -6 1567.23   35.11
  -4   0  -5 2724.45   60.55
  -4   0  -5 2585.86   58.59
  -4   0  -5 2610.46   57.89
  -4   0  -5 2627.56   52.70
  -4   0  -5 2600.70   51.35
  -4   0  -4  229.81   12.30
  -4   0  -4  197.42   10.86
  -4   0  -4  227.20   11.55
  -4   0  -4  221.43    8.74
  -4   0  -4  224.35    7.71
  -4   0  -3 1946.35   44.59
  -4   0  -3 1874.84   42.89
  -4   0  -3 1818.95   42.94
  -4   0  -3 1833.19   37.35
  -4   0  -3 1852.29   34.45
  -4   0  -2 2176.10   48.28
  -4   0  -2 2130.06   41.62
  -4   0  -2 2141.84   47.55
  -4   0  -2 2128.13   46.83
  -4   0  -1  536.56   17.51
  -4   0  -1  518.67   13.67
  -4   0  -1  523.47   17.95
  -4   0  -1  516.78   17.00
  -4   0  -1  539.62   17.83
  -4   0   0  886.80   23.56
  -4   0   0  874.08   20.24
  -4   0   0  939.76   25.22
  -4   0   0  866.38   23.77
  -4   0   1  432.80   13.99
  -4   0   1  417.03   12.25
  -4   0   1  434.96   12.68
  -4   0   1  429.96   15.60
  -4   0   1  435.13   15.16
  -4   0   2   38.84    3.20
  -4   0   2   39.81    3.72
  -4   0   2   42.06    4.91
  -4   0   3   21.12    2.58
  -4   0   3   21.95    3.09
  -4   0   4  104.05    5.82
  -4   0   4  101.35    6.79
  -4   0   5  384.47   13.14
  -4   0   5  380.84   14.75
  -4   0   6  341.42   13.07
  -4   0   6  355.07   14.77
  -4   0   7  135.31    8.34
  -4   0   7  135.86    9.50
  -4   0   8  594.79   20.56
  -4   0   8  599.37   22.34
  -4   0   9 1190.61   33.45
  -4   0   9 1120.77   34.65
  -4   0  10  561.83   23.62
  -4   0  11 1134.04   37.30
  -4   0  12  628.28   27.41
  -4   0  13  464.89   24.14
  -4   0  14  163.87   14.54
  -4   0  15  244.19   18.67
  -4   1 -13  147.44   14.21
  -4   1 -12   97.94   11.05
  -4   1 -11   52.97    7.96
  -4   1 -10    5.51    3.62
  -4   1  -9   25.42    5.21
  -4   1  -9   34.07    4.86
  -4   1  -8    5.22    3.57
  -4   1  -8    7.82    2.62
  -4   1  -7  454.62   19.02
  -4   1  -7  478.30   16.24
  -4   1  -6   18.40    3.98
  -4   1  -6   13.41    3.43
  -4   1  -6   15.59    2.54
  -4   1  -5  290.18   13.98
  -4   1  -5  277.58   13.47
  -4   1  -5  279.87   14.01
  -4   1  -5  277.50   12.66
  -4   1  -5  261.93    9.63
  -4   1  -4  141.13    9.14
  -4   1  -4  147.84    9.47
  -4   1  -4  153.50    9.71
  -4   1  -4  145.04    8.34
  -4   1  -4  153.78    6.14
  -4   1  -3 2841.07   59.89
  -4   1  -3 2776.99   59.31
  -4   1  -3 2668.37   58.87
  -4   1  -3 2778.48   50.34
  -4   1  -3 2762.98   49.97
  -4   1  -2 1395.35   34.51
  -4   1  -2 1417.17   26.93
  -4   1  -2 1400.20   34.58
  -4   1  -2 1429.49   35.07
  -4   1  -1 3879.50   74.64
  -4   1  -1 3734.29   67.15
  -4   1  -1 3884.44   76.32
  -4   1  -1 3874.72   75.83
  -4   1  -1 3798.60   75.34
  -4   1   0 2025.79   42.74
  -4   1   0 1994.78   38.02
  -4   1   0 2007.72   44.52
  -4   1   0 1997.26   44.56
  -4   1   0 2026.58   45.09
  -4   1   1  696.72   18.66
  -4   1   1  706.25   15.63
  -4   1   1  694.89   16.89
  -4   1   1  741.42   21.66
  -4   1   1  706.96   21.24
  -4   1   2  864.65   20.54
  -4   1   2  852.73   18.32
  -4   1   2  857.09   20.79
  -4   1   2  865.13   24.54
  -4   1   3 2275.95   43.15
  -4   1   3 2258.87   46.57
  -4   1   4  266.35    9.16
  -4   1   4  255.67   11.06
  -4   1   5  189.46    8.33
  -4   1   5  197.48   10.08
  -4   1   6   17.33    2.80
  -4   1   6   14.42    3.39
  -4   1   7  132.24    8.16
  -4   1   7  118.43    8.92
  -4   1   8   79.59    6.74
  -4   1   8   73.59    7.37
  -4   1   9  262.07   13.68
  -4   1   9  283.75   15.50
  -4   1  10   87.05    8.91
  -4   1  11   91.45    9.51
  -4   1  12  547.60   25.57
  -4   1  13  427.53   23.24
  -4   1  14  201.98   16.38
  -4   2 -13  375.40   22.63
  -4   2 -12   87.19   10.42
  -4   2 -11  168.95   13.65
  -4   2 -10  348.61   18.89
  -4   2  -9   83.06    8.55
  -4   2  -9   72.82    6.79
  -4   2  -8   39.57    5.65
  -4   2  -8   32.34    4.30
  -4   2  -7   12.31    3.80
  -4   2  -6  940.84   29.44
  -4   2  -6  928.88   29.50
  -4   2  -6  886.39   26.70
  -4   2  -5  151.94   10.11
  -4   2  -5  154.19    8.91
  -4   2  -5  143.25    9.83
  -4   2  -4  390.30   16.34
  -4   2  -4  378.86   16.02
  -4   2  -4  389.65   13.84
  -4   2  -4  419.19   16.69
  -4   2  -3  382.48   15.39
  -4   2  -3  386.31   15.63
  -4   2  -3  377.73   12.47
  -4   2  -3  387.15   15.36
  -4   2  -3  368.54   10.49
  -4   2  -2   36.00    4.69
  -4   2  -2   34.13    4.34
  -4   2  -2   31.72    4.32
  -4   2  -2   26.03    2.60
  -4   2  -2   30.03    3.88
  -4   2  -2   34.34    2.48
  -4   2  -1  165.31    9.33
  -4   2  -1  156.78    9.10
  -4   2  -1  172.15    9.29
  -4   2  -1  161.34    5.86
  -4   2  -1  175.65    8.80
  -4   2  -1  163.91    5.55
  -4   2   0 1591.65   35.53
  -4   2   0 1588.39   37.56
  -4   2   0 1658.22   38.34
  -4   2   0 1601.74   38.27
  -4   2   0 1617.48   30.55
  -4   2   0 1612.19   31.45
  -4   2   1 2602.54   51.04
  -4   2   1 2640.45   55.33
  -4   2   1 2563.83   55.40
  -4   2   1 2513.11   53.88
  -4   2   1 2545.39   48.62
  -4   2   1 2625.47   49.05
  -4   2   2 1010.85   22.76
  -4   2   2 1007.16   19.17
  -4   2   2 1017.42   27.74
  -4   2   2 1002.03   23.46
  -4   2   2 1037.82   23.63
  -4   2   3 3685.47   65.93
  -4   2   3 3687.61   66.69
  -4   2   3 3681.15   70.89
  -4   2   3 3742.75   70.83
  -4   2   4  971.77   21.87
  -4   2   4  996.23   25.75
  -4   2   4  963.78   25.27
  -4   2   5  138.63    6.86
  -4   2   5  141.12    8.64
  -4   2   6  617.43   21.04
  -4   2   7   18.99    3.72
  -4   2   7   18.00    3.96
  -4   2   8    5.24    3.02
  -4   2   9  274.22   15.43
  -4   2  10   25.42    5.41
  -4   2  11   15.07    4.64
  -4   2  12   14.45    4.99
  -4   2  13  231.13   16.95
  -4   2  14  285.46   19.83
  -4   3 -13  573.20   28.26
  -4   3 -12  215.96   16.04
  -4   3 -11  112.61   10.95
  -4   3 -10  326.04   17.92
  -4   3  -9  394.06   18.78
  -4   3  -8   -1.01    2.05
  -4   3  -7  157.67   10.21
  -4   3  -6   24.46    3.81
  -4   3  -5  237.04   12.86
  -4   3  -5  193.59    9.90
  -4   3  -5  230.64   12.54
  -4   3  -4   71.82    6.90
  -4   3  -4   79.98    7.11
  -4   3  -4   72.60    5.33
  -4   3  -4   84.34    7.22
  -4   3  -4   73.35    4.90
  -4   3  -3  773.39   24.41
  -4   3  -3  913.42   26.02
  -4   3  -3  821.16   24.38
  -4   3  -3  759.29   19.55
  -4   3  -3  768.06   19.30
  -4   3  -2  918.23   26.30
  -4   3  -2  939.28   26.25
  -4   3  -2  926.82   26.79
  -4   3  -2  939.61   25.70
  -4   3  -2  901.94   20.18
  -4   3  -2  898.29   21.07
  -4   3  -1  975.08   27.45
  -4   3  -1  976.04   26.87
  -4   3  -1  945.90   26.53
  -4   3  -1  989.99   19.28
  -4   3  -1  949.60   25.44
  -4   3  -1  967.97   22.12
  -4   3   0  861.43   22.58
  -4   3   0  889.56   24.97
  -4   3   0  898.64   25.72
  -4   3   0  882.93   24.52
  -4   3   0  866.92   18.27
  -4   3   0  855.04   18.37
  -4   3   0  892.54   20.85
  -4   3   1 2682.32   52.92
  -4   3   1 2632.82   57.86
  -4   3   1 2752.99   57.57
  -4   3   1 2694.05   55.96
  -4   3   1 2657.48   50.97
  -4   3   1 2692.97   52.73
  -4   3   1 2707.86   50.98
  -4   3   2 1332.89   28.39
  -4   3   2 1307.10   31.80
  -4   3   2 1297.82   29.32
  -4   3   2 1327.27   29.46
  -4   3   2 1349.32   30.59
  -4   3   3 1402.55   28.37
  -4   3   3 1390.85   32.38
  -4   3   3 1411.55   33.04
  -4   3   3 1421.56   32.59
  -4   3   4  984.15   19.66
  -4   3   4 1016.88   26.77
  -4   3   4 1025.32   26.79
  -4   3   4 1005.63   26.84
  -4   3   5 1042.17   28.57
  -4   3   5 1020.67   28.41
  -4   3   5  991.07   28.08
  -4   3   6  190.83   11.16
  -4   3   6  203.40   11.41
  -4   3   6  193.74   11.27
  -4   3   7  768.72   25.47
  -4   3   7  680.00   24.30
  -4   3   8  506.09   21.09
  -4   3   9   18.70    4.30
  -4   3  10  190.93   13.74
  -4   3  11    0.43    2.69
  -4   3  12   17.21    5.18
  -4   3  13    0.82    2.85
  -4   3  14  109.92   12.48
  -4   4 -14   56.37    8.95
  -4   4 -13   96.15   10.99
  -4   4 -12  391.73   21.79
  -4   4 -11  220.21   15.22
  -4   4 -10  304.32   17.04
  -4   4  -9 1631.02   44.65
  -4   4  -8  372.09   17.07
  -4   4  -7    1.80    2.47
  -4   4  -6  436.91   16.50
  -4   4  -5  218.60   12.59
  -4   4  -5  213.49   12.25
  -4   4  -5  198.96    9.81
  -4   4  -5  207.45    9.81
  -4   4  -4  135.04    9.45
  -4   4  -4  130.55    9.19
  -4   4  -4  130.01    7.02
  -4   4  -4  120.73    7.04
  -4   4  -3   91.00    7.49
  -4   4  -3   93.28    7.54
  -4   4  -3   96.90    7.38
  -4   4  -3   85.13    4.97
  -4   4  -3   85.99    7.03
  -4   4  -3   89.18    5.82
  -4   4  -2   85.36    7.10
  -4   4  -2   73.56    6.36
  -4   4  -2   78.97    6.80
  -4   4  -2   72.18    3.85
  -4   4  -2   77.73    6.40
  -4   4  -2   78.39    5.38
  -4   4  -1   70.58    2.83
  -4   4  -1   71.58    6.19
  -4   4  -1   68.57    6.41
  -4   4  -1   76.86    6.39
  -4   4  -1   70.11    3.15
  -4   4  -1   70.68    5.78
  -4   4  -1   72.42    5.15
  -4   4  -1   74.25    3.14
  -4   4   0   15.85    2.76
  -4   4   0   14.05    3.06
  -4   4   0   18.44    3.71
  -4   4   0   13.64    2.93
  -4   4   0   10.34    1.68
  -4   4   0   12.23    1.75
  -4   4   0   10.95    2.47
  -4   4   1  360.75   14.61
  -4   4   1  370.09   15.38
  -4   4   1  361.69   13.92
  -4   4   1  355.08   11.46
  -4   4   1  359.27   12.94
  -4   4   1  354.33   11.28
  -4   4   1  362.83   12.36
  -4   4   2 1116.98   28.33
  -4   4   2 1107.98   26.92
  -4   4   2 1143.44   28.50
  -4   4   2 1110.32   25.47
  -4   4   2 1145.22   26.92
  -4   4   3 1189.61   29.23
  -4   4   3 1193.23   29.65
  -4   4   3 1164.49   25.42
  -4   4   3 1205.99   30.72
  -4   4   3 1236.63   29.71
  -4   4   4  841.56   22.92
  -4   4   4  860.87   24.91
  -4   4   4  860.79   18.50
  -4   4   4  872.93   25.53
  -4   4   4  884.31   24.84
  -4   4   5  348.38    7.88
  -4   4   5  358.23   15.24
  -4   4   5  335.85   15.05
  -4   4   5  357.04   15.09
  -4   4   6  554.18   20.86
  -4   4   6  536.41   20.63
  -4   4   6  555.71   20.71
  -4   4   7   50.44    6.42
  -4   4   7   63.20    6.97
  -4   4   8 1886.51   49.58
  -4   4   9   50.68    7.10
  -4   4  10   16.68    4.86
  -4   4  11  124.05   12.01
  -4   4  12   15.76    5.26
  -4   4  13   62.15    9.33
  -4   5 -14   64.33    9.49
  -4   5 -13   12.06    4.71
  -4   5 -12    0.11    2.74
  -4   5 -11  364.57   19.74
  -4   5 -10  214.64   14.19
  -4   5  -9  676.01   25.41
  -4   5  -8  914.01   29.14
  -4   5  -7  294.54   14.02
  -4   5  -6  251.90   12.07
  -4   5  -6  262.03   12.41
  -4   5  -5 2247.27   55.00
  -4   5  -5 2285.82   48.88
  -4   5  -5 2305.65   54.61
  -4   5  -5 2259.07   50.01
  -4   5  -4  845.56   25.94
  -4   5  -4  820.91   27.15
  -4   5  -4  862.28   22.22
  -4   5  -4  842.06   23.77
  -4   5  -4  865.07   26.94
  -4   5  -3  273.35    9.77
  -4   5  -3  309.11   14.67
  -4   5  -3  294.53   13.23
  -4   5  -3  280.78    6.55
  -4   5  -3  305.48   12.26
  -4   5  -3  290.28   13.64
  -4   5  -2  656.97   15.47
  -4   5  -2  686.07   22.67
  -4   5  -2  644.89   20.79
  -4   5  -2  617.38   14.00
  -4   5  -2  636.36   20.96
  -4   5  -2  648.92   19.39
  -4   5  -1  100.84    7.88
  -4   5  -1   92.09    7.10
  -4   5  -1   89.30    7.24
  -4   5  -1   89.62    4.52
  -4   5  -1   87.97    6.67
  -4   5  -1   96.54    6.56
  -4   5   0  190.86   10.22
  -4   5   0  198.69   11.22
  -4   5   0  191.44   10.19
  -4   5   0  176.74    7.55
  -4   5   0  187.93    9.45
  -4   5   0  193.47    9.60
  -4   5   1  266.52   11.83
  -4   5   1  282.96   13.68
  -4   5   1  256.70   10.26
  -4   5   1  269.27   11.95
  -4   5   1  276.53   11.00
  -4   5   2   55.64    5.06
  -4   5   2   57.63    5.10
  -4   5   2   54.29    5.46
  -4   5   2   49.94    4.17
  -4   5   3  230.77   10.27
  -4   5   3  234.47   11.16
  -4   5   3  227.79   10.89
  -4   5   3  232.55    8.85
  -4   5   3  231.43   11.83
  -4   5   4  313.69   12.00
  -4   5   4  339.25   14.52
  -4   5   4  328.46   14.88
  -4   5   4  312.11    9.90
  -4   5   4  326.05   14.08
  -4   5   5  210.36    9.30
  -4   5   5  245.68   12.74
  -4   5   5  208.81    6.98
  -4   5   5  212.82   11.86
  -4   5   5  220.82   12.50
  -4   5   6  632.83   13.38
  -4   5   6  620.64   18.01
  -4   5   6  671.27   23.85
  -4   5   6  643.12   23.27
  -4   5   6  655.32   24.01
  -4   5   6  638.30   13.34
  -4   5   7  163.62    7.86
  -4   5   7  149.35   11.04
  -4   5   7  174.45   12.02
  -4   5   8  621.52   17.38
  -4   5   8  604.11   25.02
  -4   5   8  620.32   24.97
  -4   5   9  818.69   20.84
  -4   5   9  789.76   30.27
  -4   5  10  122.32   11.58
  -4   5  11  445.50   23.64
  -4   5  12  668.68   30.84
  -4   5  13  123.34   13.35
  -4   6 -14   98.92   11.69
  -4   6 -13    9.63    4.85
  -4   6 -12   11.56    6.52
  -4   6 -11   18.02    5.01
  -4   6 -10  139.34   11.34
  -4   6  -9   13.86    3.48
  -4   6  -8  140.51   10.11
  -4   6  -7  808.32   25.60
  -4   6  -7  784.02   25.96
  -4   6  -6  332.72   14.17
  -4   6  -6  330.41   15.01
  -4   6  -6  327.63    9.42
  -4   6  -5  259.83   11.61
  -4   6  -5  292.93   13.46
  -4   6  -5  280.87    8.08
  -4   6  -4 2073.71   43.98
  -4   6  -4 2054.50   48.16
  -4   6  -4 2097.79   51.21
  -4   6  -4 2049.98   38.80
  -4   6  -4 2070.36   47.54
  -4   6  -4 2091.86   50.55
  -4   6  -3  379.01   12.34
  -4   6  -3  398.99   15.77
  -4   6  -3  391.09   17.20
  -4   6  -3  386.98   10.63
  -4   6  -3  411.18   17.04
  -4   6  -3  371.87   15.18
  -4   6  -2  663.31   16.46
  -4   6  -2  662.32   21.11
  -4   6  -2  660.42   23.07
  -4   6  -2  608.66   15.91
  -4   6  -2  634.94   20.81
  -4   6  -2  683.88   22.22
  -4   6  -1 2812.74   62.46
  -4   6  -1 3037.79   60.48
  -4   6  -1 2694.28   54.06
  -4   6  -1 2751.29   59.64
  -4   6  -1 2728.27   59.41
  -4   6   0  799.88   23.80
  -4   6   0  823.54   25.95
  -4   6   0  750.71   20.56
  -4   6   0  768.72   22.85
  -4   6   0  749.50   23.43
  -4   6   1  295.71   12.84
  -4   6   1  303.42   12.15
  -4   6   1  317.83   14.08
  -4   6   2 1103.67   28.29
  -4   6   2 1078.16   28.76
  -4   6   2 1046.74   30.41
  -4   6   3  320.36   12.56
  -4   6   3  352.55   14.77
  -4   6   3  321.85   15.26
  -4   6   4    1.59    1.36
  -4   6   4    0.90    1.72
  -4   6   4    2.40    2.98
  -4   6   5    1.69    1.27
  -4   6   5    2.72    2.07
  -4   6   5    5.70    3.10
  -4   6   5    0.33    2.32
  -4   6   6   10.34    2.02
  -4   6   6    9.46    3.51
  -4   6   6   10.82    3.68
  -4   6   7  523.54   14.73
  -4   6   7  510.74   12.27
  -4   6   7  490.49   22.34
  -4   6   7  531.64   22.49
  -4   6   8   17.90    2.22
  -4   6   8   14.99    4.24
  -4   6   8   17.85    4.71
  -4   6   9  108.11   10.77
  -4   6   9  110.96   10.98
  -4   6  10  133.99   12.57
  -4   6  11  141.76   13.31
  -4   6  12  374.96   22.93
  -4   7 -14   93.64   11.34
  -4   7 -13  180.99   15.24
  -4   7 -12   45.39    7.66
  -4   7 -11   80.32    9.06
  -4   7 -10  314.82   17.51
  -4   7  -9   36.43    5.87
  -4   7  -9   46.32    6.58
  -4   7  -8   35.27    5.35
  -4   7  -8   48.62    6.42
  -4   7  -8   43.58    3.78
  -4   7  -7  128.01    9.18
  -4   7  -7  111.84    9.28
  -4   7  -7  117.59    5.95
  -4   7  -6  836.81   24.96
  -4   7  -6  803.08   19.31
  -4   7  -6  768.99   26.39
  -4   7  -5  473.56   16.57
  -4   7  -5  431.73   17.74
  -4   7  -5  446.61   12.68
  -4   7  -5  437.99   18.30
  -4   7  -4  237.98   10.52
  -4   7  -4  238.42   12.24
  -4   7  -4  233.83    8.58
  -4   7  -4  260.28   13.24
  -4   7  -3  269.92   10.60
  -4   7  -3  295.11   13.27
  -4   7  -3  271.42   14.42
  -4   7  -3  258.18    9.61
  -4   7  -3  277.99   14.25
  -4   7  -3  268.13   13.45
  -4   7  -2  253.61   12.02
  -4   7  -2  240.18   13.32
  -4   7  -2  208.26    9.01
  -4   7  -2  239.78   12.48
  -4   7  -2  241.72   12.80
  -4   7  -1  568.60   21.26
  -4   7  -1  563.17   19.07
  -4   7  -1  506.42   16.33
  -4   7  -1  534.54   19.92
  -4   7   0 2090.01   50.61
  -4   7   0 2065.02   45.32
  -4   7   0 2017.96   48.94
  -4   7   1  635.00   20.39
  -4   7   1  628.51   22.56
  -4   7   2  913.60   26.73
  -4   7   2  858.57   28.12
  -4   7   3  945.70   28.69
  -4   7   3  934.70   30.00
  -4   7   4  127.62    9.66
  -4   7   4  108.07    9.48
  -4   7   5   51.41    6.79
  -4   7   6  338.85   18.10
  -4   7   6  313.22   16.82
  -4   7   7   33.14    3.17
  -4   7   7   36.41    6.24
  -4   7   7   35.53    6.13
  -4   7   8   -0.28    0.86
  -4   7   8   -3.80    2.85
  -4   7   8   -1.41    3.57
  -4   7   9   55.41    8.20
  -4   7   9   46.69    7.66
  -4   7  10   93.81   10.98
  -4   7  10  102.76   11.46
  -4   7  11  134.20   13.43
  -4   8 -13  312.12   20.31
  -4   8 -12  206.42   15.62
  -4   8 -12  182.47   14.73
  -4   8 -11   69.73    8.72
  -4   8 -11   71.33    8.97
  -4   8 -10   53.57    7.27
  -4   8 -10   50.80    7.46
  -4   8  -9    5.73    2.80
  -4   8  -9    2.59    2.41
  -4   8  -8   94.31    8.59
  -4   8  -8  114.03   10.24
  -4   8  -7  131.66    9.52
  -4   8  -7  126.75    6.81
  -4   8  -7  135.59   10.70
  -4   8  -6  132.83    9.11
  -4   8  -6  138.65    9.83
  -4   8  -6  141.26    7.09
  -4   8  -6  130.96   10.36
  -4   8  -5  407.72   15.87
  -4   8  -5  411.94   17.01
  -4   8  -5  402.05   13.16
  -4   8  -5  405.48   18.51
  -4   8  -4  237.65   11.08
  -4   8  -4  244.52   12.40
  -4   8  -4  223.43    9.57
  -4   8  -4  243.11   13.78
  -4   8  -3 1052.41   26.69
  -4   8  -3 1143.54   30.05
  -4   8  -3  975.85   25.52
  -4   8  -3  979.91   31.30
  -4   8  -2 1156.27   30.48
  -4   8  -2 1140.68   33.96
  -4   8  -2 1057.73   27.68
  -4   8  -2 1076.87   32.66
  -4   8  -1 1090.82   32.81
  -4   8  -1 1032.06   27.88
  -4   8  -1 1054.87   32.26
  -4   8   0  805.99   27.03
  -4   8   0  783.11   23.85
  -4   8   0  764.00   26.49
  -4   8   1 1751.73   42.57
  -4   8   1 1684.83   45.28
  -4   8   2  530.24   20.12
  -4   8   2  480.81   20.97
  -4   8   3  151.76   10.59
  -4   8   3  161.57   11.84
  -4   8   4  753.03   28.37
  -4   8   5  638.85   26.51
  -4   8   6  201.02   14.52
  -4   8   7  318.37   11.89
  -4   8   7  334.78   18.88
  -4   8   7  312.69   18.87
  -4   8   8   69.43    8.99
  -4   8   8   60.53    8.87
  -4   8   9    7.26    3.87
  -4   8   9   19.92    5.95
  -4   8  10   12.23    4.80
  -4   8  10   14.89    4.89
  -4   9 -13   98.32   11.35
  -4   9 -13   88.08   11.10
  -4   9 -12  379.13   21.50
  -4   9 -12  332.57   20.74
  -4   9 -11  334.05   19.47
  -4   9 -11  397.01   21.88
  -4   9 -10  219.52   14.90
  -4   9 -10  249.04   16.61
  -4   9  -9  362.69   18.49
  -4   9  -9  361.18   19.89
  -4   9  -8  172.43   11.75
  -4   9  -8  173.05   11.87
  -4   9  -8  153.32   12.38
  -4   9  -7   22.32    4.39
  -4   9  -7   26.06    4.76
  -4   9  -7   22.95    4.99
  -4   9  -6  102.02    8.27
  -4   9  -6  110.78    8.68
  -4   9  -6   94.35    6.41
  -4   9  -6   95.04    9.27
  -4   9  -5    2.85    1.96
  -4   9  -5    0.46    1.86
  -4   9  -5    3.66    2.13
  -4   9  -5    3.16    2.95
  -4   9  -4  234.06   11.60
  -4   9  -4  229.55   11.84
  -4   9  -4  225.92   10.57
  -4   9  -4  222.29   14.02
  -4   9  -3  295.26   13.33
  -4   9  -3  271.33   12.17
  -4   9  -3  290.86   16.08
  -4   9  -2   51.95    5.35
  -4   9  -2   53.36    6.76
  -4   9  -1   70.95    6.45
  -4   9  -1   81.66    8.20
  -4   9   0  180.10   10.84
  -4   9   0  169.67   12.24
  -4   9   1  467.75   19.11
  -4   9   1  442.22   20.63
  -4   9   2  910.46   31.88
  -4   9   3  393.79   20.14
  -4   9   4  352.61   19.49
  -4   9   5  421.83   21.99
  -4   9   6   49.13    7.62
  -4   9   7   93.69   10.83
  -4   9   8  382.34   22.22
  -4   9   8  426.55   23.92
  -4   9   9    0.74    3.88
  -4   9   9    4.70    3.27
  -4  10 -13   95.25   11.14
  -4  10 -13   75.32   10.50
  -4  10 -12   32.23    6.84
  -4  10 -12   30.49    7.81
  -4  10 -11  297.63   18.50
  -4  10 -11  296.57   19.56
  -4  10 -10  392.45   20.56
  -4  10 -10  395.08   22.18
  -4  10  -9  301.13   16.28
  -4  10  -9  284.06   16.57
  -4  10  -9  269.14   17.72
  -4  10  -8  642.01   23.99
  -4  10  -8  629.91   24.88
  -4  10  -8  628.91   27.66
  -4  10  -7  172.54   11.05
  -4  10  -7  161.17   11.31
  -4  10  -7  152.03   12.74
  -4  10  -6  341.75   15.45
  -4  10  -6  313.05   15.57
  -4  10  -6  303.47   17.89
  -4  10  -5  775.94   25.41
  -4  10  -5  819.37   25.04
  -4  10  -5  736.73   22.93
  -4  10  -5  732.05   28.96
  -4  10  -4  220.96   11.54
  -4  10  -4  223.22   11.38
  -4  10  -4  182.14   13.60
  -4  10  -3    5.35    2.58
  -4  10  -3    1.79    2.50
  -4  10  -2   75.91    7.07
  -4  10  -2   78.60    8.78
  -4  10  -1  138.21    9.74
  -4  10  -1  148.57   11.96
  -4  10   0   12.22    3.51
  -4  10   0    6.83    3.89
  -4  10   1   65.90    8.27
  -4  10   2   48.11    7.33
  -4  10   3  128.14   11.80
  -4  10   4  184.58   14.49
  -4  10   5  181.75   14.93
  -4  10   6  228.15   17.19
  -4  10   7  129.75   13.15
  -4  10   8  118.62   13.05
  -4  10   8   99.92   11.45
  -4  11 -12   12.08    5.08
  -4  11 -12   12.01    4.72
  -4  11 -11    0.53    3.29
  -4  11 -11    4.07    3.69
  -4  11 -10  229.24   15.91
  -4  11 -10  241.32   17.93
  -4  11  -9  200.49   14.20
  -4  11  -9  192.52   15.57
  -4  11  -8  360.60   16.91
  -4  11  -8  359.90   18.69
  -4  11  -8  353.05   20.93
  -4  11  -7  884.52   27.49
  -4  11  -7  833.05   29.51
  -4  11  -7  817.07   33.16
  -4  11  -6  500.23   18.74
  -4  11  -6  466.44   20.24
  -4  11  -6  460.95   23.67
  -4  11  -5  455.06   17.30
  -4  11  -5  465.80   23.31
  -4  11  -4  473.22   23.45
  -4  11  -3  154.23   10.46
  -4  11  -3  131.58   12.02
  -4  11  -2  622.07   27.30
  -4  11  -1  590.45   26.44
  -4  11   0  180.48   14.19
  -4  11   1   70.03    9.08
  -4  11   2   -1.94    3.13
  -4  11   3   54.06    8.42
  -4  11   4   64.20    9.01
  -4  11   5    6.75    3.40
  -4  11   6  174.17   15.37
  -4  12 -11   17.13    5.26
  -4  12 -10    9.79    4.82
  -4  12 -10    9.88    4.28
  -4  12  -9  100.12   10.51
  -4  12  -9  116.31   12.76
  -4  12  -8  124.41   11.19
  -4  12  -8  110.32   12.05
  -4  12  -7  115.07   10.25
  -4  12  -7   96.31   11.43
  -4  12  -6  418.18   23.40
  -4  12  -5  237.00   17.33
  -4  12  -4  130.84   12.61
  -4  12  -3  362.13   21.35
  -4  12  -2  560.04   27.02
  -4  12  -1  560.93   27.15
  -4  12   0  392.51   22.53
  -4  12   1  178.49   15.11
  -4  12   2   90.73   11.20
  -4  12   3  199.71   16.35
  -4  12   4  130.54   13.55
  -4  12   5    1.73    3.52
  -4  13  -8   45.65    8.17
  -4  13  -7    6.98    4.29
  -4  13  -6   89.81   11.21
  -4  13  -5  258.56   18.82
  -4  13  -4  322.14   20.97
  -4  13  -3  181.82   15.53
  -4  13  -2  438.63   24.78
  -4  13  -1  397.79   23.52
  -4  13   0  274.08   19.60
  -4  13   1  374.15   23.19
  -4  13   2  198.53   16.89
  -3 -13   3   -5.05    4.94
  -3 -13   4   16.43    5.74
  -3 -13   5    7.39    4.52
  -3 -13   6    3.49    4.17
  -3 -13   7  223.82   18.25
  -3 -12  -1  122.57   13.38
  -3 -12   0   99.72   11.76
  -3 -12   1  146.43   14.29
  -3 -12   2   66.57    9.65
  -3 -12   3   74.94   10.16
  -3 -12   4    2.72    3.48
  -3 -12   5    6.00    4.54
  -3 -12   6   13.14    5.16
  -3 -12   7  122.56   12.76
  -3 -12   8  134.95   13.59
  -3 -12   9   67.56    9.83
  -3 -12  10   20.32    5.81
  -3 -11  -4   33.68    7.40
  -3 -11  -3  131.61   13.38
  -3 -11  -2   47.84    8.30
  -3 -11  -1  386.17   22.93
  -3 -11   0  120.69   12.33
  -3 -11   1  178.33   14.85
  -3 -11   2  341.95   20.54
  -3 -11   3  197.26   15.40
  -3 -11   4  309.54   19.47
  -3 -11   5   57.37    8.63
  -3 -11   6   -1.93    3.31
  -3 -11   7   62.39    8.77
  -3 -11   8   12.51    4.84
  -3 -11   9   10.29    4.28
  -3 -11  10   10.41    5.01
  -3 -11  11   99.46   12.58
  -3 -11  12  256.43   19.12
  -3 -10  -6    4.52    3.91
  -3 -10  -5   17.04    5.55
  -3 -10  -4   16.60    5.50
  -3 -10  -3   -1.59    3.00
  -3 -10  -2    7.46    4.11
  -3 -10  -1  173.69   14.40
  -3 -10   0  420.81   22.43
  -3 -10   1   38.42    6.68
  -3 -10   2  917.67   34.29
  -3 -10   3  297.19   18.29
  -3 -10   4  232.40   15.96
  -3 -10   5  745.63   30.36
  -3 -10   6  263.09   17.19
  -3 -10   7  148.34   13.02
  -3 -10   8   95.08   10.54
  -3 -10   9   32.42    6.78
  -3 -10  10    0.77    3.38
  -3 -10  11   13.03    4.92
  -3 -10  12    7.44    4.60
  -3 -10  13   32.40    7.17
  -3  -9  -7  441.89   25.24
  -3  -9  -6  455.87   25.12
  -3  -9  -5  179.82   15.09
  -3  -9  -4  131.20   12.54
  -3  -9  -3   48.11    7.71
  -3  -9  -2   56.31    7.96
  -3  -9  -1    4.16    1.76
  -3  -9  -1    9.60    3.85
  -3  -9   0   48.95    4.20
  -3  -9   0   43.25    6.77
  -3  -9   1  122.36    5.77
  -3  -9   1  123.24   11.15
  -3  -9   2   59.29    7.79
  -3  -9   3   72.22    8.58
  -3  -9   4  529.97   23.81
  -3  -9   5  515.82   23.59
  -3  -9   6 1204.70   39.07
  -3  -9   7  441.93   21.90
  -3  -9   8  425.03   21.70
  -3  -9   9  194.26   14.65
  -3  -9  10  237.86   16.61
  -3  -9  11  107.80   11.49
  -3  -9  12  427.48   23.73
  -3  -9  13    7.30    4.24
  -3  -9  14   -0.55    3.09
  -3  -8  -9   91.49   11.30
  -3  -8  -8  118.07   12.64
  -3  -8  -7  193.18   15.78
  -3  -8  -6  187.95   15.10
  -3  -8  -5  547.94   26.00
  -3  -8  -4  298.71   18.12
  -3  -8  -3  121.16   11.15
  -3  -8  -2   64.40    7.95
  -3  -8  -1   37.67    6.18
  -3  -8   0   26.09    3.30
  -3  -8   0   18.95    4.49
  -3  -8   0   22.87    4.48
  -3  -8   1    2.40    1.45
  -3  -8   1    1.14    2.59
  -3  -8   2  107.15    9.84
  -3  -8   3   12.18    3.39
  -3  -8   4  316.14   17.06
  -3  -8   5  191.09   13.17
  -3  -8   6   81.16    8.85
  -3  -8   7  869.26   31.09
  -3  -8   8  775.01   29.38
  -3  -8   9  212.48   14.85
  -3  -8  10  332.68   19.20
  -3  -8  11  501.02   24.57
  -3  -8  12  181.83   14.88
  -3  -8  13  241.46   17.74
  -3  -8  14  105.62   12.07
  -3  -7 -10   37.77    7.49
  -3  -7  -9   33.94    6.99
  -3  -7  -8  335.40   20.37
  -3  -7  -7    3.63    3.54
  -3  -7  -6  671.83   28.24
  -3  -7  -5  449.98   14.49
  -3  -7  -5  399.88   13.26
  -3  -7  -5  415.14   21.02
  -3  -7  -4  128.16    7.15
  -3  -7  -4  136.89    6.43
  -3  -7  -4  131.73   11.22
  -3  -7  -3    5.01    1.07
  -3  -7  -3    4.10    2.99
  -3  -7  -3    3.39    1.93
  -3  -7  -2  151.65   11.51
  -3  -7  -2  161.35   10.62
  -3  -7  -1  189.86   12.64
  -3  -7  -1  222.31   12.29
  -3  -7   0  104.82    6.37
  -3  -7   0  130.01   10.24
  -3  -7   0  128.92    9.07
  -3  -7   1  376.79   12.31
  -3  -7   1  368.21   17.56
  -3  -7   2   11.81    1.90
  -3  -7   2   14.15    3.83
  -3  -7   3   33.00    5.08
  -3  -7   4  270.31   14.83
  -3  -7   5  400.40   18.44
  -3  -7   6  410.40   18.95
  -3  -7   7  196.17   12.94
  -3  -7   8  503.46   22.15
  -3  -7   9   39.17    6.58
  -3  -7  10  284.67   17.03
  -3  -7  11  692.05   28.83
  -3  -7  12  220.79   15.95
  -3  -7  13  574.71   27.40
  -3  -7  14  143.62   13.66
  -3  -7  15  278.47   19.80
  -3  -6 -10   59.82    8.90
  -3  -6  -9   66.01   10.51
  -3  -6  -8   30.31    6.57
  -3  -6  -7   97.23   10.00
  -3  -6  -6   69.10    8.19
  -3  -6  -5  445.71   15.11
  -3  -6  -5  408.89   13.76
  -3  -6  -5  409.69   19.86
  -3  -6  -5  434.41   18.68
  -3  -6  -4  133.10    6.82
  -3  -6  -4  132.99    7.33
  -3  -6  -4  134.82   10.59
  -3  -6  -4  147.75   10.09
  -3  -6  -3   13.02    1.97
  -3  -6  -3   15.66    4.33
  -3  -6  -3   11.49    3.15
  -3  -6  -2 1393.49   26.39
  -3  -6  -2 1290.44   37.56
  -3  -6  -2 1270.55   34.58
  -3  -6  -1  770.15   25.93
  -3  -6  -1  748.01   23.34
  -3  -6   0  237.68    9.91
  -3  -6   0  225.74   12.68
  -3  -6   0  237.43   11.66
  -3  -6   1  187.98   11.76
  -3  -6   1  189.31   11.56
  -3  -6   1  180.77    7.99
  -3  -6   2  711.52   24.64
  -3  -6   2  701.43   24.23
  -3  -6   2  723.03   18.34
  -3  -6   3  278.66   14.14
  -3  -6   3  282.83   14.16
  -3  -6   4  860.43   27.46
  -3  -6   4  847.37   27.34
  -3  -6   5  183.12   11.50
  -3  -6   5  179.65   11.42
  -3  -6   6    9.96    2.97
  -3  -6   6   10.58    3.45
  -3  -6   7   -0.83    2.26
  -3  -6   8    0.28    2.31
  -3  -6   9  188.54   12.87
  -3  -6  10   27.90    5.13
  -3  -6  11  531.05   24.16
  -3  -6  12   13.67    4.77
  -3  -6  13  149.52   13.42
  -3  -6  14    3.09    3.29
  -3  -6  15  310.54   20.81
  -3  -5 -10  133.79   13.48
  -3  -5  -9  215.03   15.42
  -3  -5  -8  409.20   20.65
  -3  -5  -7   53.75    7.20
  -3  -5  -6   23.31    3.19
  -3  -5  -6   21.40    4.79
  -3  -5  -6   25.61    4.47
  -3  -5  -5   15.74    2.58
  -3  -5  -5   12.06    2.73
  -3  -5  -5   24.45    4.86
  -3  -5  -5   14.58    3.16
  -3  -5  -4  262.60   10.44
  -3  -5  -4  245.20   10.34
  -3  -5  -4  241.24   13.53
  -3  -5  -4  260.64   12.70
  -3  -5  -3   53.35    4.01
  -3  -5  -3   49.94    5.93
  -3  -5  -3   58.26    5.55
  -3  -5  -2  556.87   13.97
  -3  -5  -2  526.92   20.16
  -3  -5  -2  579.83   18.60
  -3  -5  -1  993.44   19.92
  -3  -5  -1  986.38   28.92
  -3  -5  -1  973.61   26.19
  -3  -5   0  455.11   14.40
  -3  -5   0  384.75   16.34
  -3  -5   0  452.72   15.46
  -3  -5   1  269.90   13.31
  -3  -5   1  269.96   13.15
  -3  -5   1  286.55   10.42
  -3  -5   2  363.27   15.66
  -3  -5   2  368.50   15.40
  -3  -5   2  368.12   11.91
  -3  -5   3 3196.32   67.00
  -3  -5   3 3050.36   66.33
  -3  -5   4  298.71   14.04
  -3  -5   4  294.71   13.84
  -3  -5   5 1404.61   36.97
  -3  -5   5 1389.66   36.86
  -3  -5   6  394.94   17.08
  -3  -5   6  396.41   17.11
  -3  -5   7   16.72    3.55
  -3  -5   7   11.14    2.96
  -3  -5   8  135.85   10.18
  -3  -5   9  102.51    9.19
  -3  -5  10   37.28    6.02
  -3  -5  11    8.22    3.68
  -3  -5  12   35.62    6.48
  -3  -5  13   80.22    9.51
  -3  -5  14   70.72    9.44
  -3  -5  15  186.70   15.77
  -3  -4 -11  436.51   24.91
  -3  -4 -10  262.94   18.29
  -3  -4  -9  167.96   12.98
  -3  -4  -8  256.00   15.33
  -3  -4  -7  871.22   29.55
  -3  -4  -7  883.88   27.91
  -3  -4  -6   81.00    5.84
  -3  -4  -6   72.35    7.32
  -3  -4  -6   92.87    7.55
  -3  -4  -5   33.42    3.68
  -3  -4  -5   27.99    4.78
  -3  -4  -5   32.90    4.31
  -3  -4  -4  158.93    8.12
  -3  -4  -4  143.72    7.66
  -3  -4  -4  149.68    9.85
  -3  -4  -4  148.95    8.67
  -3  -4  -3    2.83    1.45
  -3  -4  -3    1.91    1.37
  -3  -4  -3   -0.31    1.88
  -3  -4  -3    2.05    1.45
  -3  -4  -2  183.31    7.25
  -3  -4  -2  174.61   10.08
  -3  -4  -2  190.61    9.00
  -3  -4  -1    2.18    1.00
  -3  -4  -1    1.44    2.12
  -3  -4  -1    2.32    1.48
  -3  -4   0  212.65    9.18
  -3  -4   0  221.48   10.91
  -3  -4   0  196.33    8.71
  -3  -4   1 2593.72   55.32
  -3  -4   1 2506.75   54.27
  -3  -4   1 2499.45   50.35
  -3  -4   2   72.46    6.24
  -3  -4   2   87.05    6.75
  -3  -4   2   82.11    5.22
  -3  -4   3 3198.68   66.74
  -3  -4   3 3284.44   66.92
  -3  -4   4 1867.23   43.03
  -3  -4   4 1799.09   42.89
  -3  -4   5  787.01   24.27
  -3  -4   5  809.96   24.61
  -3  -4   6 2219.25   50.60
  -3  -4   6 2128.47   50.35
  -3  -4   7 1068.98   30.67
  -3  -4   7  996.04   30.33
  -3  -4   8   57.95    6.49
  -3  -4   8   44.39    5.98
  -3  -4   9  598.90   23.31
  -3  -4  10  233.06   14.18
  -3  -4  11    7.95    3.07
  -3  -4  12  240.11   15.82
  -3  -4  13   24.02    5.58
  -3  -4  14   32.63    6.51
  -3  -4  15   52.58    8.57
  -3  -3 -12  303.63   20.81
  -3  -3 -11   73.17    9.74
  -3  -3 -10  306.65   19.25
  -3  -3  -9  546.68   25.21
  -3  -3  -8  629.70   24.25
  -3  -3  -8  669.36   23.58
  -3  -3  -7  520.64   20.61
  -3  -3  -7  523.49   19.51
  -3  -3  -6  792.59   22.28
  -3  -3  -6  746.53   24.95
  -3  -3  -6  806.14   23.97
  -3  -3  -5  291.32   11.71
  -3  -3  -5  301.92   13.84
  -3  -3  -5  306.92   12.60
  -3  -3  -4  123.46    7.27
  -3  -3  -4  122.66    7.04
  -3  -3  -4  120.74    8.21
  -3  -3  -4  124.05    7.25
  -3  -3  -3  158.60    7.67
  -3  -3  -3  150.79    7.83
  -3  -3  -3  154.94    8.92
  -3  -3  -3  170.06    7.92
  -3  -3  -2   65.51    4.42
  -3  -3  -2   77.14    6.07
  -3  -3  -2   71.28    4.76
  -3  -3  -1    9.78    1.76
  -3  -3  -1   14.13    2.85
  -3  -3  -1    8.92    1.71
  -3  -3   0  507.80   16.30
  -3  -3   0  502.25   15.39
  -3  -3   0  492.51   12.81
  -3  -3   1  505.15   16.61
  -3  -3   1  500.78   16.22
  -3  -3   1  486.64   14.80
  -3  -3   2   42.86    4.51
  -3  -3   2   42.58    4.45
  -3  -3   2   38.68    3.71
  -3  -3   3  240.97   10.65
  -3  -3   3  240.91   10.79
  -3  -3   4 1962.01   43.33
  -3  -3   4 1924.88   43.67
  -3  -3   5  631.56   19.97
  -3  -3   5  626.40   20.28
  -3  -3   6  235.21   11.54
  -3  -3   6  217.08   11.50
  -3  -3   7 1525.97   37.80
  -3  -3   7 1381.11   37.38
  -3  -3   8 1139.62   32.61
  -3  -3   8 1132.31   32.90
  -3  -3   9   81.22    7.96
  -3  -3  10  899.36   30.34
  -3  -3  11  336.30   18.05
  -3  -3  12   91.47    9.71
  -3  -3  13  311.33   18.82
  -3  -3  14   18.84    5.48
  -3  -3  15   -1.60    2.94
  -3  -3  16   -0.39    3.78
  -3  -2 -12   54.65    8.89
  -3  -2 -11   56.95    8.76
  -3  -2 -10    0.72    3.14
  -3  -2  -9 1184.91   38.85
  -3  -2  -8  125.86   10.86
  -3  -2  -8  133.65    9.37
  -3  -2  -7  311.04   14.64
  -3  -2  -7  338.19   14.37
  -3  -2  -6  652.91   23.42
  -3  -2  -6  641.48   21.32
  -3  -2  -6  656.09   20.36
  -3  -2  -5  688.51   20.14
  -3  -2  -5  697.32   21.28
  -3  -2  -5  657.80   19.41
  -3  -2  -4   67.33    5.54
  -3  -2  -4   81.02    5.73
  -3  -2  -4   82.79    6.13
  -3  -2  -4   76.31    5.13
  -3  -2  -3   92.09    5.92
  -3  -2  -3  104.36    6.35
  -3  -2  -3   98.80    6.49
  -3  -2  -3   91.54    5.19
  -3  -2  -2  378.90   12.19
  -3  -2  -2  383.84   13.11
  -3  -2  -2  374.64   10.75
  -3  -2  -1    8.85    1.92
  -3  -2  -1    8.88    2.18
  -3  -2  -1   10.45    1.54
  -3  -2   0   71.49    5.11
  -3  -2   0   68.49    4.30
  -3  -2   0   70.69    5.16
  -3  -2   1  500.60   15.27
  -3  -2   1  475.05   14.74
  -3  -2   1  514.34   15.10
  -3  -2   2   67.96    4.93
  -3  -2   2   64.51    5.00
  -3  -2   2   60.41    4.76
  -3  -2   3  731.08   20.00
  -3  -2   3  757.44   20.67
  -3  -2   4  710.15   20.07
  -3  -2   4  715.89   20.69
  -3  -2   5  677.59   20.19
  -3  -2   5  696.48   21.01
  -3  -2   6  798.83   23.04
  -3  -2   6  763.41   23.55
  -3  -2   7   49.42    5.32
  -3  -2   7   49.67    5.68
  -3  -2   8 1331.02   35.15
  -3  -2   8 1235.56   35.07
  -3  -2   9  666.09   23.45
  -3  -2   9  609.54   23.19
  -3  -2  10   81.39    8.30
  -3  -2  11  335.30   17.89
  -3  -2  12  435.55   21.64
  -3  -2  13  104.86   10.79
  -3  -2  14  342.41   20.75
  -3  -2  15  161.88   14.64
  -3  -1 -13   38.27    7.29
  -3  -1 -12  115.07   12.03
  -3  -1 -11   -0.57    3.06
  -3  -1 -10    4.37    2.75
  -3  -1  -9   42.39    6.70
  -3  -1  -9   39.97    5.41
  -3  -1  -8  105.42    9.41
  -3  -1  -8   96.89    7.80
  -3  -1  -7  350.42   16.31
  -3  -1  -7  300.82   15.58
  -3  -1  -7  303.48   13.30
  -3  -1  -6  470.27   18.80
  -3  -1  -6  450.63   16.17
  -3  -1  -6  453.61   15.54
  -3  -1  -5  871.77   26.38
  -3  -1  -5  863.38   23.98
  -3  -1  -5  847.87   23.11
  -3  -1  -5  864.41   22.18
  -3  -1  -4  407.09   16.01
  -3  -1  -4  434.64   15.14
  -3  -1  -4  402.94   14.22
  -3  -1  -4  413.65   13.68
  -3  -1  -4  405.96   12.39
  -3  -1  -3 1696.42   39.34
  -3  -1  -3 1661.54   36.83
  -3  -1  -3 1613.43   36.75
  -3  -1  -3 1654.64   35.29
  -3  -1  -3 1674.93   33.04
  -3  -1  -2 1101.08   27.89
  -3  -1  -2 1066.77   26.37
  -3  -1  -2 1077.06   25.75
  -3  -1  -2 1100.54   24.75
  -3  -1  -2 1089.75   21.67
  -3  -1  -1 1211.24   28.39
  -3  -1  -1 1119.74   25.99
  -3  -1  -1 1150.69   25.35
  -3  -1  -1 1140.68   21.29
  -3  -1   0   83.28    4.81
  -3  -1   0   82.90    5.02
  -3  -1   0   82.62    5.61
  -3  -1   1  466.02   13.41
  -3  -1   1  484.05   13.50
  -3  -1   1  464.15   14.56
  -3  -1   2  766.75   18.82
  -3  -1   2  785.54   19.49
  -3  -1   2  755.24   20.31
  -3  -1   3 1776.89   36.57
  -3  -1   3 1740.53   37.68
  -3  -1   4  695.78   18.77
  -3  -1   4  706.70   19.99
  -3  -1   5   20.65    3.08
  -3  -1   5   34.00    4.23
  -3  -1   6  105.09    7.02
  -3  -1   6  106.68    7.58
  -3  -1   7   90.20    6.98
  -3  -1   7   92.18    7.54
  -3  -1   8  156.07    9.77
  -3  -1   8  148.63   10.12
  -3  -1   9  883.01   27.57
  -3  -1   9  799.65   27.52
  -3  -1  10   72.91    7.93
  -3  -1  11   18.41    4.34
  -3  -1  12  379.70   20.10
  -3  -1  13    0.17    3.02
  -3  -1  14  144.53   13.15
  -3  -1  15  541.90   27.66
  -3   0 -13   11.00    4.89
  -3   0 -12   24.77    5.68
  -3   0 -11  184.95   14.40
  -3   0 -10  143.21   12.01
  -3   0  -9  370.40   18.72
  -3   0  -9  375.97   16.46
  -3   0  -8  110.08    9.45
  -3   0  -8  129.23    8.74
  -3   0  -7   34.01    5.31
  -3   0  -7   39.61    5.24
  -3   0  -7   48.62    4.89
  -3   0  -6  173.15   10.46
  -3   0  -6  169.81   10.48
  -3   0  -6  170.94    8.65
  -3   0  -5   42.65    5.09
  -3   0  -5   51.19    4.95
  -3   0  -5   38.23    4.79
  -3   0  -5   52.52    4.35
  -3   0  -5   54.90    4.21
  -3   0  -4  857.45   24.78
  -3   0  -4  827.87   23.22
  -3   0  -4  866.01   24.06
  -3   0  -4  840.52   20.49
  -3   0  -4  859.69   19.94
  -3   0  -3  668.72   20.24
  -3   0  -3  670.58   19.44
  -3   0  -3  684.83   19.65
  -3   0  -3  666.61   16.33
  -3   0  -3  672.58   15.21
  -3   0  -2 1573.81   35.25
  -3   0  -2 1516.00   34.25
  -3   0  -2 1466.11   34.23
  -3   0  -2 1533.70   30.41
  -3   0  -2 1559.06   28.15
  -3   0  -1  975.89   24.02
  -3   0  -1  955.06   20.29
  -3   0  -1  961.94   23.44
  -3   0  -1  974.52   24.18
  -3   0   0 1430.76   30.97
  -3   0   0 1433.97   28.21
  -3   0   0 1430.34   32.06
  -3   0   0 1379.45   31.04
  -3   0   1  182.51    7.26
  -3   0   1  184.71    6.48
  -3   0   1  184.51    6.80
  -3   0   1  178.89    8.03
  -3   0   1  183.61    8.53
  -3   0   2 5687.82  100.76
  -3   0   2 5733.09  102.56
  -3   0   2 5783.78  105.32
  -3   0   3 3866.16   70.55
  -3   0   3 3865.35   72.85
  -3   0   4   70.42    4.61
  -3   0   4   63.15    5.13
  -3   0   5  176.42    8.29
  -3   0   5  181.32    9.29
  -3   0   6  150.33    8.12
  -3   0   6  125.47    8.38
  -3   0   7    2.16    1.69
  -3   0   7    6.24    2.57
  -3   0   8  255.46   12.49
  -3   0   8  225.11   12.61
  -3   0   9   24.42    4.19
  -3   0   9   21.95    4.49
  -3   0  10   83.67    8.48
  -3   0  11  121.07   10.72
  -3   0  12  265.82   16.89
  -3   0  13  156.35   13.50
  -3   0  14  270.82   18.61
  -3   0  15  258.19   18.80
  -3   1 -13  676.83   31.00
  -3   1 -12  154.75   13.83
  -3   1 -11  273.31   17.32
  -3   1 -10  528.95   23.56
  -3   1  -9  353.79   17.90
  -3   1  -9  391.51   16.60
  -3   1  -8    1.63    2.31
  -3   1  -8   -0.86    1.64
  -3   1  -7  600.82   21.91
  -3   1  -7  664.13   23.27
  -3   1  -7  653.47   20.05
  -3   1  -6    7.72    2.75
  -3   1  -6    4.33    2.29
  -3   1  -6    4.13    1.77
  -3   1  -5   19.94    3.67
  -3   1  -5   17.89    3.27
  -3   1  -5   22.37    3.73
  -3   1  -4   12.85    2.94
  -3   1  -4   13.23    2.83
  -3   1  -4   17.80    3.20
  -3   1  -4   15.78    3.24
  -3   1  -3   22.54    3.39
  -3   1  -3   25.37    1.98
  -3   1  -3   24.72    3.65
  -3   1  -3   28.11    3.77
  -3   1  -3   24.63    3.21
  -3   1  -2  728.24   19.94
  -3   1  -2  694.57   19.73
  -3   1  -2  689.50   19.67
  -3   1  -2  701.58   14.05
  -3   1  -1  511.04   15.25
  -3   1  -1  505.18   15.66
  -3   1  -1  516.61   15.67
  -3   1  -1  520.95   16.07
  -3   1  -1  521.36   10.78
  -3   1  -1  521.55   10.52
  -3   1   0  735.77   18.49
  -3   1   0  736.32   19.70
  -3   1   0  718.40   19.77
  -3   1   0  740.83   20.08
  -3   1   0  752.92   15.51
  -3   1   0  761.25   14.87
  -3   1   1 2126.30   40.97
  -3   1   1 2123.02   38.09
  -3   1   1 2171.72   44.49
  -3   1   1 2089.45   44.07
  -3   1   1 2085.27   40.03
  -3   1   1 2127.56   39.28
  -3   1   2 1657.04   30.97
  -3   1   2 1643.57   31.86
  -3   1   2 1717.88   37.04
  -3   1   2 1665.31   33.74
  -3   1   2 1615.12   32.95
  -3   1   3 4134.45   74.35
  -3   1   3 4178.10   77.46
  -3   1   4  754.56   18.23
  -3   1   4  716.64   20.24
  -3   1   5  808.64   20.75
  -3   1   5  767.66   22.46
  -3   1   6 1709.21   38.57
  -3   1   6 1718.64   40.77
  -3   1   7  130.12    8.11
  -3   1   7  113.04    8.39
  -3   1   8   25.90    4.16
  -3   1   8   22.76    4.51
  -3   1   9  136.52   10.27
  -3   1  10    8.54    3.62
  -3   1  11    3.36    3.14
  -3   1  12   -1.45    3.66
  -3   1  13   28.02    6.01
  -3   1  14  403.37   23.09
  -3   1  15  219.07   17.56
  -3   2 -14  149.41   14.38
  -3   2 -13   53.62    8.41
  -3   2 -12  319.52   19.50
  -3   2 -11  552.27   24.92
  -3   2 -10  708.99   27.41
  -3   2  -9 1806.36   47.91
  -3   2  -8  770.45   26.08
  -3   2  -7 1136.12   32.71
  -3   2  -7 1097.34   31.34
  -3   2  -6  899.75   28.02
  -3   2  -6  970.84   28.43
  -3   2  -6  939.28   26.67
  -3   2  -5   90.96    7.57
  -3   2  -5  101.02    6.87
  -3   2  -5   94.62    7.32
  -3   2  -4  183.80    9.97
  -3   2  -4  190.21   10.16
  -3   2  -4  196.64    8.86
  -3   2  -3    0.67    1.82
  -3   2  -3   -0.51    1.42
  -3   2  -3    3.18    1.60
  -3   2  -3   -0.01    1.57
  -3   2  -2  564.30   17.67
  -3   2  -2  588.93   18.00
  -3   2  -2  593.10   17.60
  -3   2  -2  599.64   14.50
  -3   2  -2  581.34   13.93
  -3   2  -1   -0.44    1.60
  -3   2  -1    0.78    0.87
  -3   2  -1    2.70    1.81
  -3   2  -1    6.71    2.12
  -3   2  -1    2.90    1.73
  -3   2  -1    1.05    0.93
  -3   2   0  854.21   20.59
  -3   2   0  852.78   21.93
  -3   2   0  871.84   22.54
  -3   2   0  773.27   22.03
  -3   2   0  871.77   17.23
  -3   2   0  877.92   17.24
  -3   2   0  860.98   18.73
  -3   2   1  212.16    7.50
  -3   2   1  226.20    9.87
  -3   2   1  222.13    9.11
  -3   2   1  227.39    9.78
  -3   2   1  219.78    7.25
  -3   2   1  217.26    7.20
  -3   2   1  219.57    7.74
  -3   2   2 2450.20   45.15
  -3   2   2 2468.45   47.67
  -3   2   2 2439.13   47.55
  -3   2   2 2446.60   47.95
  -3   2   3   18.81    1.48
  -3   2   3   27.04    3.30
  -3   2   3   20.58    3.11
  -3   2   3   15.06    2.72
  -3   2   4 2189.31   47.39
  -3   2   4 2307.49   47.60
  -3   2   4 2228.32   47.34
  -3   2   5  919.06   25.39
  -3   2   5  883.78   24.81
  -3   2   5  875.98   24.76
  -3   2   6  744.48   23.36
  -3   2   6  724.69   22.96
  -3   2   7 1429.70   37.72
  -3   2   7 1388.34   37.12
  -3   2   8  988.38   31.17
  -3   2   8 1047.46   31.52
  -3   2   9   18.29    4.37
  -3   2  10  376.57   19.00
  -3   2  11  116.96   10.96
  -3   2  12  179.46   14.22
  -3   2  13    8.34    4.45
  -3   2  14    2.56    2.91
  -3   3 -14  148.23   14.28
  -3   3 -13    9.40    3.85
  -3   3 -12   48.98    7.90
  -3   3 -11  354.91   19.31
  -3   3 -10  362.01   18.48
  -3   3  -9  290.01   15.58
  -3   3  -8  343.22   16.11
  -3   3  -7  224.84   13.33
  -3   3  -7  228.07   11.94
  -3   3  -7  219.62   12.51
  -3   3  -6  605.18   21.72
  -3   3  -6  568.60   19.31
  -3   3  -6  616.55   21.63
  -3   3  -5 1513.58   38.59
  -3   3  -5 1571.35   35.85
  -3   3  -5 1495.94   38.18
  -3   3  -4 2168.44   49.02
  -3   3  -4 2160.84   44.98
  -3   3  -4 2224.30   48.91
  -3   3  -3  341.19   13.61
  -3   3  -3  346.10   10.85
  -3   3  -3  327.97   13.15
  -3   3  -3  321.54   10.85
  -3   3  -2   40.70    4.37
  -3   3  -2   39.86    4.44
  -3   3  -2   36.03    4.05
  -3   3  -2   41.09    2.86
  -3   3  -2   44.52    3.51
  -3   3  -2   41.80    4.13
  -3   3  -1   23.53    3.13
  -3   3  -1   30.08    1.89
  -3   3  -1   30.95    3.62
  -3   3  -1   29.67    3.49
  -3   3  -1   25.91    3.64
  -3   3  -1   30.43    1.72
  -3   3  -1   22.72    2.59
  -3   3  -1   29.34    1.68
  -3   3   0  220.71    9.44
  -3   3   0  228.92    9.63
  -3   3   0  209.89    9.91
  -3   3   0  217.92    6.82
  -3   3   0  213.91    8.27
  -3   3   0  213.61    8.60
  -3   3   0  223.63    6.77
  -3   3   1  174.97    8.57
  -3   3   1  168.05    8.73
  -3   3   1  167.46    7.85
  -3   3   1  171.42    6.79
  -3   3   1  171.28    6.70
  -3   3   1  170.65    6.83
  -3   3   1  175.60    7.73
  -3   3   2    7.55    1.48
  -3   3   2    4.85    2.04
  -3   3   2    5.93    1.84
  -3   3   2    7.18    2.01
  -3   3   2    5.78    2.03
  -3   3   3  875.83   22.80
  -3   3   3  884.67   22.78
  -3   3   3  864.65   18.06
  -3   3   3  902.55   23.54
  -3   3   4    4.02    0.75
  -3   3   4    3.55    1.53
  -3   3   4    6.93    2.46
  -3   3   4    4.37    2.16
  -3   3   5  798.01   23.64
  -3   3   5  778.50   23.56
  -3   3   5  766.18   23.27
  -3   3   6  306.22   14.01
  -3   3   6  282.60   13.56
  -3   3   6  292.24   13.81
  -3   3   7  804.29   25.76
  -3   3   7  695.54   24.49
  -3   3   8 1030.47   32.18
  -3   3   9  246.48   14.65
  -3   3  10   12.99    3.95
  -3   3  11  199.69   14.81
  -3   3  12  359.89   20.94
  -3   3  13   99.75   11.33
  -3   3  14  112.12   12.58
  -3   4 -14   23.96    6.22
  -3   4 -13   35.44    7.09
  -3   4 -12    7.03    3.40
  -3   4 -11    9.10    3.59
  -3   4 -10  193.52   13.25
  -3   4  -9   86.74    8.50
  -3   4  -8  218.03   12.51
  -3   4  -7  431.49   17.16
  -3   4  -7  437.36   18.75
  -3   4  -6  527.24   20.72
  -3   4  -6  605.01   21.49
  -3   4  -6  570.59   19.04
  -3   4  -5  789.11   24.95
  -3   4  -5  789.71   21.92
  -3   4  -5  761.60   17.23
  -3   4  -5  792.10   24.81
  -3   4  -4 1122.81   30.35
  -3   4  -4 1090.79   26.17
  -3   4  -4 1047.24   29.47
  -3   4  -4 1100.97   27.08
  -3   4  -4 1088.04   21.57
  -3   4  -3  152.37    6.76
  -3   4  -3  145.61    8.89
  -3   4  -3  141.88    4.50
  -3   4  -3  149.12    8.62
  -3   4  -3  154.77    7.78
  -3   4  -2   22.55    2.34
  -3   4  -2   22.58    3.29
  -3   4  -2   25.72    3.51
  -3   4  -2   30.16    4.01
  -3   4  -2   25.85    1.84
  -3   4  -2   25.39    3.22
  -3   4  -1  668.19   14.32
  -3   4  -1  690.41   19.10
  -3   4  -1  581.98   18.76
  -3   4  -1  670.24   20.15
  -3   4  -1  632.56   14.82
  -3   4  -1  636.18   18.04
  -3   4  -1  670.42   19.00
  -3   4   0  381.68   14.25
  -3   4   0  365.30   13.12
  -3   4   0  394.07   13.48
  -3   4   0  374.16   11.03
  -3   4   0  369.62   12.55
  -3   4   0  381.54   12.95
  -3   4   1   89.36    6.55
  -3   4   1   89.23    5.60
  -3   4   1   93.50    5.42
  -3   4   1   90.07    6.10
  -3   4   2  963.28   23.56
  -3   4   2  977.77   24.52
  -3   4   2 1018.60   25.99
  -3   4   3    3.33    1.32
  -3   4   3    9.07    2.43
  -3   4   3    0.99    1.93
  -3   4   4  610.63   16.19
  -3   4   4  646.66   20.21
  -3   4   4  618.96   20.37
  -3   4   4  591.64   19.50
  -3   4   5    2.76    1.35
  -3   4   5   -2.81    2.43
  -3   4   5   -0.80    2.11
  -3   4   5   -1.86    2.62
  -3   4   6  550.65   12.12
  -3   4   6  580.71   21.22
  -3   4   6  546.63   20.72
  -3   4   6  558.84   20.61
  -3   4   7  464.01   10.28
  -3   4   7  433.82   19.06
  -3   4   7  471.82   19.45
  -3   4   8  216.10    5.98
  -3   4   8  244.88   14.23
  -3   4   8  226.88   13.75
  -3   4   9  404.53   19.81
  -3   4  10  135.16   11.74
  -3   4  11  181.38   14.38
  -3   4  12  301.34   19.47
  -3   4  13  280.13   19.50
  -3   5 -14  663.00   31.11
  -3   5 -13   21.98    5.64
  -3   5 -12   55.58    8.15
  -3   5 -11  208.00   14.48
  -3   5 -10  330.56   17.55
  -3   5  -9   16.75    4.01
  -3   5  -8    2.80    2.49
  -3   5  -8    0.58    1.35
  -3   5  -7  215.33   11.60
  -3   5  -7  209.16    8.65
  -3   5  -6  528.36   20.92
  -3   5  -6  544.47   18.57
  -3   5  -6  564.31   21.11
  -3   5  -6  522.91   14.49
  -3   5  -5  330.82   12.98
  -3   5  -5  329.46   15.26
  -3   5  -5  326.79    9.91
  -3   5  -5  358.57   15.66
  -3   5  -5  314.51   13.43
  -3   5  -4  562.94   16.68
  -3   5  -4  544.49   19.60
  -3   5  -4  534.78   13.37
  -3   5  -4  539.49   17.89
  -3   5  -4  528.77   19.38
  -3   5  -3  667.36   17.66
  -3   5  -3  658.90   21.44
  -3   5  -3  739.86   20.51
  -3   5  -3  638.85   15.47
  -3   5  -3  651.76   19.91
  -3   5  -3  687.09   21.70
  -3   5  -2  843.87   19.29
  -3   5  -2  847.83   22.28
  -3   5  -2  736.83   23.16
  -3   5  -2  763.70   18.29
  -3   5  -2  835.67   23.77
  -3   5  -2  827.43   22.82
  -3   5  -1  803.29   23.86
  -3   5  -1  882.12   22.70
  -3   5  -1  789.48   19.57
  -3   5  -1  868.98   23.31
  -3   5   0 1814.77   42.29
  -3   5   0 1894.97   40.57
  -3   5   0 1814.97   38.31
  -3   5   0 1836.59   41.46
  -3   5   1   45.50    4.18
  -3   5   1   38.35    3.94
  -3   5   1   50.17    4.89
  -3   5   2 2036.16   42.20
  -3   5   2 2080.33   44.66
  -3   5   2 1977.16   45.85
  -3   5   3  592.88   16.20
  -3   5   3  602.44   19.56
  -3   5   3  602.32   20.37
  -3   5   4   31.44    2.97
  -3   5   4   27.51    4.14
  -3   5   4   24.28    4.06
  -3   5   5    1.83    1.13
  -3   5   5    1.94    2.42
  -3   5   5   -0.91    2.32
  -3   5   6    6.06    1.43
  -3   5   6    4.82    1.34
  -3   5   6    3.63    2.04
  -3   5   6    2.85    2.49
  -3   5   6    7.82    3.34
  -3   5   7    0.34    0.81
  -3   5   7    0.54    1.02
  -3   5   7    1.12    2.35
  -3   5   7   -1.45    3.15
  -3   5   8   44.88    2.87
  -3   5   8   44.83    3.06
  -3   5   8   44.97    6.57
  -3   5   8   41.79    6.23
  -3   5   9    2.26    0.85
  -3   5   9    2.19    1.10
  -3   5   9    2.11    2.48
  -3   5   9   -4.20    3.77
  -3   5  10  201.06   14.89
  -3   5  10  210.74    7.11
  -3   5  11  385.23   21.82
  -3   5  12  367.96   22.14
  -3   5  13   60.60    9.42
  -3   6 -14  368.40   22.56
  -3   6 -13  453.70   24.19
  -3   6 -12  143.31   12.69
  -3   6 -11  310.56   17.96
  -3   6 -10  948.01   32.39
  -3   6  -9   17.10    4.14
  -3   6  -9   21.37    3.31
  -3   6  -8    5.28    2.50
  -3   6  -8    4.16    1.54
  -3   6  -7  407.43   16.86
  -3   6  -7  378.23   12.90
  -3   6  -6   20.90    4.29
  -3   6  -6   21.57    3.67
  -3   6  -6   21.32    4.12
  -3   6  -6   26.26    2.99
  -3   6  -5  117.61    7.57
  -3   6  -5  120.34    9.02
  -3   6  -5  109.75    5.77
  -3   6  -5  109.81    8.13
  -3   6  -5  125.80    9.38
  -3   6  -4    3.04    1.85
  -3   6  -4    5.67    2.17
  -3   6  -4    6.35    2.29
  -3   6  -4    8.24    2.90
  -3   6  -4    7.91    1.74
  -3   6  -4    2.13    2.38
  -3   6  -3  125.77    6.82
  -3   6  -3  126.35    8.61
  -3   6  -3  123.00    7.34
  -3   6  -3  117.14    5.98
  -3   6  -3  113.69    8.00
  -3   6  -2  976.83   23.59
  -3   6  -2 1063.04   25.89
  -3   6  -2 1007.61   28.24
  -3   6  -2  945.52   23.36
  -3   6  -2 1010.89   27.89
  -3   6  -1  489.72   17.47
  -3   6  -1  470.52   15.17
  -3   6  -1  420.21   13.93
  -3   6  -1  424.50   16.35
  -3   6   0  656.66   21.16
  -3   6   0  613.74   18.45
  -3   6   0  642.69   20.95
  -3   6   1 1269.35   31.27
  -3   6   1 1240.11   33.04
  -3   6   2 1001.20   27.59
  -3   6   2  999.09   28.96
  -3   6   3  615.45   20.78
  -3   6   3  569.67   21.12
  -3   6   4  915.30   28.26
  -3   6   4  951.41   29.43
  -3   6   5  861.21   28.19
  -3   6   5  877.67   28.81
  -3   6   6   15.25    4.18
  -3   6   7  434.80   13.09
  -3   6   7  405.77   19.46
  -3   6   7  394.07   19.62
  -3   6   8  177.21    7.54
  -3   6   8  158.77   12.57
  -3   6   8  176.39   13.12
  -3   6   9   19.88    2.49
  -3   6   9   27.78    8.47
  -3   6   9   25.83    5.63
  -3   6  10   -0.53    2.98
  -3   6  11   71.33    9.81
  -3   6  12   47.63    8.24
  -3   7 -14  127.66   13.24
  -3   7 -13  217.55   16.52
  -3   7 -12  563.09   26.32
  -3   7 -11  582.19   25.62
  -3   7 -10  651.76   26.05
  -3   7 -10  622.43   20.64
  -3   7  -9  406.01   19.05
  -3   7  -9  400.40   15.12
  -3   7  -8 1068.43   32.32
  -3   7  -8 1062.08   33.26
  -3   7  -8 1025.19   26.90
  -3   7  -7  365.28   16.30
  -3   7  -7  363.62   13.14
  -3   7  -7  374.24   17.38
  -3   7  -6  457.79   17.59
  -3   7  -6  450.51   14.62
  -3   7  -6  445.99   18.86
  -3   7  -5   77.65    6.31
  -3   7  -5   77.96    7.37
  -3   7  -5   77.90    6.43
  -3   7  -5   71.62    5.18
  -3   7  -5   85.95    7.60
  -3   7  -4  275.90   11.86
  -3   7  -4  292.00   14.22
  -3   7  -4  275.52   11.85
  -3   7  -4  255.49   10.36
  -3   7  -4  280.68   13.83
  -3   7  -3   83.66    6.09
  -3   7  -3   70.86    5.65
  -3   7  -3   80.82    7.18
  -3   7  -3   77.60    5.46
  -3   7  -3   81.27    7.24
  -3   7  -2   21.84    3.22
  -3   7  -2   25.19    4.12
  -3   7  -2   21.13    3.10
  -3   7  -2   21.08    4.07
  -3   7  -1  208.10   11.28
  -3   7  -1  192.60    9.66
  -3   7  -1  207.00   11.64
  -3   7   0   29.25    4.40
  -3   7   0   18.96    3.26
  -3   7   0   26.25    4.57
  -3   7   1  855.89   25.14
  -3   7   1  826.65   26.74
  -3   7   2  695.83   22.73
  -3   7   2  637.76   23.23
  -3   7   3   76.40    7.10
  -3   7   3   66.92    7.17
  -3   7   4  671.64   24.17
  -3   7   4  631.00   24.19
  -3   7   5 1943.07   51.05
  -3   7   6  119.04   10.55
  -3   7   7 1277.11   30.15
  -3   7   7 1231.00   39.84
  -3   7   8  137.57    7.33
  -3   7   8  141.66   13.27
  -3   7   8  134.89   11.91
  -3   7   9   11.75    4.39
  -3   7   9   -0.42    3.83
  -3   7  10  262.11   18.36
  -3   7  10  283.71   18.84
  -3   7  11   62.69    9.38
  -3   8 -14  177.71   15.57
  -3   8 -13   46.61    7.95
  -3   8 -12  205.93   15.42
  -3   8 -11  316.86   18.70
  -3   8 -10  182.92   13.34
  -3   8 -10  170.69   13.26
  -3   8  -9   21.33    4.52
  -3   8  -9    9.61    2.60
  -3   8  -9   24.92    5.60
  -3   8  -8  490.22   20.75
  -3   8  -8  510.16   17.42
  -3   8  -8  493.82   22.02
  -3   8  -7  299.46   14.85
  -3   8  -7  290.65   12.24
  -3   8  -7  266.37   15.33
  -3   8  -6  195.08   11.29
  -3   8  -6  189.80   10.51
  -3   8  -6  187.30    9.43
  -3   8  -6  202.58   12.76
  -3   8  -5 1939.64   45.60
  -3   8  -5 1989.81   48.99
  -3   8  -5 1959.94   44.02
  -3   8  -5 1870.94   42.46
  -3   8  -5 1899.19   48.97
  -3   8  -4   60.02    5.71
  -3   8  -4   62.93    5.41
  -3   8  -4   50.88    5.96
  -3   8  -4   62.11    5.30
  -3   8  -4   48.14    6.23
  -3   8  -3   21.76    3.45
  -3   8  -3   21.90    4.05
  -3   8  -3   19.03    3.26
  -3   8  -3   26.24    3.74
  -3   8  -3   28.39    4.82
  -3   8  -2   52.09    4.69
  -3   8  -2   41.44    5.26
  -3   8  -2   41.07    4.59
  -3   8  -2   44.17    5.90
  -3   8  -1   75.17    6.88
  -3   8  -1   78.19    6.49
  -3   8  -1   68.49    7.30
  -3   8   0  287.81   13.43
  -3   8   0  271.16   14.54
  -3   8   1   85.77    7.40
  -3   8   1   78.71    7.93
  -3   8   2  510.37   19.95
  -3   8   2  453.89   20.21
  -3   8   3  126.68   10.43
  -3   8   4  130.38   10.81
  -3   8   5  316.59   17.81
  -3   8   6  616.33   26.44
  -3   8   7  208.12   10.43
  -3   8   7  238.78   16.22
  -3   8   8  216.68   10.32
  -3   8   8  178.98   14.62
  -3   8   9  161.32   14.20
  -3   8   9  146.53   13.68
  -3   8  10  110.14   11.98
  -3   8  10  112.84   12.35
  -3   9 -13   19.66    5.39
  -3   9 -13   15.82    5.40
  -3   9 -12    0.68    2.93
  -3   9 -12   11.29    5.02
  -3   9 -11   72.93    9.28
  -3   9 -11   74.31    9.47
  -3   9 -10  246.18   15.75
  -3   9 -10  201.82   15.19
  -3   9  -9  257.69   15.46
  -3   9  -9  250.13   16.39
  -3   9  -8  288.60   15.69
  -3   9  -8  284.47   13.05
  -3   9  -8  279.60   16.86
  -3   9  -7  220.68   13.19
  -3   9  -7  238.80   12.17
  -3   9  -7  215.84   11.14
  -3   9  -7  227.53   14.77
  -3   9  -6  303.54   14.81
  -3   9  -6  278.98   12.68
  -3   9  -6  260.84   12.30
  -3   9  -6  280.31   16.04
  -3   9  -5  141.77    9.67
  -3   9  -5  154.42    8.69
  -3   9  -5  123.73    8.25
  -3   9  -5  144.68   11.36
  -3   9  -4    2.08    1.92
  -3   9  -4    0.21    1.66
  -3   9  -4    7.01    2.91
  -3   9  -4    1.37    1.51
  -3   9  -4   -0.10    2.27
  -3   9  -3   89.71    8.02
  -3   9  -3   87.79    6.07
  -3   9  -3   79.87    6.84
  -3   9  -3   86.55    8.61
  -3   9  -2    3.12    1.98
  -3   9  -2    4.27    2.74
  -3   9  -1  276.38   13.92
  -3   9  -1  254.08   13.08
  -3   9  -1  253.68   14.96
  -3   9   0   73.15    7.16
  -3   9   0   73.18    8.08
  -3   9   1  131.73    9.88
  -3   9   1  115.55   10.09
  -3   9   2    2.12    2.54
  -3   9   3  388.50   19.90
  -3   9   4  419.68   21.17
  -3   9   5  128.41   11.77
  -3   9   6  304.79   18.87
  -3   9   7  326.43   14.37
  -3   9   7  310.09   19.63
  -3   9   8   69.86    9.64
  -3   9   9  336.11   21.63
  -3   9   9  332.21   21.25
  -3  10 -13   90.70   11.20
  -3  10 -13   90.55   11.50
  -3  10 -12   47.58    7.97
  -3  10 -12   49.83    8.54
  -3  10 -11   12.68    4.45
  -3  10 -11   28.90    6.21
  -3  10 -10   13.46    4.44
  -3  10 -10   15.80    5.58
  -3  10  -9   15.66    4.72
  -3  10  -9    9.83    4.42
  -3  10  -8  112.52    8.50
  -3  10  -8   94.96    9.23
  -3  10  -8  102.06   10.46
  -3  10  -7  344.12   17.50
  -3  10  -7  384.21   15.37
  -3  10  -7  348.82   15.43
  -3  10  -7  344.87   19.42
  -3  10  -6  344.48   16.81
  -3  10  -6  329.63   13.55
  -3  10  -6  315.69   14.58
  -3  10  -6  327.96   18.55
  -3  10  -5  799.65   26.61
  -3  10  -5  804.80   22.41
  -3  10  -5  754.17   24.60
  -3  10  -5  728.17   29.08
  -3  10  -4  115.17    7.00
  -3  10  -4  111.02    8.36
  -3  10  -4  105.71   10.14
  -3  10  -3 1138.49   33.55
  -3  10  -3 1051.21   31.34
  -3  10  -3 1077.30   36.05
  -3  10  -2  395.87   17.71
  -3  10  -2  382.27   17.08
  -3  10  -2  399.34   20.04
  -3  10  -1  314.42   15.67
  -3  10  -1  310.22   17.45
  -3  10   0  533.80   23.81
  -3  10   1   16.49    4.62
  -3  10   2  277.31   17.19
  -3  10   3  632.32   27.41
  -3  10   4   12.42    4.59
  -3  10   5   50.32    8.13
  -3  10   6   -0.15    3.65
  -3  10   7  121.58   12.66
  -3  10   8   92.96   11.42
  -3  11 -13  254.93   18.81
  -3  11 -12   42.60    7.69
  -3  11 -12   62.97   10.08
  -3  11 -11   95.54   10.68
  -3  11 -11   91.29   11.34
  -3  11 -10  276.50   17.83
  -3  11 -10  292.35   19.75
  -3  11  -9   80.11    9.31
  -3  11  -9   63.31    9.13
  -3  11  -8   -1.41    2.55
  -3  11  -8    7.88    4.26
  -3  11  -7   19.85    3.45
  -3  11  -7   18.24    4.54
  -3  11  -7   11.39    4.05
  -3  11  -6  109.08    7.09
  -3  11  -6  104.65    9.59
  -3  11  -6  111.79   11.30
  -3  11  -5   29.40    6.15
  -3  11  -4  338.74   19.51
  -3  11  -3   47.27    7.35
  -3  11  -2  890.84   29.42
  -3  11  -2  894.77   33.72
  -3  11  -1  313.49   18.76
  -3  11   0  302.58   18.42
  -3  11   1  234.97   16.42
  -3  11   2  365.42   20.99
  -3  11   3  669.09   29.67
  -3  11   4  267.72   18.44
  -3  11   5   73.59   10.20
  -3  11   6   60.84    9.42
  -3  11   7   20.46    6.14
  -3  12 -12  250.99   18.49
  -3  12 -11  120.21   12.50
  -3  12 -10   89.61   10.77
  -3  12 -10  120.91   13.01
  -3  12  -9  132.27   12.31
  -3  12  -9  113.13   12.35
  -3  12  -8  117.76   11.29
  -3  12  -8  134.05   13.32
  -3  12  -7   89.65    9.50
  -3  12  -7   96.03   11.55
  -3  12  -6    5.73    3.73
  -3  12  -5   22.11    5.64
  -3  12  -4  119.32   12.11
  -3  12  -3    6.58    3.42
  -3  12  -2   16.49    5.14
  -3  12  -1  329.06   20.25
  -3  12   0   62.15    8.90
  -3  12   1  258.76   18.21
  -3  12   2  415.78   23.58
  -3  12   3  159.28   14.60
  -3  12   4  411.55   24.20
  -3  12   5  234.20   18.42
  -3  13 -11  146.70   14.24
  -3  13 -10  170.41   15.03
  -3  13  -9   50.31    8.12
  -3  13  -8  289.41   20.44
  -3  13  -7  117.45   12.96
  -3  13  -6   58.68    9.35
  -3  13  -5   20.30    6.14
  -3  13  -4    1.44    3.60
  -3  13  -3   40.10    7.67
  -3  13  -2    7.31    4.61
  -3  13  -1   98.84   11.63
  -3  13   0   78.15   10.43
  -3  13   1  109.21   12.35
  -3  13   2  130.67   13.70
  -3  14  -4   16.53    5.47
  -3  14  -3   90.80   11.77
  -3  14  -2    1.24    4.22
  -2 -13   0  360.21   23.25
  -2 -13   1  316.78   21.42
  -2 -13   2  415.55   24.56
  -2 -13   3  130.69   13.39
  -2 -13   4  336.39   21.77
  -2 -13   5  218.68   17.23
  -2 -13   6  100.06   11.70
  -2 -13   7  154.11   14.94
  -2 -13   8   -2.69    2.99
  -2 -13   9   -0.69    3.61
  -2 -13  10   -0.64    4.16
  -2 -12  -3    6.42    3.23
  -2 -12  -2  204.30   17.02
  -2 -12  -1  169.75   15.13
  -2 -12   0   26.37    6.14
  -2 -12   1  188.42   15.64
  -2 -12   2  424.75   23.56
  -2 -12   3  254.84   17.96
  -2 -12   4  237.46   17.31
  -2 -12   5  241.92   17.45
  -2 -12   6  139.43   13.30
  -2 -12   7  135.32   13.11
  -2 -12   8   80.12   10.07
  -2 -12   9   88.60   10.94
  -2 -12  10    7.09    4.15
  -2 -12  11   12.17    5.00
  -2 -12  12    0.02    3.79
  -2 -11  -5  131.70   13.90
  -2 -11  -4   14.30    5.16
  -2 -11  -3   14.27    4.90
  -2 -11  -2    4.26    3.28
  -2 -11  -1  113.07   11.96
  -2 -11   0   41.11    7.27
  -2 -11   1  166.93   14.07
  -2 -11   2  265.73   17.62
  -2 -11   3  200.84   15.14
  -2 -11   4   61.58    8.47
  -2 -11   5  713.95   29.95
  -2 -11   6  587.47   26.87
  -2 -11   7  363.71   20.82
  -2 -11   8  229.11   16.59
  -2 -11   9  248.26   17.35
  -2 -11  10  182.99   15.05
  -2 -11  11   33.12    7.16
  -2 -11  12  170.02   14.99
  -2 -11  13    0.55    3.88
  -2 -10  -6  413.77   24.22
  -2 -10  -5  229.98   17.53
  -2 -10  -4  256.43   18.01
  -2 -10  -3  352.66   20.95
  -2 -10  -2    8.51    3.75
  -2 -10  -1  294.62   18.39
  -2 -10   0   16.54    1.66
  -2 -10   0    8.32    3.74
  -2 -10   1  167.31   13.32
  -2 -10   2   22.62    5.22
  -2 -10   3   27.56    5.77
  -2 -10   4  144.14   12.16
  -2 -10   5  294.45   17.51
  -2 -10   6  742.02   29.57
  -2 -10   7  976.34   34.90
  -2 -10   8  186.35   14.06
  -2 -10   9  235.36   16.14
  -2 -10  10  377.53   21.18
  -2 -10  11  215.37   16.23
  -2 -10  12  208.80   16.27
  -2 -10  13  128.49   13.11
  -2 -10  14   41.35    7.38
  -2  -9  -8  262.46   19.32
  -2  -9  -7  199.16   16.45
  -2  -9  -6  735.11   31.96
  -2  -9  -5  957.90   36.56
  -2  -9  -4  312.52   19.09
  -2  -9  -3  298.33   17.99
  -2  -9  -2  606.80   26.19
  -2  -9  -1  125.43   11.05
  -2  -9   0  875.01   19.76
  -2  -9   0  845.22   30.98
  -2  -9   1  127.85   10.97
  -2  -9   2  128.34   10.74
  -2  -9   3  228.61   14.46
  -2  -9   4   35.66    5.96
  -2  -9   5    5.09    2.56
  -2  -9   6   19.46    4.73
  -2  -9   7  611.84   25.37
  -2  -9   8  228.28   15.06
  -2  -9   9  309.53   18.02
  -2  -9  10  671.08   28.18
  -2  -9  11  563.40   26.13
  -2  -9  12  235.58   16.91
  -2  -9  13  211.29   16.45
  -2  -9  14  208.27   16.68
  -2  -9  15   66.16    9.89
  -2  -8  -9  103.99   12.04
  -2  -8  -8    0.94    3.52
  -2  -8  -7  145.82   13.45
  -2  -8  -6  132.48   12.32
  -2  -8  -5  586.86   26.19
  -2  -8  -4  406.18   11.43
  -2  -8  -4  380.45   20.06
  -2  -8  -3  876.67   17.54
  -2  -8  -3  933.60   17.85
  -2  -8  -3  848.65   31.21
  -2  -8  -2 1398.62   41.40
  -2  -8  -1 1430.99   41.52
  -2  -8   0  403.52   11.94
  -2  -8   0  393.93   18.86
  -2  -8   0  449.99   18.97
  -2  -8   1 1020.79   20.65
  -2  -8   1  965.57   31.92
  -2  -8   1 1023.35   31.30
  -2  -8   2  279.94   15.17
  -2  -8   3  191.16   12.43
  -2  -8   4  539.43   22.01
  -2  -8   5  215.68   13.26
  -2  -8   6  227.92   13.84
  -2  -8   7    1.53    2.44
  -2  -8   8   38.70    6.18
  -2  -8   9  410.25   20.18
  -2  -8  10  204.05   14.30
  -2  -8  11  143.49   12.35
  -2  -8  12  594.26   26.87
  -2  -8  13   77.11    9.57
  -2  -8  14  305.25   19.97
  -2  -8  15  653.55   30.98
  -2  -7 -10   57.04    9.10
  -2  -7  -9   50.86    8.23
  -2  -7  -8   26.54    5.83
  -2  -7  -7   -0.90    2.91
  -2  -7  -6  159.70   12.80
  -2  -7  -5   -0.14    0.60
  -2  -7  -5    1.95    2.64
  -2  -7  -4    5.91    1.29
  -2  -7  -4    7.22    3.11
  -2  -7  -3  260.80   15.05
  -2  -7  -3  285.07   14.82
  -2  -7  -2  187.34   12.19
  -2  -7  -2  189.02   11.59
  -2  -7  -1  407.53   18.38
  -2  -7  -1  439.33   17.92
  -2  -7   0  396.05   18.00
  -2  -7   0  384.84   17.53
  -2  -7   0  405.82   16.85
  -2  -7   1   48.47    5.90
  -2  -7   1   48.42    3.02
  -2  -7   1   42.65    5.69
  -2  -7   1   52.32    5.78
  -2  -7   2  989.69   30.33
  -2  -7   2  979.45   30.14
  -2  -7   3 1017.68   31.07
  -2  -7   3 1048.98   31.35
  -2  -7   4  355.30   16.54
  -2  -7   4  393.10   17.20
  -2  -7   5  160.90   10.93
  -2  -7   5  154.79   10.60
  -2  -7   6   45.71    5.95
  -2  -7   7   52.96    6.48
  -2  -7   8   42.34    6.14
  -2  -7   9   50.05    6.62
  -2  -7  10   98.96    9.63
  -2  -7  11   -0.85    2.52
  -2  -7  12  132.72   12.06
  -2  -7  13    1.65    3.33
  -2  -7  14   43.54    7.56
  -2  -7  15  243.06   18.13
  -2  -6 -10  311.97   20.48
  -2  -6 -10  327.59   20.53
  -2  -6  -9  135.33   12.49
  -2  -6  -8  186.92   13.98
  -2  -6  -7  338.15   18.56
  -2  -6  -6   31.88    5.67
  -2  -6  -5   27.01    2.42
  -2  -6  -5   18.18    4.09
  -2  -6  -5   24.73    4.57
  -2  -6  -4   67.30    4.15
  -2  -6  -4   76.98    7.88
  -2  -6  -4   75.57    7.14
  -2  -6  -3  326.33   15.89
  -2  -6  -3  311.56   14.61
  -2  -6  -2  349.69    8.53
  -2  -6  -2  313.81   15.48
  -2  -6  -2  366.20   15.34
  -2  -6  -1  545.04   20.73
  -2  -6  -1  605.12   20.20
  -2  -6   0  257.29   13.15
  -2  -6   0  257.31   12.21
  -2  -6   1   17.78    3.93
  -2  -6   1   12.84    1.73
  -2  -6   1   10.99    3.35
  -2  -6   1   12.84    3.23
  -2  -6   2  129.63    9.11
  -2  -6   2  122.95    8.78
  -2  -6   3 1088.48   30.83
  -2  -6   3 1076.65   30.58
  -2  -6   4  376.48   15.95
  -2  -6   4  334.75   15.13
  -2  -6   5 1610.42   41.21
  -2  -6   5 1589.33   40.62
  -2  -6   6  783.94   25.66
  -2  -6   6  710.07   24.45
  -2  -6   7  675.59   24.02
  -2  -6   7  619.88   22.84
  -2  -6   8   68.73    7.16
  -2  -6   9   89.86    8.64
  -2  -6  10   97.08    9.34
  -2  -6  11   40.52    6.50
  -2  -6  12    1.50    2.78
  -2  -6  13   63.61    8.58
  -2  -6  14   59.67    8.64
  -2  -6  15   55.11    8.68
  -2  -6  16   19.44    5.31
  -2  -5 -11  219.47   17.21
  -2  -5 -10  212.39   16.33
  -2  -5  -9  553.26   25.00
  -2  -5  -8  517.94   23.26
  -2  -5  -7 1764.31   48.09
  -2  -5  -6 1132.45   35.06
  -2  -5  -6 1194.60   34.11
  -2  -5  -5  101.98    5.18
  -2  -5  -5   99.59    8.57
  -2  -5  -5  105.91    8.35
  -2  -5  -4  523.78   14.31
  -2  -5  -4  538.35   20.61
  -2  -5  -4  582.36   20.01
  -2  -5  -3  369.20   15.98
  -2  -5  -3  340.46   14.37
  -2  -5  -2   14.24    1.66
  -2  -5  -2   12.79    3.35
  -2  -5  -2   17.65    3.30
  -2  -5  -1    9.21    3.05
  -2  -5  -1   11.38    2.57
  -2  -5   0   30.03    4.26
  -2  -5   0   32.74    3.96
  -2  -5   1  504.03   17.96
  -2  -5   1  487.22   12.59
  -2  -5   1  508.93   17.87
  -2  -5   1  484.29   16.33
  -2  -5   2  802.10   25.20
  -2  -5   2  958.25   26.33
  -2  -5   2  936.58   19.62
  -2  -5   3  340.86   14.20
  -2  -5   3  350.69   14.30
  -2  -5   4 1385.76   36.33
  -2  -5   4 1586.61   37.47
  -2  -5   5 1569.90   39.25
  -2  -5   5 1570.58   38.95
  -2  -5   6 2108.74   49.10
  -2  -5   6 2047.97   48.49
  -2  -5   7 1289.69   35.27
  -2  -5   7 1226.26   34.44
  -2  -5   8  873.91   28.34
  -2  -5   8  856.42   27.74
  -2  -5   9  892.22   29.25
  -2  -5  10 1119.75   34.76
  -2  -5  11  502.13   22.36
  -2  -5  12  149.89   12.22
  -2  -5  13   80.88    9.52
  -2  -5  14   20.01    5.39
  -2  -5  15    5.37    3.56
  -2  -5  16    9.50    3.80
  -2  -4 -12   79.31   10.84
  -2  -4 -11  354.39   21.59
  -2  -4 -10   15.72    4.85
  -2  -4  -9  431.60   22.07
  -2  -4  -8  796.30   28.60
  -2  -4  -7  264.65   14.74
  -2  -4  -7  283.70   14.52
  -2  -4  -6 1125.21   33.59
  -2  -4  -6 1216.44   32.94
  -2  -4  -5 1383.63   29.82
  -2  -4  -5 1383.69   37.03
  -2  -4  -5 1431.54   35.92
  -2  -4  -4  155.45    6.78
  -2  -4  -4  170.07   10.12
  -2  -4  -4  164.87    9.19
  -2  -4  -3 2888.51   55.97
  -2  -4  -3 2989.02   62.61
  -2  -4  -3 3014.15   60.43
  -2  -4  -2 1259.50   25.81
  -2  -4  -2 1267.73   32.23
  -2  -4  -2 1271.12   30.44
  -2  -4  -1   77.17    3.12
  -2  -4  -1   75.47    6.09
  -2  -4  -1   79.05    5.43
  -2  -4   0  890.63   24.15
  -2  -4   0  866.52   22.26
  -2  -4   1  230.07   10.66
  -2  -4   1  221.70   10.39
  -2  -4   1  232.94    7.71
  -2  -4   2  232.41   10.61
  -2  -4   2  241.82   10.74
  -2  -4   2  234.12    7.66
  -2  -4   3  295.62   12.18
  -2  -4   3  292.05   12.16
  -2  -4   4  143.85    8.48
  -2  -4   4  130.26    8.15
  -2  -4   5  481.37   17.27
  -2  -4   5  473.72   17.00
  -2  -4   6  458.44   17.21
  -2  -4   6  450.98   17.04
  -2  -4   7 1112.33   30.99
  -2  -4   7 1058.54   30.39
  -2  -4   8 1375.47   37.31
  -2  -4   8 1338.68   36.48
  -2  -4   9 1245.88   35.71
  -2  -4  10 1187.94   35.71
  -2  -4  11  297.82   16.40
  -2  -4  12  916.25   32.49
  -2  -4  13   30.23    5.96
  -2  -4  14  457.89   23.61
  -2  -4  15  167.88   14.61
  -2  -4  16    8.91    4.14
  -2  -3 -12   17.92    5.56
  -2  -3 -11    8.00    4.24
  -2  -3 -10  212.64   17.13
  -2  -3  -9    9.22    4.24
  -2  -3  -8  294.77   15.64
  -2  -3  -8  307.43   15.20
  -2  -3  -7  519.23   20.36
  -2  -3  -7  554.47   20.24
  -2  -3  -6   88.13    7.46
  -2  -3  -6   92.89    7.25
  -2  -3  -5 1808.41   38.13
  -2  -3  -5 1893.29   43.99
  -2  -3  -5 1892.73   42.36
  -2  -3  -4 1502.37   32.79
  -2  -3  -4 1622.54   38.04
  -2  -3  -4 1659.19   36.53
  -2  -3  -3 1675.98   34.60
  -2  -3  -3 1717.72   38.80
  -2  -3  -3 1662.93   36.70
  -2  -3  -2 1399.81   28.76
  -2  -3  -2 1439.70   33.24
  -2  -3  -2 1413.82   31.08
  -2  -3  -1  783.56   16.56
  -2  -3  -1  786.83   21.25
  -2  -3  -1  789.39   19.37
  -2  -3   0  237.11    6.10
  -2  -3   0  239.52    9.91
  -2  -3   0  220.84    8.28
  -2  -3   1  962.80   24.45
  -2  -3   1  963.56   24.11
  -2  -3   1  994.42   21.41
  -2  -3   2 1287.29   29.68
  -2  -3   2 1294.33   29.62
  -2  -3   2 1235.40   26.18
  -2  -3   3   -2.23    1.79
  -2  -3   3    0.76    2.23
  -2  -3   4  452.40   15.19
  -2  -3   4  446.55   15.26
  -2  -3   5  163.62    8.93
  -2  -3   5  165.81    9.00
  -2  -3   6   58.62    5.59
  -2  -3   6   45.62    5.19
  -2  -3   7   63.67    6.11
  -2  -3   7   55.85    5.91
  -2  -3   8  302.30   14.37
  -2  -3   8  285.53   13.91
  -2  -3   9 1659.49   43.21
  -2  -3   9 1613.95   42.51
  -2  -3  10  192.11   12.35
  -2  -3  11  106.22    9.67
  -2  -3  12  853.14   31.00
  -2  -3  13  340.78   19.33
  -2  -3  14  349.95   20.43
  -2  -3  15 1068.49   39.92
  -2  -3  16   30.70    6.56
  -2  -2 -13   33.63    7.54
  -2  -2 -12   81.15   10.22
  -2  -2 -11   11.55    4.58
  -2  -2 -10  159.24   12.84
  -2  -2  -9    4.16    2.71
  -2  -2  -8   24.90    4.94
  -2  -2  -8   24.47    4.65
  -2  -2  -8   21.24    3.76
  -2  -2  -7  230.49   12.53
  -2  -2  -7  230.80   12.28
  -2  -2  -7  253.45   12.30
  -2  -2  -6  342.51   14.82
  -2  -2  -6  328.21   14.03
  -2  -2  -6  321.19   13.55
  -2  -2  -5    8.59    2.61
  -2  -2  -5    6.19    2.32
  -2  -2  -5    4.77    1.90
  -2  -2  -4 1138.04   26.43
  -2  -2  -4 1214.57   29.34
  -2  -2  -4 1222.79   28.07
  -2  -2  -3 1887.21   38.86
  -2  -2  -3 2046.96   41.66
  -2  -2  -3 1908.37   39.37
  -2  -2  -2  116.57    5.36
  -2  -2  -2  109.46    6.22
  -2  -2  -2  109.96    5.28
  -2  -2  -1  491.80   12.07
  -2  -2  -1  499.34   14.32
  -2  -2  -1  497.29   12.50
  -2  -2   0 1695.86   31.70
  -2  -2   0 1663.51   34.79
  -2  -2   0 1662.68   32.30
  -2  -2   1 2005.46   40.47
  -2  -2   1 2002.22   40.15
  -2  -2   1 1986.51   38.78
  -2  -2   2 9683.12  166.62
  -2  -2   2 9846.56  166.98
  -2  -2   2 9137.80  164.75
  -2  -2   3 1181.29   27.29
  -2  -2   3 1226.88   27.84
  -2  -2   4   34.68    3.68
  -2  -2   4   38.29    4.17
  -2  -2   5  203.56    9.49
  -2  -2   5  207.79    9.83
  -2  -2   6  228.08   10.73
  -2  -2   6  216.60   10.74
  -2  -2   7   53.53    5.50
  -2  -2   7   55.64    5.77
  -2  -2   8   14.06    3.12
  -2  -2   8    8.12    2.88
  -2  -2   9    9.46    2.97
  -2  -2   9   13.85    3.62
  -2  -2  10  299.15   15.64
  -2  -2  11   10.78    3.75
  -2  -2  12  100.17    9.94
  -2  -2  13   71.64    8.81
  -2  -2  14  182.90   14.64
  -2  -2  15  279.02   19.04
  -2  -2  16  211.09   17.09
  -2  -1 -13  449.08   25.05
  -2  -1 -12   43.68    7.41
  -2  -1 -11  200.79   14.82
  -2  -1 -10  775.82   29.74
  -2  -1  -9  128.15   10.59
  -2  -1  -9  113.63    8.95
  -2  -1  -8   26.65    5.05
  -2  -1  -8   28.76    4.65
  -2  -1  -8   19.19    3.47
  -2  -1  -7  459.73   19.10
  -2  -1  -7  527.26   19.23
  -2  -1  -7  495.39   17.78
  -2  -1  -6   19.48    3.51
  -2  -1  -6   26.75    4.44
  -2  -1  -6   20.94    3.45
  -2  -1  -6   24.90    3.40
  -2  -1  -5    6.75    2.62
  -2  -1  -5    1.78    1.52
  -2  -1  -5    3.21    1.67
  -2  -1  -4   67.50    5.55
  -2  -1  -4   72.48    4.84
  -2  -1  -4   68.42    4.99
  -2  -1  -4   67.37    4.65
  -2  -1  -3 2606.63   52.31
  -2  -1  -3 2461.81   49.36
  -2  -1  -3 2558.22   49.76
  -2  -1  -3 2575.19   48.37
  -2  -1  -2 2181.66   44.80
  -2  -1  -2 2129.58   42.76
  -2  -1  -2 2206.08   42.76
  -2  -1  -2 2203.17   42.63
  -2  -1  -2 2203.51   40.69
  -2  -1  -1  700.60   17.95
  -2  -1  -1  684.09   16.11
  -2  -1  -1  686.18   16.29
  -2  -1  -1  702.80   14.21
  -2  -1   0  870.65   19.00
  -2  -1   0  856.39   19.80
  -2  -1   0  859.73   18.56
  -2  -1   1 1195.26   24.79
  -2  -1   1 1178.19   24.72
  -2  -1   1 1165.51   25.07
  -2  -1   2 5551.61   99.62
  -2  -1   2 5711.04  100.41
  -2  -1   3 1600.59   32.67
  -2  -1   3 1560.48   33.46
  -2  -1   4  236.97    9.11
  -2  -1   4  238.98    9.87
  -2  -1   5 1520.15   34.24
  -2  -1   5 1544.48   35.31
  -2  -1   6  819.51   22.94
  -2  -1   6  813.13   23.32
  -2  -1   7 1392.94   34.80
  -2  -1   7 1391.91   35.34
  -2  -1   8   16.65    3.38
  -2  -1   8   22.35    3.91
  -2  -1   9  157.17   10.45
  -2  -1   9  137.36    9.97
  -2  -1  10   -1.66    3.31
  -2  -1  11  325.34   17.29
  -2  -1  12    1.82    2.84
  -2  -1  13    5.75    3.72
  -2  -1  14  305.43   19.30
  -2  -1  15   46.87    7.94
  -2  -1  16   13.37    5.17
  -2   0 -14  132.60   13.57
  -2   0 -13  620.94   29.44
  -2   0 -12  299.37   18.88
  -2   0 -11  364.35   19.99
  -2   0 -10 1603.09   45.99
  -2   0  -9  127.01    9.54
  -2   0  -9  129.23   10.47
  -2   0  -9  130.37    9.37
  -2   0  -8 1412.31   39.18
  -2   0  -8 1474.83   38.24
  -2   0  -8 1418.66   36.72
  -2   0  -7 1162.93   33.41
  -2   0  -7 1255.23   33.27
  -2   0  -7 1265.91   31.88
  -2   0  -6  885.98   25.44
  -2   0  -6  877.97   25.96
  -2   0  -6  876.98   23.59
  -2   0  -5    2.64    2.40
  -2   0  -5    4.35    2.29
  -2   0  -5    2.15    1.63
  -2   0  -4  905.60   23.77
  -2   0  -4  878.26   22.31
  -2   0  -4  897.19   21.08
  -2   0  -4  874.50   20.86
  -2   0  -3   79.45    5.46
  -2   0  -3   83.27    5.13
  -2   0  -3   80.36    4.30
  -2   0  -3   81.55    4.16
  -2   0  -2  243.31    9.25
  -2   0  -2  248.62    8.95
  -2   0  -2  242.56    8.84
  -2   0  -2  242.62    7.23
  -2   0  -2  249.47    6.62
  -2   0  -1  346.26   10.70
  -2   0  -1  358.10    8.60
  -2   0  -1  364.52   10.52
  -2   0  -1  340.40   10.55
  -2   0   0 1278.61   25.97
  -2   0   0 1294.63   24.13
  -2   0   0 1181.44   25.86
  -2   0   0 1257.37   26.68
  -2   0   1 5876.81  103.24
  -2   0   1 5906.74  102.46
  -2   0   1 6039.55  103.38
  -2   0   1 5921.35  105.35
  -2   0   2 7446.02  129.62
  -2   0   2 7600.52  131.11
  -2   0   3 1442.60   29.52
  -2   0   3 1478.08   31.02
  -2   0   4 1022.52   23.83
  -2   0   4 1068.57   25.23
  -2   0   5 5095.32   93.90
  -2   0   5 5038.69   95.26
  -2   0   6 1441.12   34.01
  -2   0   6 1428.12   34.76
  -2   0   7 3673.75   73.56
  -2   0   7 3544.63   74.00
  -2   0   8 2230.53   50.63
  -2   0   8 2107.09   50.55
  -2   0   9  418.96   17.77
  -2   0   9  389.78   17.59
  -2   0  10 1658.90   44.70
  -2   0  11  475.83   21.50
  -2   0  12   -0.13    2.82
  -2   0  13   37.70    6.93
  -2   0  14    3.73    4.10
  -2   0  15   70.59   10.14
  -2   1 -14    6.62    4.18
  -2   1 -13    5.87    4.36
  -2   1 -12  291.34   18.41
  -2   1 -11  460.41   22.34
  -2   1 -10  769.33   28.45
  -2   1  -9    4.77    3.43
  -2   1  -9    6.38    2.79
  -2   1  -9    1.26    2.06
  -2   1  -8 1488.81   38.96
  -2   1  -8 1453.38   39.54
  -2   1  -8 1516.76   37.61
  -2   1  -7  485.98   18.09
  -2   1  -7  452.96   17.91
  -2   1  -6  676.79   21.36
  -2   1  -6  683.96   21.51
  -2   1  -5 3341.53   67.02
  -2   1  -5 3296.08   66.34
  -2   1  -4  395.47   13.74
  -2   1  -4  362.33   12.68
  -2   1  -3 2399.05   50.17
  -2   1  -3 2548.16   51.04
  -2   1  -3 2579.28   51.03
  -2   1  -3 2603.04   49.63
  -2   1  -2  718.78   18.15
  -2   1  -2  683.75   17.77
  -2   1  -2  704.95   16.39
  -2   1  -2  692.19   17.99
  -2   1  -1    6.61    1.95
  -2   1  -1    2.87    1.64
  -2   1  -1    9.22    1.77
  -2   1  -1    6.83    1.06
  -2   1   0  546.19   12.81
  -2   1   0  481.43   13.25
  -2   1   0  509.55   13.70
  -2   1   0  514.88   13.73
  -2   1   0  506.38   10.48
  -2   1   0  527.59   10.91
  -2   1   1   42.12    3.55
  -2   1   1   40.41    2.42
  -2   1   1   44.98    2.75
  -2   1   1   41.23    2.65
  -2   1   2  182.99    5.41
  -2   1   2  171.41    4.44
  -2   1   2  175.92    6.74
  -2   1   2  186.21    6.85
  -2   1   3  440.07   11.41
  -2   1   3  422.70   12.71
  -2   1   3  415.94   12.71
  -2   1   4  621.69   16.29
  -2   1   4  619.06   17.66
  -2   1   5 2181.63   44.85
  -2   1   5 2125.39   46.36
  -2   1   6 1629.39   37.48
  -2   1   6 1647.02   38.93
  -2   1   7 3223.30   68.28
  -2   1   7 3194.51   67.70
  -2   1   8  972.41   29.51
  -2   1   8  931.98   28.91
  -2   1   9  575.90   22.18
  -2   1  10  170.06   11.98
  -2   1  11 1260.01   39.19
  -2   1  12  100.10   10.26
  -2   1  13  342.99   20.12
  -2   1  14  213.79   16.51
  -2   1  15  115.37   12.53
  -2   2 -14    9.75    4.08
  -2   2 -13    9.55    4.78
  -2   2 -12    7.95    3.81
  -2   2 -11   16.10    4.54
  -2   2 -10  458.59   20.87
  -2   2  -9    1.66    2.57
  -2   2  -9    0.78    2.06
  -2   2  -8  819.46   26.00
  -2   2  -8  783.79   25.96
  -2   2  -7  853.51   26.35
  -2   2  -7  944.27   27.30
  -2   2  -6  633.06   20.27
  -2   2  -6  644.16   20.72
  -2   2  -5 4240.80   81.29
  -2   2  -5 4200.18   82.44
  -2   2  -4 1025.42   26.44
  -2   2  -4 1075.17   25.38
  -2   2  -3    3.30    1.71
  -2   2  -3    5.32    2.17
  -2   2  -3    2.57    1.51
  -2   2  -2  700.39   18.52
  -2   2  -2  727.37   18.70
  -2   2  -2  718.38   16.02
  -2   2  -2  655.87   17.98
  -2   2  -1  130.17    6.46
  -2   2  -1  138.98    6.26
  -2   2  -1  134.16    6.32
  -2   2  -1  130.89    4.21
  -2   2  -1  141.22    5.38
  -2   2  -1  141.98    6.17
  -2   2   0   19.69    2.26
  -2   2   0   14.80    2.13
  -2   2   0   18.31    2.47
  -2   2   0   19.78    2.95
  -2   2   0   17.72    1.55
  -2   2   0   17.78    2.11
  -2   2   1 4071.31   74.40
  -2   2   1 4022.90   72.86
  -2   2   1 4061.68   72.03
  -2   2   1 4032.98   73.03
  -2   2   1 3986.20   71.20
  -2   2   2   91.70    4.97
  -2   2   2   98.62    5.49
  -2   2   2   93.67    5.10
  -2   2   3   53.41    4.19
  -2   2   3   48.66    4.18
  -2   2   3   42.51    4.42
  -2   2   4   20.24    3.11
  -2   2   4   25.43    3.48
  -2   2   4   17.55    3.34
  -2   2   5    3.33    0.72
  -2   2   5    4.95    1.98
  -2   2   5    0.98    1.83
  -2   2   5    6.38    2.69
  -2   2   6  229.06   11.44
  -2   2   6  220.57    6.27
  -2   2   6  217.75   11.23
  -2   2   7  467.11   18.20
  -2   2   7  446.89   17.83
  -2   2   7  458.12   11.47
  -2   2   8  606.63   22.20
  -2   2   8  568.53   21.77
  -2   2   9  544.05   22.01
  -2   2  10  339.45   17.74
  -2   2  11  131.75   11.29
  -2   2  12  449.87   22.74
  -2   2  13  261.49   17.86
  -2   2  14   78.56   10.16
  -2   3 -14   83.98   10.49
  -2   3 -13   -2.71    3.13
  -2   3 -12   10.86    4.32
  -2   3 -11    4.33    3.07
  -2   3 -10    6.62    2.85
  -2   3  -9  504.83   20.80
  -2   3  -8    3.34    2.13
  -2   3  -8    0.45    2.33
  -2   3  -7  395.09   15.90
  -2   3  -7  359.60   15.64
  -2   3  -6  988.90   26.84
  -2   3  -6  983.74   23.36
  -2   3  -6  985.84   27.95
  -2   3  -5 1671.60   37.32
  -2   3  -5 1626.17   33.39
  -2   3  -5 1657.29   38.93
  -2   3  -4 1527.21   35.14
  -2   3  -4 1473.25   32.42
  -2   3  -4 1483.45   34.65
  -2   3  -4 1430.30   28.89
  -2   3  -3 5280.01   92.05
  -2   3  -3 5099.10   95.17
  -2   3  -3 5039.91   88.47
  -2   3  -3 4948.79   94.84
  -2   3  -2  443.13   11.53
  -2   3  -2  418.76   13.86
  -2   3  -2  435.11    9.87
  -2   3  -2  459.84   13.02
  -2   3  -2  452.12   13.93
  -2   3  -1 1838.19   32.99
  -2   3  -1 1672.16   36.71
  -2   3  -1 1776.97   35.93
  -2   3  -1 1782.71   37.30
  -2   3  -1 1726.06   32.93
  -2   3  -1 1759.16   35.95
  -2   3   0 1039.41   23.11
  -2   3   0 1020.24   22.97
  -2   3   0  959.11   23.92
  -2   3   0 1025.22   21.37
  -2   3   0 1003.93   23.11
  -2   3   1  287.61    9.08
  -2   3   1  285.63    9.35
  -2   3   1  284.18   10.28
  -2   3   2 1976.79   38.06
  -2   3   2 1981.05   40.62
  -2   3   2 1979.04   41.47
  -2   3   3   43.78    2.95
  -2   3   3   43.23    4.21
  -2   3   3   47.99    4.81
  -2   3   4  231.47   10.60
  -2   3   4  231.41   10.76
  -2   3   5   57.92    3.04
  -2   3   5   57.34    5.63
  -2   3   5   60.89    5.75
  -2   3   5   47.07    5.11
  -2   3   6  228.64    7.14
  -2   3   6  215.71   11.73
  -2   3   6  229.12   11.86
  -2   3   6  211.74   11.59
  -2   3   7   94.05    4.59
  -2   3   7   97.77    8.22
  -2   3   7   90.80    7.92
  -2   3   7   96.24    8.08
  -2   3   8   19.09    2.33
  -2   3   8   27.90    5.42
  -2   3   9  202.74    8.12
  -2   3   9  193.26   12.88
  -2   3  10  208.31   14.06
  -2   3  10  195.36    8.43
  -2   3  11  177.05   13.78
  -2   3  12   96.50   10.69
  -2   3  13  384.87   22.32
  -2   3  14   59.55    9.18
  -2   4 -14  140.91   13.57
  -2   4 -13  275.77   18.31
  -2   4 -12  199.67   14.72
  -2   4 -11  158.92   12.51
  -2   4 -10  508.69   21.87
  -2   4  -9   22.95    4.52
  -2   4  -8  208.30   11.88
  -2   4  -8  227.28   12.72
  -2   4  -8  193.69    9.62
  -2   4  -7   58.31    6.16
  -2   4  -7   64.15    6.38
  -2   4  -7   61.33    4.84
  -2   4  -6   87.20    6.74
  -2   4  -6   73.23    6.66
  -2   4  -6   70.90    4.82
  -2   4  -5  490.85   16.05
  -2   4  -5  496.07   17.79
  -2   4  -5  460.96   13.21
  -2   4  -5  481.07   17.38
  -2   4  -4   97.46    6.05
  -2   4  -4  100.17    6.97
  -2   4  -4  104.49    4.93
  -2   4  -4  113.85    7.40
  -2   4  -3 1131.39   25.21
  -2   4  -3 1150.18   27.99
  -2   4  -3 1046.72   22.93
  -2   4  -3 1132.75   26.96
  -2   4  -2 3455.75   62.68
  -2   4  -2 3407.15   66.17
  -2   4  -2 3390.54   63.75
  -2   4  -2 3277.92   61.56
  -2   4  -2 3451.16   65.59
  -2   4  -1  909.26   19.39
  -2   4  -1  870.95   20.68
  -2   4  -1  857.52   22.26
  -2   4  -1  846.30   19.69
  -2   4  -1  888.11   22.42
  -2   4   0  604.47   15.88
  -2   4   0  597.65   17.15
  -2   4   0  569.75   15.43
  -2   4   0  611.84   17.48
  -2   4   1 2352.07   45.94
  -2   4   1 2321.67   47.40
  -2   4   1 2457.73   49.31
  -2   4   2  297.54    9.05
  -2   4   2  283.61   11.18
  -2   4   2  297.50   11.99
  -2   4   3 2130.01   40.38
  -2   4   3 2143.43   46.58
  -2   4   3 2222.19   47.47
  -2   4   4  288.20    7.94
  -2   4   4  293.73   12.83
  -2   4   4  288.24   12.90
  -2   4   5  470.16   12.79
  -2   4   5  481.07   11.09
  -2   4   5  472.56   18.01
  -2   4   5  497.54   18.31
  -2   4   6  486.20   13.16
  -2   4   6  483.49   19.12
  -2   4   6  467.16   18.70
  -2   4   7  509.24   14.06
  -2   4   7  515.72   20.87
  -2   4   7  504.32   20.49
  -2   4   7  508.18   20.45
  -2   4   8   17.58    2.43
  -2   4   8   17.82    4.18
  -2   4   8   12.83    3.26
  -2   4   9    5.70    1.68
  -2   4   9    5.37    3.49
  -2   4  10   13.84    1.83
  -2   4  10    6.47    1.96
  -2   4  10   15.62    4.56
  -2   4  11  252.21   16.85
  -2   4  11  233.27   10.00
  -2   4  12   57.53    8.48
  -2   4  13   -0.50    2.98
  -2   5 -14  198.50   16.30
  -2   5 -13  266.23   17.99
  -2   5 -12  592.31   26.42
  -2   5 -11  842.58   30.93
  -2   5 -10  228.79   14.24
  -2   5 -10  232.35   12.02
  -2   5  -9  560.92   22.00
  -2   5  -9  537.95   18.56
  -2   5  -8  251.99   13.50
  -2   5  -8  259.32   11.38
  -2   5  -7  542.77   19.98
  -2   5  -7  616.45   22.08
  -2   5  -7  590.62   17.68
  -2   5  -6  398.73   15.47
  -2   5  -6  398.28   16.83
  -2   5  -6  388.41   13.00
  -2   5  -6  444.32   17.62
  -2   5  -5  107.47    7.09
  -2   5  -5  116.53    8.08
  -2   5  -5  112.08    5.97
  -2   5  -5  118.93    8.47
  -2   5  -4  162.63    8.20
  -2   5  -4  164.05    9.24
  -2   5  -4  159.73    7.00
  -2   5  -4  161.27    9.08
  -2   5  -3    1.91    1.79
  -2   5  -3    3.31    2.10
  -2   5  -3    1.44    1.23
  -2   5  -3    2.05    2.10
  -2   5  -2  378.99   11.87
  -2   5  -2  389.09   13.68
  -2   5  -2  364.93   11.55
  -2   5  -2  356.76   11.47
  -2   5  -2  371.67   13.86
  -2   5  -1 2420.38   44.96
  -2   5  -1 2223.16   47.15
  -2   5  -1 2171.36   45.19
  -2   5  -1 2176.42   47.99
  -2   5   0  623.07   18.63
  -2   5   0  675.45   18.49
  -2   5   0  694.13   20.39
  -2   5   1 2661.03   54.42
  -2   5   1 2667.34   56.03
  -2   5   2 1637.43   37.66
  -2   5   2 1596.09   38.45
  -2   5   3  637.09   20.62
  -2   5   3  657.34   21.31
  -2   5   4 1480.90   37.88
  -2   5   4 1507.12   38.34
  -2   5   5 1964.01   46.53
  -2   5   5 1773.79   45.54
  -2   5   6 1702.46   36.88
  -2   5   6 1794.65   45.46
  -2   5   6 1803.29   45.57
  -2   5   7  563.88   16.18
  -2   5   7  534.85   22.17
  -2   5   8  552.00   16.46
  -2   5   8  594.76   24.07
  -2   5   8  546.50   23.16
  -2   5   9  130.75    7.20
  -2   5   9  128.65   11.27
  -2   5   9  114.87   10.73
  -2   5  10  267.39   11.04
  -2   5  10  296.37   18.02
  -2   5  11  175.82   14.46
  -2   5  12   50.88    8.11
  -2   5  13    6.29    4.18
  -2   6 -14  177.24   15.33
  -2   6 -13  116.27   12.03
  -2   6 -12  369.41   20.60
  -2   6 -11  853.71   31.63
  -2   6 -11  873.28   27.46
  -2   6 -10   97.33    9.32
  -2   6 -10   95.95    7.66
  -2   6  -9  122.94    9.89
  -2   6  -9  117.91    8.11
  -2   6  -8 1542.11   41.08
  -2   6  -8 1559.30   37.05
  -2   6  -7  914.71   27.75
  -2   6  -7  954.00   29.48
  -2   6  -7  884.49   24.23
  -2   6  -6 1312.03   33.76
  -2   6  -6 1326.66   35.32
  -2   6  -6 1216.58   30.02
  -2   6  -6 1309.96   36.17
  -2   6  -5  870.75   24.77
  -2   6  -5  889.99   26.39
  -2   6  -5  863.39   22.59
  -2   6  -5  890.96   26.58
  -2   6  -4   21.64    3.33
  -2   6  -4   19.21    3.50
  -2   6  -4   18.82    2.68
  -2   6  -4   20.07    3.76
  -2   6  -3  136.39    7.48
  -2   6  -3  116.38    7.56
  -2   6  -3  131.47    6.48
  -2   6  -3  118.46    6.63
  -2   6  -3  124.95    8.35
  -2   6  -2  532.76   16.16
  -2   6  -2  552.38   14.93
  -2   6  -2  542.53   17.46
  -2   6  -2  532.68   16.18
  -2   6  -2  524.42   18.59
  -2   6  -1    4.73    1.92
  -2   6  -1    6.62    2.04
  -2   6  -1    3.80    2.38
  -2   6   0  167.70    8.76
  -2   6   0  185.38    9.25
  -2   6   0  177.49   10.15
  -2   6   1   13.96    2.91
  -2   6   1   15.73    3.71
  -2   6   2  159.19    9.44
  -2   6   2  164.66   10.09
  -2   6   3  165.21   10.03
  -2   6   3  138.60    9.64
  -2   6   4  916.65   27.94
  -2   6   4  822.62   27.23
  -2   6   5 1111.12   33.36
  -2   6   5 1127.62   33.68
  -2   6   6 2753.85   56.01
  -2   6   6 2732.47   64.46
  -2   6   7  260.32   10.95
  -2   6   7  240.78   14.76
  -2   6   8  210.08    9.85
  -2   6   8  221.63   14.66
  -2   6   9  261.74   11.23
  -2   6   9  247.63   16.34
  -2   6   9  262.58   16.86
  -2   6  10  340.37   13.37
  -2   6  10  342.90   20.14
  -2   6  11  160.15   14.33
  -2   6  12  232.43   17.85
  -2   7 -14   24.36    6.12
  -2   7 -13   92.12   10.81
  -2   7 -12    3.29    2.99
  -2   7 -11  175.33   13.48
  -2   7 -11  152.82   10.43
  -2   7 -10  481.56   21.93
  -2   7 -10  456.28   18.21
  -2   7  -9  125.07   10.26
  -2   7  -9  124.60    8.60
  -2   7  -8  503.46   20.52
  -2   7  -8  471.90   17.20
  -2   7  -7 1814.41   45.08
  -2   7  -7 1775.93   46.32
  -2   7  -7 1786.57   41.30
  -2   7  -7 1815.64   46.70
  -2   7  -6  635.08   21.98
  -2   7  -6  699.51   23.71
  -2   7  -6  667.14   20.20
  -2   7  -6  694.64   24.24
  -2   7  -5  885.62   25.52
  -2   7  -5  836.84   26.15
  -2   7  -5  852.74   23.52
  -2   7  -5  853.70   27.27
  -2   7  -4  318.10   13.34
  -2   7  -4  320.55   11.26
  -2   7  -4  309.69   13.80
  -2   7  -4  298.67   12.18
  -2   7  -4  309.41   14.76
  -2   7  -3  155.27    8.75
  -2   7  -3  166.72    9.45
  -2   7  -3  159.16    7.20
  -2   7  -3  154.80    8.45
  -2   7  -3  169.52   10.50
  -2   7  -2  438.77   15.95
  -2   7  -2  459.69   13.20
  -2   7  -2  441.63   15.65
  -2   7  -2  427.18   17.56
  -2   7  -1  170.46    9.17
  -2   7  -1  168.26    9.37
  -2   7  -1  194.57   11.21
  -2   7   0   62.85    5.85
  -2   7   0   60.84    6.43
  -2   7   1   49.21    5.49
  -2   7   1   32.32    4.70
  -2   7   2   16.61    3.38
  -2   7   2   14.32    3.63
  -2   7   3   35.29    4.99
  -2   7   3   42.15    5.88
  -2   7   4    2.05    2.82
  -2   7   5   53.65    6.95
  -2   7   6  122.92   10.74
  -2   7   7  501.84   17.54
  -2   7   7  512.80   23.26
  -2   7   8  103.50    7.31
  -2   7   8  107.40   10.64
  -2   7   9  628.03   20.18
  -2   7   9  584.86   27.23
  -2   7   9  614.68   27.81
  -2   7  10  380.20   22.30
  -2   7  10  431.70   23.61
  -2   7  11   60.87    9.20
  -2   8 -14   -2.95    3.28
  -2   8 -13    3.20    4.34
  -2   8 -12  176.57   14.43
  -2   8 -11   76.80    9.18
  -2   8 -10  479.18   22.16
  -2   8 -10  442.63   18.40
  -2   8  -9  402.40   19.39
  -2   8  -9  371.16   16.01
  -2   8  -8   31.66    5.30
  -2   8  -8   38.12    5.92
  -2   8  -8   34.81    4.66
  -2   8  -7  584.08   22.10
  -2   8  -7  562.80   19.58
  -2   8  -7  568.64   23.23
  -2   8  -6 1407.13   37.46
  -2   8  -6 1460.39   38.40
  -2   8  -6 1312.06   34.34
  -2   8  -6 1373.88   39.44
  -2   8  -5  428.27   17.33
  -2   8  -5  433.00   17.69
  -2   8  -5  439.17   14.20
  -2   8  -5  426.00   16.14
  -2   8  -5  454.29   19.56
  -2   8  -4 1996.85   46.44
  -2   8  -4 1961.78   46.40
  -2   8  -4 2009.15   40.86
  -2   8  -4 1931.30   44.94
  -2   8  -4 1925.66   49.06
  -2   8  -3 2438.47   46.51
  -2   8  -3 2317.51   52.11
  -2   8  -3 2258.31   51.52
  -2   8  -3 2287.56   55.72
  -2   8  -2  209.10   10.74
  -2   8  -2  186.91   10.39
  -2   8  -2  183.14   11.78
  -2   8  -1  862.21   25.02
  -2   8  -1  892.63   26.57
  -2   8  -1  889.50   28.73
  -2   8   0  382.58   16.28
  -2   8   0  344.58   16.79
  -2   8   1   96.01    8.03
  -2   8   1   93.57    8.53
  -2   8   2    1.18    2.05
  -2   8   2    3.92    3.27
  -2   8   3  259.12   14.96
  -2   8   4   -0.32    2.42
  -2   8   5   45.85    7.01
  -2   8   6   51.99    7.15
  -2   8   7  260.58   12.82
  -2   8   7  263.24   16.96
  -2   8   8  201.36   11.14
  -2   8   8  202.96   15.41
  -2   8   9  150.59    9.61
  -2   8   9  143.85   13.43
  -2   8  10  243.62   17.94
  -2   8  10  198.97   16.41
  -2   9 -14  191.81   16.56
  -2   9 -13  177.77   15.35
  -2   9 -12  259.44   17.80
  -2   9 -11    2.74    3.18
  -2   9 -11    0.29    3.39
  -2   9 -10  129.60   11.47
  -2   9 -10  149.14   12.73
  -2   9  -9   15.43    4.38
  -2   9  -9   24.80    4.40
  -2   9  -9   23.05    5.51
  -2   9  -8  505.83   21.75
  -2   9  -8  509.71   19.48
  -2   9  -8  502.59   23.18
  -2   9  -7   -0.76    2.18
  -2   9  -7    4.79    1.69
  -2   9  -7   -0.52    2.89
  -2   9  -6  143.82   10.42
  -2   9  -6  161.69   10.94
  -2   9  -6  167.01    8.28
  -2   9  -6  141.88    9.43
  -2   9  -6  138.08   11.32
  -2   9  -5  344.26   16.29
  -2   9  -5  401.00   12.70
  -2   9  -5  348.48   16.10
  -2   9  -5  364.46   15.70
  -2   9  -5  350.56   18.08
  -2   9  -4   42.08    5.56
  -2   9  -4   39.08    3.34
  -2   9  -4   39.67    5.08
  -2   9  -4   39.53    4.99
  -2   9  -4   46.11    6.64
  -2   9  -3  639.34   21.58
  -2   9  -3  640.31   22.17
  -2   9  -3  660.73   25.09
  -2   9  -2 1263.67   33.33
  -2   9  -2 1268.30   34.90
  -2   9  -2 1288.21   37.98
  -2   9  -1  195.54   10.50
  -2   9  -1  184.47   11.38
  -2   9  -1  186.49   12.58
  -2   9   0 1048.38   31.80
  -2   9   0 1007.90   33.09
  -2   9   1  184.77   12.81
  -2   9   2  540.81   23.20
  -2   9   3  404.64   20.13
  -2   9   4  342.15   18.87
  -2   9   5   37.56    6.56
  -2   9   6  278.81   17.93
  -2   9   7   -1.05    1.88
  -2   9   7    5.40    3.54
  -2   9   8   48.46    5.91
  -2   9   8   57.24    8.57
  -2   9   9    2.49    3.34
  -2  10 -13  284.51   19.64
  -2  10 -13  254.91   19.31
  -2  10 -12  161.30   14.24
  -2  10 -12  171.10   15.08
  -2  10 -11  297.56   18.91
  -2  10 -11  294.26   19.57
  -2  10 -10  137.69   12.18
  -2  10 -10  115.69   11.88
  -2  10  -9  482.94   22.80
  -2  10  -9  502.09   24.68
  -2  10  -8  156.73    9.01
  -2  10  -8  158.27   12.21
  -2  10  -8  153.73   12.90
  -2  10  -7   94.22    9.27
  -2  10  -7   90.91    6.24
  -2  10  -7   83.07    7.74
  -2  10  -7   70.88    8.80
  -2  10  -6  431.56   19.76
  -2  10  -6  472.05   14.29
  -2  10  -6  414.21   18.15
  -2  10  -6  421.21   21.36
  -2  10  -5  425.16   19.03
  -2  10  -5  462.47   12.90
  -2  10  -5  425.90   18.31
  -2  10  -5  404.03   17.83
  -2  10  -5  398.27   20.53
  -2  10  -4   14.20    3.16
  -2  10  -4   13.77    3.29
  -2  10  -4   14.11    4.61
  -2  10  -3  154.64    9.91
  -2  10  -3  138.56   10.12
  -2  10  -3  157.01   12.20
  -2  10  -2  429.09   17.12
  -2  10  -2  427.65   20.70
  -2  10  -1  584.82   24.90
  -2  10   0   14.13    4.51
  -2  10   1  356.97   19.25
  -2  10   2  460.31   22.43
  -2  10   3  563.12   25.58
  -2  10   4  353.78   20.20
  -2  10   5  699.63   30.16
  -2  10   6  147.65   13.74
  -2  10   7   37.70    5.74
  -2  10   7   43.92    8.23
  -2  10   8  142.97   14.00
  -2  11 -13  305.81   20.77
  -2  11 -12  243.45   18.03
  -2  11 -12  267.94   19.70
  -2  11 -11  294.12   19.36
  -2  11 -11  329.52   21.38
  -2  11 -10  245.54   17.01
  -2  11 -10  258.50   18.61
  -2  11  -9  208.27   15.13
  -2  11  -9  219.74   16.71
  -2  11  -8  615.79   26.42
  -2  11  -8  631.85   28.68
  -2  11  -7  541.16   23.84
  -2  11  -7  524.93   25.58
  -2  11  -6  158.43   12.14
  -2  11  -6  176.59   14.18
  -2  11  -5   -1.10    1.97
  -2  11  -5    0.58    3.08
  -2  11  -4  103.86    8.50
  -2  11  -4  108.00   10.82
  -2  11  -3    3.67    2.59
  -2  11  -3    1.93    2.84
  -2  11  -2   13.46    4.51
  -2  11  -1  143.49   12.50
  -2  11   0  321.26   18.98
  -2  11   1  124.35   12.03
  -2  11   2  262.24   17.46
  -2  11   3  352.87   20.89
  -2  11   4  270.34   18.58
  -2  11   5  555.93   27.77
  -2  11   6  669.31   31.46
  -2  11   7  118.36   12.87
  -2  12 -12  223.34   17.79
  -2  12 -11  138.64   13.45
  -2  12 -10  301.29   19.83
  -2  12 -10  362.71   22.89
  -2  12  -9  174.76   14.47
  -2  12  -9  181.22   15.67
  -2  12  -8  334.79   19.56
  -2  12  -8  353.63   21.76
  -2  12  -7  493.98   23.56
  -2  12  -7  514.42   26.30
  -2  12  -6  330.06   20.64
  -2  12  -5   47.18    7.64
  -2  12  -4  466.05   24.41
  -2  12  -3   90.63   10.60
  -2  12  -2   66.99    9.21
  -2  12  -1   11.88    4.82
  -2  12   0   82.62   10.40
  -2  12   1    5.46    4.45
  -2  12   2   68.88    9.70
  -2  12   3   15.86    5.39
  -2  12   4  126.69   13.18
  -2  12   5   64.95    9.86
  -2  13 -11   99.48   11.74
  -2  13 -10  185.45   15.75
  -2  13  -9  201.24   15.95
  -2  13  -9  185.85   16.66
  -2  13  -8  138.35   14.22
  -2  13  -7  275.69   19.83
  -2  13  -6  405.84   23.96
  -2  13  -5  347.92   21.85
  -2  13  -4  609.98   29.62
  -2  13  -3  337.18   21.45
  -2  13  -2   49.51    8.48
  -2  13  -1   65.80    9.75
  -2  13   0   43.02    8.11
  -2  13   1   24.32    5.91
  -2  13   2    7.18    4.45
  -2  13   3   19.17    6.27
  -2  14 -10   19.58    6.39
  -2  14  -5  259.59   19.74
  -2  14  -4   96.81   11.80
  -2  14  -3  289.10   20.64
  -2  14  -2  211.53   17.66
  -1 -14   2  296.84   20.99
  -1 -14   3  124.83   13.29
  -1 -14   4  185.36   16.06
  -1 -14   5  262.10   19.33
  -1 -14   6  193.58   16.46
  -1 -14   7   95.16   11.65
  -1 -14   8  201.24   17.01
  -1 -13  -1   86.07   11.46
  -1 -13   0  148.51   14.28
  -1 -13   1   85.96   10.78
  -1 -13   2  113.64   12.47
  -1 -13   3  121.41   12.74
  -1 -13   4   15.31    5.27
  -1 -13   5  164.49   14.54
  -1 -13   6  326.58   20.76
  -1 -13   7  169.80   14.86
  -1 -13   8  203.27   16.39
  -1 -13   9  285.93   19.62
  -1 -13  10   41.64    8.19
  -1 -13  11   10.48    5.36
  -1 -12  -4  167.88   15.75
  -1 -12  -3   19.54    6.05
  -1 -12  -2   52.09    8.46
  -1 -12  -1    6.46    4.35
  -1 -12   0    1.09    2.88
  -1 -12   1   83.60   10.10
  -1 -12   2   55.72    8.40
  -1 -12   3    1.78    3.90
  -1 -12   4  156.10   13.54
  -1 -12   5  270.74   17.87
  -1 -12   6  185.14   14.78
  -1 -12   7  370.01   21.29
  -1 -12   8   17.81    5.34
  -1 -12   9  231.80   17.00
  -1 -12  10  411.22   23.16
  -1 -12  11   90.36   10.85
  -1 -12  12   68.92    9.57
  -1 -12  13  118.38   12.75
  -1 -11  -5  158.36   14.86
  -1 -11  -4  300.33   20.17
  -1 -11  -3  381.94   22.47
  -1 -11  -2  275.84   18.34
  -1 -11  -1  249.24   17.28
  -1 -11   0  102.87   10.84
  -1 -11   1   12.16    4.70
  -1 -11   2    7.05    3.69
  -1 -11   3   69.91    8.69
  -1 -11   4    5.88    3.21
  -1 -11   5  189.13   14.16
  -1 -11   6   83.72    9.58
  -1 -11   7  143.31   12.41
  -1 -11   8   84.17    9.72
  -1 -11   9  112.01   11.39
  -1 -11  10  634.50   28.41
  -1 -11  11  340.16   20.46
  -1 -11  12  229.99   16.94
  -1 -11  13  119.91   12.61
  -1 -11  14  179.64   15.69
  -1 -10  -7    6.09    3.74
  -1 -10  -6  112.11   12.30
  -1 -10  -5  609.86   28.71
  -1 -10  -4    7.16    3.90
  -1 -10  -3 1122.75   39.26
  -1 -10  -2  387.70   20.88
  -1 -10  -1  430.58   21.76
  -1 -10   0  689.51   27.93
  -1 -10   1  455.88   21.77
  -1 -10   2  126.75   10.91
  -1 -10   3   85.09    8.95
  -1 -10   4  117.36   10.46
  -1 -10   5   32.20    5.86
  -1 -10   6    9.63    4.00
  -1 -10   7   20.92    5.21
  -1 -10   8  106.42   10.30
  -1 -10   9  685.88   28.00
  -1 -10  10  250.90   16.50
  -1 -10  11  218.88   15.77
  -1 -10  12  382.42   21.66
  -1 -10  13  246.63   17.61
  -1 -10  14  346.70   21.50
  -1 -10  15  378.74   23.15
  -1  -9  -8   81.45   10.66
  -1  -9  -7   -2.02    3.00
  -1  -9  -6   17.80    4.92
  -1  -9  -5   32.30    3.70
  -1  -9  -5   29.15    6.22
  -1  -9  -4   74.78    4.81
  -1  -9  -4   66.90    8.76
  -1  -9  -3  269.32    8.04
  -1  -9  -3  245.62   15.97
  -1  -9  -2  315.93   17.64
  -1  -9  -1  318.18   17.37
  -1  -9   0  888.62   17.81
  -1  -9   0  842.44   30.12
  -1  -9   1  325.95   17.06
  -1  -9   2  630.62   24.47
  -1  -9   3  305.78   16.22
  -1  -9   4  396.68   18.74
  -1  -9   5  573.53   23.21
  -1  -9   6  246.66   14.56
  -1  -9   7  334.81   17.33
  -1  -9   8  252.33   15.17
  -1  -9   9   57.87    7.35
  -1  -9  10   29.49    5.58
  -1  -9  11    6.81    3.43
  -1  -9  12  463.01   23.24
  -1  -9  13   47.14    7.80
  -1  -9  14  114.38   12.12
  -1  -9  15  172.77   15.15
  -1  -8 -10  105.73   12.44
  -1  -8  -9    7.68    4.28
  -1  -8  -8   12.25    4.12
  -1  -8  -7   49.90    7.74
  -1  -8  -6    8.48    3.77
  -1  -8  -5  279.93   17.13
  -1  -8  -4   47.15    6.94
  -1  -8  -3  299.02    9.52
  -1  -8  -3  271.90   15.78
  -1  -8  -2   72.02    3.17
  -1  -8  -2   72.52    7.93
  -1  -8  -1  630.52   24.20
  -1  -8   0  621.71   23.63
  -1  -8   0  648.35   24.10
  -1  -8   0  629.70   23.52
  -1  -8   1    2.29    1.96
  -1  -8   1   -0.55    2.67
  -1  -8   1    5.40    2.60
  -1  -8   2  579.54   22.05
  -1  -8   2  549.37   21.46
  -1  -8   3  711.47   24.90
  -1  -8   3  712.05   24.94
  -1  -8   4  100.95    8.58
  -1  -8   4  106.70    8.99
  -1  -8   5  311.00   15.51
  -1  -8   6  632.39   23.46
  -1  -8   7  165.53   11.44
  -1  -8   8  148.27   11.07
  -1  -8   9  516.42   22.19
  -1  -8  10    6.97    3.69
  -1  -8  11    6.24    3.95
  -1  -8  12    8.78    3.64
  -1  -8  13   -1.97    3.13
  -1  -8  14   22.35    5.53
  -1  -8  15  146.20   13.83
  -1  -8  16  219.80   17.43
  -1  -7 -10  331.22   21.39
  -1  -7 -10  352.79   21.91
  -1  -7  -9  222.86   16.59
  -1  -7  -8  178.12   14.35
  -1  -7  -7  386.00   20.53
  -1  -7  -6   73.47    8.71
  -1  -7  -5   23.48    5.20
  -1  -7  -4   52.68    6.96
  -1  -7  -3   20.61    4.41
  -1  -7  -3   18.79    4.09
  -1  -7  -2    7.92    1.35
  -1  -7  -2    6.97    2.67
  -1  -7  -2    5.66    2.51
  -1  -7  -1    8.20    3.40
  -1  -7  -1    3.78    2.43
  -1  -7   0   53.01    6.06
  -1  -7   0   51.52    6.09
  -1  -7   0   53.39    5.74
  -1  -7   1   23.18    4.18
  -1  -7   1   22.17    4.23
  -1  -7   1   29.29    4.33
  -1  -7   2 1260.32   34.89
  -1  -7   2 1315.29   35.23
  -1  -7   3  337.81   15.39
  -1  -7   3  366.13   15.91
  -1  -7   4 1137.23   32.27
  -1  -7   4 1126.47   31.91
  -1  -7   5  459.26   18.70
  -1  -7   5  458.69   18.28
  -1  -7   6  506.73   20.19
  -1  -7   6  491.72   19.28
  -1  -7   7   89.57    8.04
  -1  -7   8  267.97   14.40
  -1  -7   9  379.67   17.91
  -1  -7  10  771.65   27.86
  -1  -7  11    6.52    3.27
  -1  -7  12   94.30    9.76
  -1  -7  13   27.58    5.98
  -1  -7  14   67.14    8.91
  -1  -7  15    4.94    4.18
  -1  -7  16    1.89    2.87
  -1  -6 -11   81.99   10.80
  -1  -6 -10  131.30   12.75
  -1  -6  -9   92.72   10.30
  -1  -6  -8  851.34   31.85
  -1  -6  -7  724.42   28.02
  -1  -6  -6  690.89   26.24
  -1  -6  -5  501.09   21.41
  -1  -6  -5  579.16   21.97
  -1  -6  -4 1097.18   20.78
  -1  -6  -4 1115.21   33.25
  -1  -6  -4 1162.95   32.91
  -1  -6  -3 1421.85   38.79
  -1  -6  -3 1493.66   38.44
  -1  -6  -2 1037.14   30.21
  -1  -6  -2 1024.44   29.43
  -1  -6  -1   73.56    2.66
  -1  -6  -1   72.05    6.79
  -1  -6  -1   70.36    6.38
  -1  -6   0   15.33    3.32
  -1  -6   0    7.99    2.65
  -1  -6   1   22.21    3.83
  -1  -6   1   17.54    3.65
  -1  -6   1   20.41    3.33
  -1  -6   2   11.09    3.02
  -1  -6   2   11.93    3.11
  -1  -6   3  154.22    9.43
  -1  -6   3  174.79    9.96
  -1  -6   4  134.60    8.97
  -1  -6   4  145.15    9.01
  -1  -6   5  601.76   21.03
  -1  -6   5  601.21   20.42
  -1  -6   6  421.22   17.45
  -1  -6   6  407.78   16.65
  -1  -6   7   18.11    3.83
  -1  -6   7   19.06    3.96
  -1  -6   8 1238.87   34.80
  -1  -6   9  563.64   21.88
  -1  -6  10  407.36   18.79
  -1  -6  11  785.28   28.63
  -1  -6  12    2.75    2.43
  -1  -6  13  160.25   12.96
  -1  -6  14  160.05   13.49
  -1  -6  15    8.45    4.17
  -1  -6  16   72.55    9.70
  -1  -5 -12   13.90    5.60
  -1  -5 -11   33.46    7.26
  -1  -5 -10   55.57    8.54
  -1  -5  -9    1.24    2.83
  -1  -5  -8  544.65   23.61
  -1  -5  -7  235.12   14.19
  -1  -5  -6  256.43   14.40
  -1  -5  -6  279.77   14.43
  -1  -5  -5  461.60   18.95
  -1  -5  -5  447.69   18.14
  -1  -5  -4 1868.92   34.36
  -1  -5  -4 1894.86   46.13
  -1  -5  -4 1971.17   45.55
  -1  -5  -3 1798.71   43.52
  -1  -5  -3 1810.14   42.68
  -1  -5  -2 1514.61   37.50
  -1  -5  -2 1518.77   36.71
  -1  -5  -1 1940.27   34.74
  -1  -5  -1 1938.19   44.27
  -1  -5  -1 1921.51   43.39
  -1  -5   0  526.56   17.81
  -1  -5   0  542.61   17.48
  -1  -5   1  819.45   23.37
  -1  -5   1  812.46   15.65
  -1  -5   1  844.57   23.47
  -1  -5   1  841.02   22.95
  -1  -5   2   38.20    4.35
  -1  -5   2   46.53    4.91
  -1  -5   3   88.43    6.64
  -1  -5   3   88.36    6.58
  -1  -5   4   48.48    5.09
  -1  -5   4   46.94    4.93
  -1  -5   5  351.18   14.46
  -1  -5   5  321.26   13.49
  -1  -5   6  274.73   13.09
  -1  -5   6  276.89   12.78
  -1  -5   7   16.17    3.56
  -1  -5   7   10.68    2.93
  -1  -5   8  340.87   16.00
  -1  -5   8  322.25   14.98
  -1  -5   9 1820.90   45.87
  -1  -5  10  145.60   10.67
  -1  -5  11  915.78   30.95
  -1  -5  12  214.64   14.19
  -1  -5  13  571.29   25.19
  -1  -5  14  333.48   19.59
  -1  -5  15  282.59   18.62
  -1  -5  16   28.38    6.36
  -1  -4 -12  239.98   17.91
  -1  -4 -11   54.12    8.33
  -1  -4 -10   58.71    8.31
  -1  -4  -9   10.85    4.08
  -1  -4  -8   -1.04    2.56
  -1  -4  -7  166.90   11.27
  -1  -4  -7  176.02   11.31
  -1  -4  -6    0.26    2.20
  -1  -4  -6    6.23    2.91
  -1  -4  -5   66.39    6.46
  -1  -4  -5   73.47    6.44
  -1  -4  -4 2593.96   47.17
  -1  -4  -4 2571.00   56.85
  -1  -4  -4 2741.71   56.48
  -1  -4  -3  859.40   18.09
  -1  -4  -3  882.38   25.05
  -1  -4  -3  917.74   24.49
  -1  -4  -2  974.21   26.02
  -1  -4  -2  973.84   25.14
  -1  -4  -1  879.80   23.98
  -1  -4  -1  917.15   23.33
  -1  -4   0 1938.96   41.85
  -1  -4   0 1935.91   40.92
  -1  -4   1 1022.93   25.77
  -1  -4   1 1015.16   19.38
  -1  -4   1 1101.34   26.19
  -1  -4   1 1068.75   25.21
  -1  -4   2 1373.74   31.94
  -1  -4   2 1398.79   31.86
  -1  -4   3  194.51    9.17
  -1  -4   3  211.65    9.45
  -1  -4   4  431.49   14.89
  -1  -4   4  426.23   14.61
  -1  -4   5  246.96   11.20
  -1  -4   5  230.01   10.68
  -1  -4   6  563.94   19.30
  -1  -4   6  573.28   18.83
  -1  -4   7    8.43    3.03
  -1  -4   7    5.48    2.81
  -1  -4   8   42.94    5.54
  -1  -4   8   48.67    5.57
  -1  -4   9  394.03   17.04
  -1  -4  10  196.74   12.22
  -1  -4  11  258.47   14.90
  -1  -4  12  219.13   14.26
  -1  -4  13  858.33   31.82
  -1  -4  14  484.38   23.96
  -1  -4  15  116.42   11.89
  -1  -4  16  287.56   19.44
  -1  -3 -13  334.41   21.54
  -1  -3 -12   13.09    5.35
  -1  -3 -11  296.07   18.68
  -1  -3 -10  445.74   22.10
  -1  -3  -9    2.39    2.96
  -1  -3  -8   78.12    8.10
  -1  -3  -8   76.10    7.44
  -1  -3  -7   85.92    7.58
  -1  -3  -7   92.41    7.66
  -1  -3  -6   31.74    4.76
  -1  -3  -6   28.60    4.24
  -1  -3  -5  416.93   16.11
  -1  -3  -5  434.08   15.87
  -1  -3  -4  510.50   17.45
  -1  -3  -4  528.56   16.84
  -1  -3  -3  490.12   11.54
  -1  -3  -3  511.24   16.35
  -1  -3  -3  498.73   15.52
  -1  -3  -2  415.08   13.90
  -1  -3  -2  426.34   13.25
  -1  -3  -1  592.28   16.50
  -1  -3  -1  536.82   15.11
  -1  -3   0  133.77    6.90
  -1  -3   0  137.08    6.30
  -1  -3   1 2247.36   44.48
  -1  -3   1 2164.03   39.15
  -1  -3   1 2237.03   44.32
  -1  -3   1 2263.00   43.50
  -1  -3   2  316.73   10.93
  -1  -3   2  336.09   11.14
  -1  -3   3 2048.15   42.49
  -1  -3   3 2077.50   42.43
  -1  -3   4    9.69    2.27
  -1  -3   4   12.41    2.80
  -1  -3   5  115.44    7.08
  -1  -3   5  100.75    6.63
  -1  -3   6  506.92   17.50
  -1  -3   6  511.89   17.03
  -1  -3   7  382.17   15.56
  -1  -3   7  366.41   14.71
  -1  -3   8   21.09    3.97
  -1  -3   8   21.13    3.88
  -1  -3   9  143.21   10.06
  -1  -3   9  114.19    8.77
  -1  -3  10    2.08    2.22
  -1  -3  11  155.86   11.38
  -1  -3  12   -1.08    2.73
  -1  -3  13  169.65   13.19
  -1  -3  14  348.64   20.04
  -1  -3  15  136.46   12.93
  -1  -3  16  220.57   17.00
  -1  -2 -13  242.93   17.86
  -1  -2 -12  264.95   17.82
  -1  -2 -11  145.59   12.52
  -1  -2 -10 1029.50   35.09
  -1  -2  -9  483.45   21.35
  -1  -2  -9  496.12   19.18
  -1  -2  -8    7.62    3.70
  -1  -2  -8    2.23    1.99
  -1  -2  -8    6.72    2.61
  -1  -2  -7  502.43   17.86
  -1  -2  -7  501.58   19.81
  -1  -2  -7  505.58   18.78
  -1  -2  -6   24.57    3.71
  -1  -2  -6   32.16    4.53
  -1  -2  -6   25.17    3.97
  -1  -2  -5   54.84    5.20
  -1  -2  -5   50.84    4.73
  -1  -2  -4  333.03   12.57
  -1  -2  -4  351.68   12.37
  -1  -2  -3   13.56    1.60
  -1  -2  -3   17.87    2.93
  -1  -2  -3   17.22    2.57
  -1  -2  -2  459.86   10.87
  -1  -2  -2  453.05   13.51
  -1  -2  -2  475.35   12.80
  -1  -2  -1  725.22   17.43
  -1  -2  -1  690.89   16.27
  -1  -2   0 1521.96   31.00
  -1  -2   0 1532.74   29.85
  -1  -2   1 7957.60  139.94
  -1  -2   1 8300.94  139.97
  -1  -2   1 7937.48  136.72
  -1  -2   2  531.33   13.90
  -1  -2   2  530.10   13.94
  -1  -2   3  369.17   11.61
  -1  -2   3  388.56   11.77
  -1  -2   4  743.47   19.59
  -1  -2   4  767.06   19.62
  -1  -2   5  236.99   10.02
  -1  -2   5  218.43    9.63
  -1  -2   6   33.31    4.26
  -1  -2   6   33.50    4.17
  -1  -2   7 1498.01   36.97
  -1  -2   7 1467.32   36.05
  -1  -2   8  230.88   12.34
  -1  -2   8  242.86   12.21
  -1  -2   9  148.57   10.27
  -1  -2   9  173.46   10.75
  -1  -2  10  151.41   10.58
  -1  -2  11   23.56    4.78
  -1  -2  12   45.60    6.64
  -1  -2  13    4.64    3.64
  -1  -2  14   44.83    7.46
  -1  -2  15   24.42    5.47
  -1  -2  16   16.26    5.03
  -1  -1 -14  167.04   15.11
  -1  -1 -13   18.73    5.53
  -1  -1 -12  463.09   23.66
  -1  -1 -11  904.01   33.12
  -1  -1 -10   70.39    8.13
  -1  -1 -10   64.15    6.68
  -1  -1  -9  716.60   23.82
  -1  -1  -9  728.29   26.58
  -1  -1  -9  769.13   25.98
  -1  -1  -8 1395.56   38.61
  -1  -1  -8 1407.13   35.98
  -1  -1  -8 1440.94   37.45
  -1  -1  -7  735.26   23.78
  -1  -1  -7  629.14   20.67
  -1  -1  -7  731.35   22.56
  -1  -1  -6 2072.99   47.91
  -1  -1  -6 2077.73   45.68
  -1  -1  -6 2179.76   46.62
  -1  -1  -5 2245.65   46.48
  -1  -1  -5 2197.26   46.60
  -1  -1  -5 2191.97   46.27
  -1  -1  -4 2831.98   56.13
  -1  -1  -4 2904.56   56.16
  -1  -1  -4 2849.44   55.74
  -1  -1  -3 2768.75   53.44
  -1  -1  -3 2762.74   51.01
  -1  -1  -3 2841.35   53.21
  -1  -1  -3 2734.83   52.50
  -1  -1  -2  780.41   18.23
  -1  -1  -2  745.10   16.32
  -1  -1  -2  773.46   17.80
  -1  -1  -2  803.62   17.13
  -1  -1  -1  200.92    6.48
  -1  -1  -1  194.54    5.64
  -1  -1   0   92.77    3.83
  -1  -1   0   91.22    3.12
  -1  -1   1  258.48    7.33
  -1  -1   1  260.23    7.35
  -1  -1   1  266.80    6.87
  -1  -1   2  275.33    8.15
  -1  -1   2  278.09    8.35
  -1  -1   3 2768.37   53.43
  -1  -1   3 2954.13   54.11
  -1  -1   4   43.11    3.76
  -1  -1   4   42.66    3.98
  -1  -1   5 1654.26   36.59
  -1  -1   5 1663.68   36.54
  -1  -1   6  905.32   24.73
  -1  -1   6  929.80   24.68
  -1  -1   7  567.29   19.38
  -1  -1   7  582.78   19.17
  -1  -1   8 1843.82   44.12
  -1  -1   8 1712.67   42.45
  -1  -1   9  130.20    9.55
  -1  -1   9  105.89    8.44
  -1  -1  10  504.49   20.59
  -1  -1  11  591.98   23.74
  -1  -1  12   -2.70    3.02
  -1  -1  13   48.92    7.38
  -1  -1  14  124.54   11.91
  -1  -1  15    0.78    2.90
  -1  -1  16   -3.07    3.52
  -1   0 -14   -2.50    3.88
  -1   0 -13    3.33    3.75
  -1   0 -12   19.28    5.32
  -1   0 -11  416.44   20.95
  -1   0 -10   71.35    7.99
  -1   0 -10   75.90    7.11
  -1   0  -9  125.25   10.00
  -1   0  -9  131.97    8.99
  -1   0  -9  142.91    9.83
  -1   0  -8 1444.30   39.00
  -1   0  -8 1454.70   36.53
  -1   0  -8 1507.11   37.99
  -1   0  -7  410.96   16.61
  -1   0  -7  416.19   15.29
  -1   0  -7  393.49   15.29
  -1   0  -6  553.33   17.20
  -1   0  -6  541.75   18.42
  -1   0  -6  509.93   16.99
  -1   0  -5 2209.37   46.04
  -1   0  -5 2277.11   47.67
  -1   0  -5 2180.52   45.67
  -1   0  -4 2479.88   49.77
  -1   0  -4 2434.43   48.58
  -1   0  -4 2431.98   47.83
  -1   0  -3 2041.05   40.54
  -1   0  -3 1978.76   39.94
  -1   0  -3 2023.04   38.84
  -1   0  -2 3811.77   72.34
  -1   0  -2 4167.94   71.05
  -1   0  -2 4064.08   71.86
  -1   0  -1 2255.37   41.20
  -1   0  -1 2251.04   39.43
  -1   0  -1 2209.86   40.80
  -1   0  -1 2220.85   40.75
  -1   0   0  291.47    7.19
  -1   0   0  288.73    6.91
  -1   0   1  513.77   10.55
  -1   0   1  525.66   11.17
  -1   0   2    1.45    1.04
  -1   0   2    1.53    1.43
  -1   0   3 1985.33   38.69
  -1   0   3 2009.97   39.34
  -1   0   4    5.24    1.85
  -1   0   4    9.03    2.81
  -1   0   5   90.91    5.91
  -1   0   5   83.65    5.95
  -1   0   6 2185.66   47.40
  -1   0   6 2167.64   47.19
  -1   0   7   47.75    5.22
  -1   0   7   37.31    4.60
  -1   0   8  182.42   10.74
  -1   0   8  175.35   10.53
  -1   0   9 1561.02   41.11
  -1   0   9 1534.13   40.58
  -1   0  10  903.96   29.74
  -1   0  11  402.97   19.31
  -1   0  12 1038.46   35.31
  -1   0  13  230.76   15.88
  -1   0  14  131.42   12.56
  -1   0  15  109.53   12.19
  -1   1 -14  283.31   19.57
  -1   1 -13   32.56    6.80
  -1   1 -12  116.15   11.34
  -1   1 -11    3.89    3.65
  -1   1 -10  144.64   11.08
  -1   1 -10  178.64   11.01
  -1   1  -9  149.26   10.81
  -1   1  -9  149.02    9.63
  -1   1  -9  160.34   10.34
  -1   1  -8   -0.83    2.62
  -1   1  -8    2.25    1.70
  -1   1  -7  813.41   24.58
  -1   1  -7  764.65   22.72
  -1   1  -6   19.50    3.47
  -1   1  -6   18.32    3.12
  -1   1  -5 2813.78   57.01
  -1   1  -5 2802.24   56.12
  -1   1  -4 1388.83   30.55
  -1   1  -4 1382.33   30.80
  -1   1  -3 2470.36   47.33
  -1   1  -3 2452.20   47.02
  -1   1  -3 2409.81   44.85
  -1   1  -2    8.91    1.74
  -1   1  -2    7.37    1.63
  -1   1  -2    6.38    0.99
  -1   1  -1  978.24   20.48
  -1   1  -1  992.59   20.47
  -1   1  -1 1007.88   18.97
  -1   1  -1 1008.68   20.36
  -1   1   0 1484.67   28.45
  -1   1   0 1544.95   28.41
  -1   1   0 1563.80   28.91
  -1   1   0 1534.24   27.88
  -1   1   0 1472.82   27.66
  -1   1   1 4521.38   77.88
  -1   1   1 4407.18   78.12
  -1   1   2  270.60    8.34
  -1   1   2  266.40    8.35
  -1   1   2  268.45    8.32
  -1   1   3  124.03    3.62
  -1   1   3  131.35    6.19
  -1   1   3  135.29    6.33
  -1   1   3  126.76    6.23
  -1   1   4   12.37    1.50
  -1   1   4   11.27    2.37
  -1   1   4   13.27    3.08
  -1   1   5    2.12    1.18
  -1   1   5    3.43    1.80
  -1   1   5    0.71    1.82
  -1   1   6    0.78    1.12
  -1   1   6    0.61    1.90
  -1   1   6    1.61    2.08
  -1   1   7 2393.26   52.24
  -1   1   7 2269.69   45.66
  -1   1   7 2314.75   51.94
  -1   1   8  143.86    9.73
  -1   1   8  146.29    7.28
  -1   1   8  137.62    9.56
  -1   1   9 1158.36   34.29
  -1   1   9 1161.53   34.08
  -1   1  10  784.63   27.73
  -1   1  11  182.76   13.04
  -1   1  12  711.36   28.66
  -1   1  13 1398.90   44.91
  -1   1  14  199.49   15.80
  -1   1  15  237.67   18.04
  -1   2 -15   53.15    8.72
  -1   2 -14  195.45   15.87
  -1   2 -13  268.65   17.92
  -1   2 -12  278.88   17.45
  -1   2 -11  789.23   29.57
  -1   2 -10  100.50    8.31
  -1   2 -10  101.79    9.27
  -1   2  -9  140.64    9.51
  -1   2  -9  167.91   11.14
  -1   2  -8   21.81    4.47
  -1   2  -8    9.44    2.59
  -1   2  -7  130.52    8.19
  -1   2  -7  128.57    8.70
  -1   2  -7  125.58    7.56
  -1   2  -6  264.87   11.62
  -1   2  -6  238.38   10.78
  -1   2  -6  239.24    9.81
  -1   2  -5  310.04   11.90
  -1   2  -5  291.86   11.44
  -1   2  -5  311.73   10.39
  -1   2  -4 1505.12   32.44
  -1   2  -4 1469.77   32.56
  -1   2  -4 1464.57   30.04
  -1   2  -3  188.60    7.36
  -1   2  -3  181.98    6.10
  -1   2  -3  195.93    7.84
  -1   2  -2  212.01    6.83
  -1   2  -2  214.06    7.64
  -1   2  -2  203.54    5.73
  -1   2  -1  695.45   14.23
  -1   2  -1  668.62   15.58
  -1   2  -1  663.04   13.71
  -1   2  -1  696.78   15.49
  -1   2   0 3939.17   69.90
  -1   2   0 3992.52   69.60
  -1   2   0 3839.51   70.43
  -1   2   0 3966.13   69.50
  -1   2   0 4010.12   70.76
  -1   2   1 1364.27   25.60
  -1   2   1 1355.00   27.44
  -1   2   1 1400.52   28.16
  -1   2   2   37.60    3.27
  -1   2   2   30.87    3.36
  -1   2   3  153.08    7.20
  -1   2   3  158.46    7.56
  -1   2   4  283.82    8.12
  -1   2   4  305.36   11.42
  -1   2   4  282.02   11.18
  -1   2   5   12.56    1.88
  -1   2   5   18.84    3.26
  -1   2   5   13.06    3.20
  -1   2   5   12.90    2.96
  -1   2   6 1679.78   34.16
  -1   2   6 1720.61   40.61
  -1   2   6 1631.15   39.79
  -1   2   7  355.17   15.37
  -1   2   7  356.35   11.51
  -1   2   7  308.73   14.50
  -1   2   8  114.09    9.01
  -1   2   8  125.19    9.34
  -1   2   8  124.38    6.77
  -1   2   9   95.94    6.35
  -1   2   9   98.33    8.84
  -1   2  10  261.21   11.51
  -1   2  10  265.41   15.40
  -1   2  11  136.83   11.54
  -1   2  12  340.21   13.70
  -1   2  12  303.89   18.48
  -1   2  13   86.61   10.41
  -1   2  14  262.61   18.48
  -1   2  15   86.01   10.97
  -1   3 -15  468.36   26.18
  -1   3 -14  109.06   11.90
  -1   3 -13  496.84   24.86
  -1   3 -12  526.03   24.37
  -1   3 -11  343.33   18.41
  -1   3 -10   47.21    6.43
  -1   3 -10   61.75    6.73
  -1   3  -9  448.71   19.25
  -1   3  -9  480.84   18.84
  -1   3  -9  477.92   17.84
  -1   3  -8   96.73    7.99
  -1   3  -8  109.00    8.09
  -1   3  -8   87.71    6.60
  -1   3  -7  362.20   14.96
  -1   3  -7  335.70   14.24
  -1   3  -7  332.66   12.77
  -1   3  -6  869.03   24.48
  -1   3  -6  853.05   24.34
  -1   3  -6  876.47   22.31
  -1   3  -5    7.18    2.21
  -1   3  -5    9.81    2.75
  -1   3  -5   10.40    2.10
  -1   3  -4  441.06   13.67
  -1   3  -4  421.56   11.99
  -1   3  -3  432.23   12.57
  -1   3  -3  409.42   11.11
  -1   3  -2  857.48   19.00
  -1   3  -2  833.82   19.64
  -1   3  -2  813.61   18.07
  -1   3  -2  839.32   20.13
  -1   3  -1  643.78   14.75
  -1   3  -1  623.19   15.26
  -1   3  -1  637.30   13.87
  -1   3  -1  609.91   14.60
  -1   3  -1  640.78   16.31
  -1   3   0  745.77   17.45
  -1   3   0  771.70   17.81
  -1   3   0  790.74   19.00
  -1   3   1  371.56   11.38
  -1   3   1  372.09   11.93
  -1   3   2  464.52   13.99
  -1   3   2  458.74   14.29
  -1   3   3   82.57    5.73
  -1   3   3   84.46    6.16
  -1   3   4  472.53   12.79
  -1   3   4  508.93   16.60
  -1   3   4  452.07   15.82
  -1   3   5  103.66    5.31
  -1   3   5  114.36    7.75
  -1   3   5  110.04    7.75
  -1   3   6  762.62   19.00
  -1   3   6  735.93   23.78
  -1   3   6  728.06   23.46
  -1   3   7  346.76   11.87
  -1   3   7  349.47   15.97
  -1   3   7  337.25   15.45
  -1   3   7  347.39   15.78
  -1   3   8   71.27    5.28
  -1   3   8   85.30    8.05
  -1   3   9   11.80    1.91
  -1   3   9   11.40    2.56
  -1   3   9   15.54    4.07
  -1   3  10  228.64    8.90
  -1   3  10  233.69   10.88
  -1   3  10  207.74   14.01
  -1   3  11  191.62    8.32
  -1   3  11  178.63    9.97
  -1   3  11  184.83   13.75
  -1   3  12   -1.53    1.88
  -1   3  12    2.96    3.66
  -1   3  13    6.43    4.00
  -1   3  14   19.93    5.76
  -1   4 -15   64.92    9.77
  -1   4 -14  240.95   17.57
  -1   4 -13  167.05   13.92
  -1   4 -12  556.74   25.10
  -1   4 -11 1188.05   38.02
  -1   4 -10   25.32    4.77
  -1   4 -10   31.48    4.56
  -1   4  -9  678.30   24.69
  -1   4  -9  708.67   22.57
  -1   4  -9  709.08   24.38
  -1   4  -8  984.48   29.44
  -1   4  -8  987.50   29.01
  -1   4  -8  949.98   26.53
  -1   4  -7  490.28   18.23
  -1   4  -7  504.38   18.44
  -1   4  -7  471.81   16.09
  -1   4  -6 1620.83   38.31
  -1   4  -6 1571.65   35.48
  -1   4  -6 1636.57   38.94
  -1   4  -5   69.72    5.66
  -1   4  -5   62.37    4.54
  -1   4  -4  585.31   17.08
  -1   4  -4  565.97   15.47
  -1   4  -3  225.18    8.97
  -1   4  -3  213.94    8.86
  -1   4  -3  212.66    8.07
  -1   4  -3  208.67    9.39
  -1   4  -2  223.67    8.44
  -1   4  -2  214.05    8.40
  -1   4  -2  225.86    6.96
  -1   4  -2  215.71    8.06
  -1   4  -2  234.88    9.67
  -1   4  -1 1016.20   22.68
  -1   4  -1 1020.23   20.28
  -1   4  -1  988.84   22.45
  -1   4  -1  964.43   22.77
  -1   4  -1  972.54   24.36
  -1   4   0   74.69    4.43
  -1   4   0   72.40    4.84
  -1   4   0   70.52    5.35
  -1   4   1  336.53   11.90
  -1   4   1  337.16   12.39
  -1   4   2  311.32   12.02
  -1   4   2  306.09   12.11
  -1   4   3  166.15    8.93
  -1   4   3  172.76    9.17
  -1   4   4  349.35   14.29
  -1   4   4  320.67   13.62
  -1   4   5 1864.42   39.32
  -1   4   5 1939.74   45.26
  -1   4   5 1884.14   44.79
  -1   4   6  819.48   21.53
  -1   4   6  912.82   27.54
  -1   4   6  823.92   26.28
  -1   4   7  126.16    7.10
  -1   4   7  116.40    9.38
  -1   4   7   98.53    8.67
  -1   4   8  643.58   19.19
  -1   4   8  638.72   24.27
  -1   4   8  632.96   24.25
  -1   4   9  201.06    5.39
  -1   4   9  211.24   10.27
  -1   4   9  219.33   14.14
  -1   4  10  575.10   12.45
  -1   4  10  550.91   18.73
  -1   4  10  499.79   23.48
  -1   4  11  101.76   10.79
  -1   4  11  130.28    8.61
  -1   4  12    2.71    2.25
  -1   4  12    5.69    3.24
  -1   4  13    7.27    4.33
  -1   5 -15   78.90   10.55
  -1   5 -14    9.27    4.11
  -1   5 -13  153.88   13.72
  -1   5 -12   85.82    9.70
  -1   5 -11  277.54   16.50
  -1   5 -10  336.67   17.54
  -1   5 -10  329.54   15.19
  -1   5  -9  242.43   13.87
  -1   5  -9  231.92   11.95
  -1   5  -8 1094.42   31.71
  -1   5  -8 1024.68   28.51
  -1   5  -8 1086.32   31.76
  -1   5  -7 2176.39   49.79
  -1   5  -7 2058.87   46.14
  -1   5  -7 2160.67   50.24
  -1   5  -6 1099.35   29.36
  -1   5  -6 1039.69   26.77
  -1   5  -5  134.51    8.09
  -1   5  -5  127.23    7.10
  -1   5  -4 1550.15   34.63
  -1   5  -4 1410.81   33.93
  -1   5  -4 1486.65   32.99
  -1   5  -4 1467.89   35.68
  -1   5  -3 1601.04   36.80
  -1   5  -3 1770.28   37.09
  -1   5  -3 1689.45   36.30
  -1   5  -3 1736.00   39.28
  -1   5  -2 1243.03   29.91
  -1   5  -2 1308.09   29.38
  -1   5  -2 1396.41   26.31
  -1   5  -2 1285.27   29.93
  -1   5  -2 1376.52   32.47
  -1   5  -1  769.27   19.06
  -1   5  -1  758.13   20.39
  -1   5  -1  755.32   21.75
  -1   5   0   -0.34    1.34
  -1   5   0    0.66    1.64
  -1   5   0    2.96    2.69
  -1   5   1  157.96    8.56
  -1   5   1  175.15    9.29
  -1   5   2   92.33    6.79
  -1   5   2   89.57    6.89
  -1   5   3  326.40   14.04
  -1   5   3  333.83   14.16
  -1   5   4  304.33   13.98
  -1   5   4  287.40   13.70
  -1   5   5  330.66   15.33
  -1   5   5  291.56   14.43
  -1   5   6 1002.19   26.46
  -1   5   6 1112.33   32.83
  -1   5   6 1041.76   31.60
  -1   5   7  157.25    8.60
  -1   5   7  155.81   11.21
  -1   5   8  171.53    9.38
  -1   5   8  179.58   12.62
  -1   5   9 1496.34   36.12
  -1   5   9 1407.42   42.97
  -1   5   9 1401.40   43.17
  -1   5  10  750.08   23.25
  -1   5  10  704.26   29.38
  -1   5  11  304.48   13.95
  -1   5  11  297.99   18.86
  -1   5  12  320.10   20.54
  -1   5  13   56.85    8.81
  -1   6 -15   14.77    5.01
  -1   6 -14  178.33   15.39
  -1   6 -13   27.48    6.05
  -1   6 -12   -3.03    4.08
  -1   6 -11    4.44    3.31
  -1   6 -10  317.25   17.24
  -1   6 -10  320.53   15.14
  -1   6  -9   68.44    7.63
  -1   6  -9   69.64    6.56
  -1   6  -8  169.85   11.04
  -1   6  -8  162.18    9.59
  -1   6  -7  396.84   16.80
  -1   6  -7  383.16   14.87
  -1   6  -6 1508.23   37.64
  -1   6  -6 1492.48   37.46
  -1   6  -6 1457.81   35.23
  -1   6  -5  219.29   11.01
  -1   6  -5  224.01   10.82
  -1   6  -5  201.74    9.76
  -1   6  -5  206.26   11.44
  -1   6  -4  914.69   25.17
  -1   6  -4  907.56   24.32
  -1   6  -4  888.76   24.08
  -1   6  -4  945.30   26.98
  -1   6  -3 2125.50   46.18
  -1   6  -3 2209.71   40.22
  -1   6  -3 2043.45   44.53
  -1   6  -3 2034.49   45.16
  -1   6  -3 2118.22   48.26
  -1   6  -2  235.64   10.44
  -1   6  -2  234.12    9.41
  -1   6  -2  219.63   10.09
  -1   6  -2  248.99   11.87
  -1   6  -1   87.51    5.35
  -1   6  -1   82.77    6.17
  -1   6  -1   88.93    7.10
  -1   6   0 2640.49   53.51
  -1   6   0 2260.38   53.04
  -1   6   1   60.64    5.69
  -1   6   1   57.26    5.96
  -1   6   2    1.01    1.82
  -1   6   2   -0.01    2.17
  -1   6   3  178.99   10.70
  -1   6   3  189.82   11.20
  -1   6   4  195.12   11.66
  -1   6   4  180.60   11.29
  -1   6   5   44.19    5.92
  -1   6   6  235.38   11.31
  -1   6   6  233.24   13.95
  -1   6   7  819.80   24.51
  -1   6   7  874.01   30.10
  -1   6   8  437.36   16.75
  -1   6   8  441.01   21.28
  -1   6   9  510.30   18.62
  -1   6   9  498.23   23.74
  -1   6  10  818.91   25.38
  -1   6  10  771.70   31.87
  -1   6  11  117.09    8.79
  -1   6  11  119.17   12.42
  -1   6  12  412.77   24.09
  -1   7 -14  189.17   15.96
  -1   7 -13  456.72   24.34
  -1   7 -12  290.21   18.32
  -1   7 -11   17.51    4.62
  -1   7 -10  205.20   14.05
  -1   7 -10  212.61   12.48
  -1   7  -9   42.38    6.11
  -1   7  -9   33.70    4.84
  -1   7  -8   20.05    4.48
  -1   7  -8   18.50    3.40
  -1   7  -7   50.15    5.90
  -1   7  -7   35.72    5.29
  -1   7  -7   43.21    5.00
  -1   7  -6    5.79    3.00
  -1   7  -6    5.88    2.74
  -1   7  -6    2.61    1.55
  -1   7  -6   -0.23    2.92
  -1   7  -5  374.79   15.68
  -1   7  -5  363.26   14.61
  -1   7  -5  361.55   14.56
  -1   7  -5  389.51   17.04
  -1   7  -4  408.52   16.34
  -1   7  -4  457.03   15.84
  -1   7  -4  461.33   11.99
  -1   7  -4  435.53   16.09
  -1   7  -4  447.03   18.18
  -1   7  -3  626.02   20.19
  -1   7  -3  561.18   17.84
  -1   7  -3  635.94   13.79
  -1   7  -3  589.85   19.50
  -1   7  -3  615.39   21.59
  -1   7  -2 1315.29   30.59
  -1   7  -2 1313.03   33.28
  -1   7  -2 1330.43   35.58
  -1   7  -1  448.93   14.26
  -1   7  -1  439.09   16.64
  -1   7  -1  453.36   17.97
  -1   7   0 1929.49   45.02
  -1   7   0 1827.27   45.43
  -1   7   1   79.40    7.14
  -1   7   1   81.02    7.46
  -1   7   2  106.18    8.38
  -1   7   2   93.47    8.25
  -1   7   3   97.50    8.34
  -1   7   3   87.97    8.11
  -1   7   4  277.07   14.96
  -1   7   5  270.59   15.31
  -1   7   6  168.58   10.11
  -1   7   6  176.62   12.72
  -1   7   7   85.09    7.34
  -1   7   7  102.68   10.01
  -1   7   8   37.48    4.85
  -1   7   8   33.08    6.30
  -1   7   9  105.56    8.40
  -1   7   9   93.17   10.49
  -1   7  10   59.28    6.40
  -1   7  10   60.94    8.77
  -1   7  10   57.55    8.54
  -1   7  11  307.20   20.49
  -1   8 -14  141.75   14.06
  -1   8 -13  491.09   25.77
  -1   8 -12  226.20   16.35
  -1   8 -11   24.65    5.91
  -1   8 -10  116.52   10.65
  -1   8  -9  104.88    9.67
  -1   8  -9  107.62    8.74
  -1   8  -8   87.98    8.55
  -1   8  -8   92.25    7.76
  -1   8  -8   76.90    8.53
  -1   8  -7  342.86   16.57
  -1   8  -7  299.87   15.10
  -1   8  -7  311.74   14.54
  -1   8  -7  353.34   17.69
  -1   8  -6    3.64    2.72
  -1   8  -6    0.73    1.56
  -1   8  -6    1.78    2.33
  -1   8  -6    2.20    2.63
  -1   8  -5    4.97    2.69
  -1   8  -5    1.50    0.98
  -1   8  -5    3.86    2.02
  -1   8  -5   -0.28    1.77
  -1   8  -5    0.45    2.63
  -1   8  -4  138.68    9.42
  -1   8  -4  130.18    8.13
  -1   8  -4  147.06    5.14
  -1   8  -4  132.56    8.93
  -1   8  -4  135.83   10.24
  -1   8  -3  287.82   11.86
  -1   8  -3  274.94   13.29
  -1   8  -3  291.20   15.04
  -1   8  -2  435.81   14.73
  -1   8  -2  418.89   17.01
  -1   8  -2  435.59   18.80
  -1   8  -1  867.59   23.11
  -1   8  -1  946.74   28.12
  -1   8  -1  923.29   29.28
  -1   8   0   24.22    4.45
  -1   8   0   28.98    4.90
  -1   8   1  287.81   14.79
  -1   8   1  281.94   14.87
  -1   8   2  585.62   23.00
  -1   8   3  484.44   20.97
  -1   8   4   10.69    4.03
  -1   8   5  857.72   30.86
  -1   8   6  109.04    8.70
  -1   8   6  106.15   10.31
  -1   8   7  151.75   10.44
  -1   8   7  153.56   12.85
  -1   8   8   95.99    8.24
  -1   8   8  118.18   11.70
  -1   8   9   11.85    3.50
  -1   8   9   21.72    5.55
  -1   8  10    9.56    4.11
  -1   9 -14  377.39   23.45
  -1   9 -13   43.64    7.77
  -1   9 -12  414.60   23.03
  -1   9 -11  430.83   22.56
  -1   9 -10  336.29   18.79
  -1   9 -10  295.44   18.53
  -1   9  -9  322.89   18.59
  -1   9  -9  211.09   15.22
  -1   9  -8  372.96   18.79
  -1   9  -8  360.52   19.40
  -1   9  -7   23.59    5.05
  -1   9  -7   16.56    3.80
  -1   9  -7   25.94    4.33
  -1   9  -7   11.40    4.13
  -1   9  -6   29.73    4.96
  -1   9  -6   26.24    2.67
  -1   9  -6   23.53    4.13
  -1   9  -6   28.09    4.49
  -1   9  -6   22.34    4.89
  -1   9  -5   37.13    5.52
  -1   9  -5   35.32    2.37
  -1   9  -5   29.80    4.18
  -1   9  -5   29.16    4.51
  -1   9  -5   33.94    5.59
  -1   9  -4    4.08    1.69
  -1   9  -4    4.40    2.44
  -1   9  -4    2.44    2.41
  -1   9  -3    3.09    1.87
  -1   9  -3    8.97    2.60
  -1   9  -3   -0.68    2.43
  -1   9  -2   26.66    3.47
  -1   9  -2   18.04    3.64
  -1   9  -2   16.44    4.25
  -1   9  -1  330.02   16.03
  -1   9  -1  324.02   16.91
  -1   9   0  514.30   22.00
  -1   9   1   86.71    8.75
  -1   9   2  986.39   33.15
  -1   9   3  443.43   21.15
  -1   9   4  192.16   13.89
  -1   9   5  669.98   28.05
  -1   9   6   72.78    9.15
  -1   9   7  120.79    9.78
  -1   9   7  113.44   11.59
  -1   9   8  368.49   17.81
  -1   9   8  361.25   21.55
  -1   9   9   50.23    8.50
  -1  10 -13  391.91   23.42
  -1  10 -12  106.61   11.82
  -1  10 -12  113.73   12.54
  -1  10 -11  215.74   16.19
  -1  10 -11  248.03   17.84
  -1  10 -10  484.65   24.14
  -1  10 -10  530.05   26.11
  -1  10  -9  131.39   11.62
  -1  10  -9  133.09   12.30
  -1  10  -8 1403.26   42.66
  -1  10  -8 1407.93   44.59
  -1  10  -7 1271.70   36.70
  -1  10  -7 1322.86   28.33
  -1  10  -7 1291.85   39.97
  -1  10  -7 1333.64   42.12
  -1  10  -6   82.86    7.45
  -1  10  -6   93.17    3.67
  -1  10  -6   74.70    8.19
  -1  10  -6   75.34    8.98
  -1  10  -5  802.44   24.81
  -1  10  -5  735.06   29.16
  -1  10  -4  624.75   20.55
  -1  10  -4  626.61   26.03
  -1  10  -3  258.90   11.82
  -1  10  -3  271.56   16.33
  -1  10  -2  189.03    9.56
  -1  10  -2  190.64   13.46
  -1  10  -1   -0.76    2.86
  -1  10   0  150.99   12.13
  -1  10   1   19.92    4.88
  -1  10   2   -1.75    3.41
  -1  10   3  290.23   17.82
  -1  10   4  192.73   14.71
  -1  10   5  183.07   14.62
  -1  10   6  530.79   26.45
  -1  10   7  258.68   15.30
  -1  10   7  231.95   17.48
  -1  10   8  223.11   14.35
  -1  10   8  230.09   17.73
  -1  11 -13    7.48    4.39
  -1  11 -12   85.43   10.88
  -1  11 -12   48.56    8.49
  -1  11 -11   51.07    8.21
  -1  11 -11   51.60    8.56
  -1  11 -10  143.97   13.25
  -1  11 -10  159.78   14.46
  -1  11  -9  286.20   18.18
  -1  11  -9  308.29   19.84
  -1  11  -8   76.72    9.23
  -1  11  -8   70.85    9.31
  -1  11  -7  508.00   23.63
  -1  11  -7  533.72   25.63
  -1  11  -6  154.46   10.36
  -1  11  -6  160.17   13.59
  -1  11  -5  505.25   19.09
  -1  11  -5  503.55   24.41
  -1  11  -4  525.36   18.68
  -1  11  -4  473.60   23.59
  -1  11  -3 1112.59   29.40
  -1  11  -3 1054.81   37.35
  -1  11  -2  174.68   13.70
  -1  11  -1   44.66    7.31
  -1  11   0  222.03   15.65
  -1  11   1   11.20    4.44
  -1  11   2    9.67    4.46
  -1  11   3   14.94    5.14
  -1  11   4  129.40   12.74
  -1  11   5   15.23    5.34
  -1  11   6  128.31   13.25
  -1  11   7  434.04   21.29
  -1  11   7  397.36   24.11
  -1  12 -12   12.64    5.59
  -1  12 -11   39.93    8.08
  -1  12 -10   17.37    5.63
  -1  12 -10   25.22    6.12
  -1  12  -9   20.13    5.64
  -1  12  -9   26.90    6.69
  -1  12  -8   66.92    9.07
  -1  12  -8   51.17    8.71
  -1  12  -7   34.16    7.30
  -1  12  -6  223.26   16.78
  -1  12  -5  248.68   17.65
  -1  12  -4  364.78   21.50
  -1  12  -3  351.58   21.00
  -1  12  -2  262.01   17.83
  -1  12  -1  106.94   11.42
  -1  12   0  333.13   20.51
  -1  12   1  293.37   19.30
  -1  12   2    2.85    3.78
  -1  12   3   20.30    6.15
  -1  12   4   83.64   10.95
  -1  12   5    1.47    3.16
  -1  12   6   20.36    5.24
  -1  13 -11   14.45    5.39
  -1  13 -10   26.18    6.88
  -1  13  -9    9.27    4.73
  -1  13  -9    1.20    4.28
  -1  13  -8   21.72    6.19
  -1  13  -7    1.15    3.29
  -1  13  -6   92.14   11.29
  -1  13  -5   -4.25    4.45
  -1  13  -4  273.73   19.18
  -1  13  -3  145.56   14.11
  -1  13  -2  186.65   15.70
  -1  13  -1  132.50   13.41
  -1  13   0  220.90   17.32
  -1  13   1  177.07   15.62
  -1  13   2  326.74   21.67
  -1  13   3   12.46    4.34
  -1  14  -5    8.80    5.12
  -1  14  -4   -1.93    4.33
  -1  14  -3  125.37   13.53
  -1  14  -2   44.19    7.97
  -1  14  -1  271.13   20.07
   0 -14   1   27.64    6.92
   0 -14   2    7.34    3.91
   0 -14   3  157.61   14.76
   0 -14   4  184.31   15.89
   0 -14   5   99.31   11.75
   0 -14   6  287.43   19.73
   0 -14   7  127.11   13.14
   0 -14   8  207.14   16.77
   0 -14   9  467.29   25.60
   0 -14  10  228.83   17.62
   0 -14  11   84.88   11.35
   0 -13  -2  310.22   21.01
   0 -13  -1  119.10   12.75
   0 -13   0  231.53   17.51
   0 -13   1    0.84    3.17
   0 -13   2   28.58    6.15
   0 -13   3   41.51    7.64
   0 -13   4   74.40    9.64
   0 -13   5   17.33    4.93
   0 -13   6  146.46   13.29
   0 -13   7   12.20    4.63
   0 -13   8  110.52   11.61
   0 -13   9  143.64   13.64
   0 -13  10  462.97   24.83
   0 -13  11  189.26   15.75
   0 -13  12  249.99   18.48
   0 -12  -4   76.58   10.59
   0 -12  -3  131.46   13.34
   0 -12  -2  371.36   22.05
   0 -12  -1  251.37   17.59
   0 -12   0  218.53   16.22
   0 -12   1  499.79   24.72
   0 -12   2   34.58    6.55
   0 -12   3  127.88   11.89
   0 -12   4   44.90    7.19
   0 -12   5   -0.01    3.02
   0 -12   6   58.51    8.16
   0 -12   7  122.83   11.65
   0 -12   8   15.49    4.88
   0 -12   9  130.52   12.35
   0 -12  10   36.72    6.98
   0 -12  11  344.58   20.74
   0 -12  12  102.04   11.31
   0 -12  13  186.05   15.51
   0 -11  -6   81.80   10.66
   0 -11  -5    8.57    4.93
   0 -11  -4  441.18   24.02
   0 -11  -3  180.39   14.88
   0 -11  -2  195.26   14.99
   0 -11  -1  919.35   34.37
   0 -11   0  823.24   31.61
   0 -11   1  419.23   21.27
   0 -11   2  707.86   28.26
   0 -11   3   92.80    9.58
   0 -11   4  328.65   18.20
   0 -11   5  511.73   23.12
   0 -11   6    6.93    3.60
   0 -11   7  216.42   14.67
   0 -11   8   37.75    6.18
   0 -11   9   35.78    6.29
   0 -11  10    8.66    4.05
   0 -11  11   -2.44    3.52
   0 -11  12  219.15   16.09
   0 -11  13  185.05   15.11
   0 -11  14   94.57   11.27
   0 -10  -7   17.23    5.69
   0 -10  -6    3.62    3.82
   0 -10  -5  150.61   13.56
   0 -10  -4  206.27   15.65
   0 -10  -4  266.15   10.68
   0 -10  -3   32.02    6.38
   0 -10  -3   44.04    3.79
   0 -10  -3   38.98    3.15
   0 -10  -2   59.69    7.88
   0 -10  -2   74.08    4.36
   0 -10  -2   72.45    4.80
   0 -10  -1  390.37   20.08
   0 -10  -1  405.28   11.59
   0 -10   0 1048.84   34.94
   0 -10   1  255.95   15.42
   0 -10   2  647.74   25.51
   0 -10   3 1274.61   38.42
   0 -10   4  484.28   21.23
   0 -10   5  923.04   31.24
   0 -10   6  580.62   23.81
   0 -10   7  233.35   14.57
   0 -10   8   99.71    9.43
   0 -10   9   42.32    6.58
   0 -10  10   27.57    5.55
   0 -10  11    9.94    4.07
   0 -10  12    2.97    3.35
   0 -10  13   29.19    6.19
   0 -10  14   97.61   11.05
   0 -10  15   65.59    9.28
   0  -9  -9  245.84   18.73
   0  -9  -8  295.26   19.94
   0  -9  -7  335.66   20.58
   0  -9  -6   67.27    8.80
   0  -9  -5  229.88   16.19
   0  -9  -5  282.03   12.38
   0  -9  -4   13.33    4.14
   0  -9  -4   25.27    3.46
   0  -9  -3   29.65    5.84
   0  -9  -3   33.35    3.44
   0  -9  -3   34.55    2.22
   0  -9  -2    1.47    2.48
   0  -9  -2   -0.33    1.02
   0  -9  -1  108.56    9.78
   0  -9  -1  118.00    5.39
   0  -9   0   -0.20    2.15
   0  -9   0    3.04    0.72
   0  -9   1  398.08   18.05
   0  -9   1  397.10   18.48
   0  -9   2  307.92   15.51
   0  -9   2  289.64   15.37
   0  -9   3 1320.46   37.07
   0  -9   3 1282.30   37.07
   0  -9   4  599.76   22.82
   0  -9   5  262.68   14.41
   0  -9   6  442.27   19.39
   0  -9   7  351.28   17.14
   0  -9   8  764.85   27.33
   0  -9   9  801.78   28.63
   0  -9  10  536.91   23.21
   0  -9  11    8.71    3.56
   0  -9  12   45.58    7.29
   0  -9  13   11.77    4.31
   0  -9  14   49.70    7.99
   0  -9  15  137.07   13.14
   0  -8 -10  277.17   19.36
   0  -8  -9  451.24   24.95
   0  -8  -8  223.06   16.49
   0  -8  -7  363.42   20.50
   0  -8  -6  260.59   16.57
   0  -8  -5  220.24   14.80
   0  -8  -4  913.80   24.02
   0  -8  -4  805.92   29.90
   0  -8  -3  989.89   19.82
   0  -8  -3 1034.24   24.74
   0  -8  -3  967.07   32.27
   0  -8  -2  305.04   10.25
   0  -8  -2  303.81   15.92
   0  -8  -1   34.69    2.88
   0  -8  -1   33.05    5.42
   0  -8   0  342.06   16.07
   0  -8   0  371.02   10.47
   0  -8   0  353.87    9.09
   0  -8   0  359.51   16.71
   0  -8   0  380.33   17.33
   0  -8   1   64.09    6.47
   0  -8   1   69.99    7.03
   0  -8   1   73.74    7.37
   0  -8   2   91.27    7.80
   0  -8   2   90.78    7.95
   0  -8   2   95.45    8.29
   0  -8   3   -2.89    2.47
   0  -8   3   -0.22    1.94
   0  -8   4  712.48   24.33
   0  -8   4  710.71   23.97
   0  -8   5  676.80   23.88
   0  -8   5  675.22   23.26
   0  -8   6    3.90    2.59
   0  -8   6   -0.31    2.30
   0  -8   7  660.35   23.61
   0  -8   8  388.14   17.66
   0  -8   9  728.81   26.11
   0  -8  10  570.57   23.26
   0  -8  11  574.52   24.14
   0  -8  12  296.10   17.12
   0  -8  13  508.33   23.86
   0  -8  14  283.95   18.06
   0  -8  15   70.19    9.43
   0  -8  16   38.73    7.33
   0  -7 -11    1.79    5.28
   0  -7 -10    5.44    3.87
   0  -7  -9   42.23    7.38
   0  -7  -8  947.68   35.12
   0  -7  -7  194.78   14.11
   0  -7  -6   51.79    7.37
   0  -7  -5   85.05    8.67
   0  -7  -4  177.78   12.02
   0  -7  -3  228.24    9.29
   0  -7  -3  202.01    5.58
   0  -7  -3  208.56   12.57
   0  -7  -3  215.78   12.72
   0  -7  -2  936.92   21.94
   0  -7  -2  874.86   28.42
   0  -7  -2  980.74   29.71
   0  -7  -1  287.98    9.14
   0  -7  -1  286.48   14.21
   0  -7  -1  327.51   15.12
   0  -7   0  204.97   11.15
   0  -7   0  197.27    6.87
   0  -7   0  189.26   11.05
   0  -7   0  197.74   11.40
   0  -7   1  845.96   25.50
   0  -7   1  820.84   25.43
   0  -7   1  874.52   26.70
   0  -7   2    2.33    1.79
   0  -7   2    5.53    2.54
   0  -7   2    4.14    2.01
   0  -7   3  161.66    9.76
   0  -7   3  149.70    9.38
   0  -7   4    3.82    2.31
   0  -7   4    1.71    2.06
   0  -7   5  455.16   18.11
   0  -7   5  476.84   17.82
   0  -7   6   11.69    3.22
   0  -7   6   13.18    3.06
   0  -7   7    2.38    1.96
   0  -7   7    1.60    1.83
   0  -7   8  526.32   20.25
   0  -7   9   90.81    8.19
   0  -7  10  566.54   22.46
   0  -7  11  259.41   15.10
   0  -7  12  155.70   12.01
   0  -7  13  198.98   14.17
   0  -7  14  207.18   15.09
   0  -7  15  168.65   14.30
   0  -7  16   37.76    7.19
   0  -6 -12  110.97   12.42
   0  -6 -11    1.99    3.54
   0  -6 -10    3.67    3.59
   0  -6  -9   17.22    5.35
   0  -6  -8   -1.30    2.85
   0  -6  -7  179.93   12.87
   0  -6  -6   13.84    3.82
   0  -6  -5  551.78   22.02
   0  -6  -5  582.69   22.33
   0  -6  -4 1759.27   45.28
   0  -6  -4 1835.49   45.62
   0  -6  -3 1533.72   40.37
   0  -6  -3 1643.20   41.00
   0  -6  -2  790.48   19.05
   0  -6  -2  745.19   24.17
   0  -6  -2  816.98   25.07
   0  -6  -1 1648.63   32.45
   0  -6  -1 1615.81   39.68
   0  -6  -1 1610.62   40.02
   0  -6   0  518.65   17.69
   0  -6   0  492.18   12.30
   0  -6   0  511.02   17.91
   0  -6   0  524.57   18.36
   0  -6   1  420.14   15.49
   0  -6   1  433.85   15.85
   0  -6   1  418.53   16.01
   0  -6   2 1260.73   31.79
   0  -6   2 1293.89   32.21
   0  -6   3   15.01    2.91
   0  -6   3    6.07    2.61
   0  -6   4  939.02   26.15
   0  -6   4  881.64   25.03
   0  -6   5  264.67   12.63
   0  -6   5  279.94   12.36
   0  -6   6   37.06    4.88
   0  -6   6   30.90    4.34
   0  -6   7  102.35    8.44
   0  -6   7  104.59    7.77
   0  -6   8   29.74    4.89
   0  -6   8   28.22    4.49
   0  -6   9  649.09   22.94
   0  -6  10   32.23    5.19
   0  -6  11   16.35    4.20
   0  -6  12  460.63   21.12
   0  -6  13  558.29   24.47
   0  -6  14  222.13   15.55
   0  -6  15  120.38   11.98
   0  -6  16  150.24   13.69
   0  -6  17   44.61    8.55
   0  -5 -12  318.81   20.62
   0  -5 -11  192.86   15.17
   0  -5 -10  182.12   14.25
   0  -5  -9   79.70    8.78
   0  -5  -8   -0.78    3.12
   0  -5  -7   56.55    6.85
   0  -5  -6   91.47    8.37
   0  -5  -6  109.29    8.80
   0  -5  -5  248.51   13.42
   0  -5  -5  276.95   13.79
   0  -5  -4  383.78   16.31
   0  -5  -4  407.75   16.49
   0  -5  -3 1096.68   30.51
   0  -5  -3 1192.37   31.19
   0  -5  -2  576.96   19.19
   0  -5  -2  592.10   19.29
   0  -5  -1 1619.04   32.15
   0  -5  -1 1676.73   38.52
   0  -5  -1 1690.95   38.62
   0  -5   0 7477.33  129.37
   0  -5   0 7502.13  136.54
   0  -5   0 7544.39  137.07
   0  -5   1 7821.62  141.51
   0  -5   1 7808.28  141.67
   0  -5   1 7876.94  142.41
   0  -5   2 2009.75   43.72
   0  -5   2 2098.01   44.13
   0  -5   3 4906.73   93.43
   0  -5   3 5008.67   93.15
   0  -5   4  559.16   18.04
   0  -5   4  580.41   17.62
   0  -5   5 1605.59   37.36
   0  -5   5 1493.75   35.63
   0  -5   6  958.45   27.33
   0  -5   6  959.00   26.07
   0  -5   7  550.92   19.98
   0  -5   7  521.42   18.30
   0  -5   8  178.85   11.23
   0  -5   8  178.15   10.38
   0  -5   9  291.34   14.15
   0  -5  10   32.88    4.97
   0  -5  11   75.12    7.75
   0  -5  12  260.94   15.38
   0  -5  13  395.50   19.99
   0  -5  14  252.59   16.41
   0  -5  15   58.88    8.40
   0  -5  16  136.59   13.18
   0  -5  17  311.98   20.75
   0  -4 -13  391.60   23.40
   0  -4 -12  164.51   14.31
   0  -4 -11  499.96   24.53
   0  -4 -10  568.82   25.22
   0  -4  -9  660.66   26.26
   0  -4  -8   23.52    4.81
   0  -4  -7   84.91    8.14
   0  -4  -7   99.66    8.41
   0  -4  -6  269.69   13.75
   0  -4  -6  286.70   14.04
   0  -4  -5    9.73    3.13
   0  -4  -5   10.84    3.03
   0  -4  -4   18.49    3.53
   0  -4  -4   26.31    3.95
   0  -4  -3    4.43    2.67
   0  -4  -3    1.24    1.78
   0  -4  -2  284.81   11.71
   0  -4  -2  293.75   11.76
   0  -4  -1  189.99    6.32
   0  -4  -1  206.20    9.27
   0  -4  -1  193.41    8.91
   0  -4   0  631.08   13.79
   0  -4   0  664.30   18.09
   0  -4   0  677.82   18.36
   0  -4   1 2444.57   49.31
   0  -4   1 2508.49   49.62
   0  -4   1 2494.99   50.01
   0  -4   2 2617.69   52.52
   0  -4   2 2721.38   52.67
   0  -4   3 2261.24   46.74
   0  -4   3 2299.39   46.19
   0  -4   4 1903.55   41.63
   0  -4   4 1957.40   40.74
   0  -4   5 1088.38   27.94
   0  -4   5 1086.35   26.73
   0  -4   6  380.59   15.04
   0  -4   6  393.69   14.13
   0  -4   7 2866.72   61.10
   0  -4   7 2743.69   58.44
   0  -4   8 1021.63   30.44
   0  -4   8 1026.10   28.56
   0  -4   9  466.95   18.13
   0  -4  10  439.54   18.38
   0  -4  11   16.33    3.99
   0  -4  12    0.58    2.18
   0  -4  13    4.00    4.13
   0  -4  14   90.60    9.94
   0  -4  15  108.68   11.29
   0  -4  16   21.22    5.85
   0  -4  17  133.57   13.58
   0  -4  17  176.96   15.32
   0  -3 -14   13.18    5.09
   0  -3 -13   53.46    8.34
   0  -3 -12  204.34   15.66
   0  -3 -11  343.78   19.52
   0  -3 -10  449.18   21.41
   0  -3  -9  712.03   26.72
   0  -3  -8  361.62   17.25
   0  -3  -8  381.58   17.32
   0  -3  -7   41.22    5.38
   0  -3  -7   30.71    4.71
   0  -3  -6  405.66   16.40
   0  -3  -6  401.81   16.35
   0  -3  -5 1241.27   32.40
   0  -3  -5 1293.01   32.52
   0  -3  -4  304.59   12.53
   0  -3  -4  313.37   12.50
   0  -3  -3  382.90   13.65
   0  -3  -3  401.63   13.56
   0  -3  -2  335.49   11.88
   0  -3  -2  346.69   11.73
   0  -3  -1  298.95   10.34
   0  -3  -1  282.69   10.02
   0  -3   0   93.32    3.34
   0  -3   0   89.98    5.12
   0  -3   0   91.04    5.12
   0  -3   1  193.34    7.37
   0  -3   1  211.69    7.80
   0  -3   1  207.60    7.86
   0  -3   2 1550.98   32.45
   0  -3   2 1599.10   32.19
   0  -3   3  472.63   13.83
   0  -3   3  467.85   13.24
   0  -3   4  974.34   24.17
   0  -3   4 1007.77   23.50
   0  -3   5  757.11   21.14
   0  -3   5  761.93   20.14
   0  -3   6  306.46   12.88
   0  -3   6  309.04   11.93
   0  -3   7  856.41   25.79
   0  -3   7  907.78   24.67
   0  -3   8 1841.14   44.75
   0  -3   8 1779.14   42.36
   0  -3   9  198.52   12.10
   0  -3   9  174.78   10.50
   0  -3  10  999.84   30.27
   0  -3  11  169.01   11.53
   0  -3  12  607.75   24.38
   0  -3  13  204.78   14.16
   0  -3  14  204.27   14.92
   0  -3  15    1.78    2.87
   0  -3  16   14.27    5.49
   0  -3  16   10.09    4.66
   0  -2 -14   39.88    7.96
   0  -2 -13   -1.44    2.81
   0  -2 -12    0.91    2.84
   0  -2 -11  316.26   18.27
   0  -2 -10   16.09    4.47
   0  -2  -9  393.83   18.49
   0  -2  -8 1100.57   33.05
   0  -2  -8 1128.66   29.27
   0  -2  -8 1192.55   33.54
   0  -2  -7  383.59   16.34
   0  -2  -7  371.12   15.90
   0  -2  -6    6.24    2.45
   0  -2  -6    4.58    1.94
   0  -2  -5 2022.70   44.48
   0  -2  -5 1998.15   44.12
   0  -2  -4   32.75    3.92
   0  -2  -4   27.12    3.53
   0  -2  -3  180.67    8.13
   0  -2  -3  179.92    7.83
   0  -2  -2 2948.89   57.05
   0  -2  -2 3079.06   56.91
   0  -2  -1    0.13    1.77
   0  -2  -1    1.22    1.20
   0  -2   0  159.63    5.74
   0  -2   0  152.00    5.68
   0  -2   1  865.84   18.36
   0  -2   1  875.75   18.29
   0  -2   2   43.12    3.01
   0  -2   2   43.71    3.03
   0  -2   3   27.28    2.86
   0  -2   3   30.66    2.91
   0  -2   4    4.01    1.59
   0  -2   4    6.79    2.13
   0  -2   5  456.61   14.83
   0  -2   5  436.73   13.78
   0  -2   6  237.22   10.95
   0  -2   6  224.39    9.92
   0  -2   7  532.17   18.86
   0  -2   7  532.38   17.50
   0  -2   8   73.44    6.93
   0  -2   8   76.73    6.52
   0  -2   9  427.91   18.45
   0  -2   9  393.71   16.56
   0  -2  10 1011.95   30.71
   0  -2  11   19.83    4.03
   0  -2  12  532.59   22.79
   0  -2  13  148.08   12.08
   0  -2  14    6.97    3.35
   0  -2  15  205.31   14.66
   0  -2  15  193.26   15.25
   0  -2  16   32.98    6.38
   0  -2  16   44.80    7.51
   0  -1 -14   83.72   10.73
   0  -1 -13    2.20    4.40
   0  -1 -12   51.53    6.15
   0  -1 -12   59.18    7.91
   0  -1 -11    0.93    2.66
   0  -1 -11    3.07    2.06
   0  -1 -10  230.62   14.39
   0  -1 -10  261.16   12.51
   0  -1  -9   28.47    4.82
   0  -1  -9   44.69    4.77
   0  -1  -9   46.03    5.81
   0  -1  -8   82.86    7.65
   0  -1  -8   84.07    6.20
   0  -1  -8   91.21    7.67
   0  -1  -7 1011.80   28.73
   0  -1  -7  979.35   25.09
   0  -1  -7 1003.51   28.20
   0  -1  -6  712.36   21.85
   0  -1  -6  724.80   19.18
   0  -1  -6  722.96   21.48
   0  -1  -5 2555.14   54.33
   0  -1  -5 2646.23   51.38
   0  -1  -5 2744.66   54.47
   0  -1  -4 2989.31   58.94
   0  -1  -4 2856.39   55.89
   0  -1  -4 3267.30   59.08
   0  -1  -3 5446.14   94.03
   0  -1  -3 5329.16   96.07
   0  -1  -3 5211.30   95.81
   0  -1  -2  172.77    6.39
   0  -1  -2  167.78    6.19
   0  -1  -1 2721.21   49.00
   0  -1  -1 2734.92   48.86
   0  -1   1  307.61    7.70
   0  -1   1  371.27    7.80
   0  -1   2  520.94   12.21
   0  -1   2  505.97   11.63
   0  -1   3  104.47    5.16
   0  -1   3  101.96    4.84
   0  -1   4  110.56    5.98
   0  -1   4   99.75    5.38
   0  -1   5  368.47   13.02
   0  -1   5  371.17   12.40
   0  -1   6  413.06   14.94
   0  -1   6  369.36   13.49
   0  -1   7   85.37    7.11
   0  -1   7   97.98    6.85
   0  -1   8    1.59    2.33
   0  -1   8   -0.01    1.96
   0  -1   9  232.59   12.43
   0  -1   9  242.74   12.90
   0  -1  10  723.70   25.17
   0  -1  10  750.77   25.60
   0  -1  11   43.64    6.07
   0  -1  12  789.00   29.09
   0  -1  13  853.58   31.75
   0  -1  14    8.85    4.07
   0  -1  14   -0.58    2.96
   0  -1  15  158.99   12.29
   0  -1  15  144.87   13.45
   0  -1  16   41.20    7.74
   0   0 -15  110.98   12.83
   0   0 -14  347.90   21.61
   0   0 -13  414.40   22.55
   0   0 -12  608.27   26.66
   0   0 -12  627.62   22.70
   0   0 -11  107.26   10.25
   0   0 -11   98.98    7.88
   0   0 -10   29.95    4.14
   0   0 -10   32.79    5.61
   0   0  -9   96.10    8.60
   0   0  -9   84.58    6.59
   0   0  -9   92.11    7.97
   0   0  -8   76.62    7.17
   0   0  -8   67.25    5.47
   0   0  -8   77.18    6.88
   0   0  -7  136.39    8.91
   0   0  -7  138.46    7.47
   0   0  -7  142.05    8.76
   0   0  -6 2036.37   41.96
   0   0  -6 2060.41   45.28
   0   0  -6 2003.51   44.54
   0   0  -5 1200.47   28.67
   0   0  -5 1197.52   26.13
   0   0  -5 1133.26   27.91
   0   0  -4  683.18   16.03
   0   0  -4  625.88   17.54
   0   0  -3 3834.98   69.52
   0   0  -3 3762.87   67.53
   0   0  -2 5106.97   88.78
   0   0  -2 5036.47   87.50
   0   0   2 4645.35   84.61
   0   0   2 4786.65   83.37
   0   0   2 5033.05   84.38
   0   0   3 3828.35   69.32
   0   0   3 3729.94   68.59
   0   0   3 3787.22   67.40
   0   0   4  710.78   18.60
   0   0   4  693.74   17.91
   0   0   4  684.84   17.74
   0   0   4  713.51   16.66
   0   0   5 1213.78   28.44
   0   0   5 1225.11   26.71
   0   0   5 1195.19   28.33
   0   0   6 2057.84   44.83
   0   0   6 2055.69   42.30
   0   0   6 2040.10   44.51
   0   0   7  143.94    8.73
   0   0   7  132.54    7.36
   0   0   7  124.30    8.07
   0   0   8   83.34    7.02
   0   0   8   77.57    5.95
   0   0   8   80.77    6.98
   0   0   9  101.32    8.24
   0   0   9   89.50    6.75
   0   0   9   82.24    7.51
   0   0  10   28.85    4.96
   0   0  11   98.53    9.21
   0   0  12  637.52   22.60
   0   0  12  595.03   25.27
   0   0  13  387.87   20.89
   0   0  13  445.09   18.90
   0   0  14  336.10   20.15
   0   0  14  345.35   16.96
   0   0  15  119.31   12.35
   0   0  16  265.29   19.42
   0   1 -15  136.72   13.91
   0   1 -14    2.48    3.01
   0   1 -13  838.93   33.27
   0   1 -12  752.30   29.97
   0   1 -12  782.65   26.04
   0   1 -11   49.56    6.89
   0   1 -11   43.82    5.28
   0   1 -10  781.51   27.55
   0   1 -10  750.73   23.68
   0   1  -9  233.67   13.30
   0   1  -9  215.63   10.89
   0   1  -9  246.27   13.26
   0   1  -8    2.13    1.54
   0   1  -8    0.98    2.54
   0   1  -7   85.23    5.83
   0   1  -7   79.41    6.76
   0   1  -6  383.38   14.46
   0   1  -6  375.02   12.57
   0   1  -6  376.31   13.43
   0   1  -5  380.63   13.22
   0   1  -5  366.95   11.66
   0   1  -5  362.98   12.27
   0   1  -4  103.25    6.05
   0   1  -4  108.46    5.26
   0   1  -4   99.53    5.31
   0   1  -3  106.34    5.27
   0   1  -3  103.96    4.69
   0   1  -3   95.04    4.60
   0   1  -2  533.42   12.25
   0   1  -2  502.82   11.62
   0   1  -1  379.72    8.60
   0   1   1 2747.51   49.08
   0   1   1 2716.38   48.89
   0   1   2  180.81    5.60
   0   1   2  172.70    6.38
   0   1   2  175.34    6.30
   0   1   3 5357.84   93.96
   0   1   3 5380.54   95.97
   0   1   3 5280.42   95.81
   0   1   4 3142.85   59.55
   0   1   4 3344.12   62.36
   0   1   5 2788.73   52.90
   0   1   5 2685.09   55.52
   0   1   5 2723.83   55.55
   0   1   6  706.16   18.93
   0   1   6  720.89   21.39
   0   1   6  715.75   21.28
   0   1   7 1025.64   28.29
   0   1   7  978.49   24.86
   0   1   7  948.22   27.40
   0   1   8  100.76    8.01
   0   1   8   93.50    6.50
   0   1   8   90.76    7.64
   0   1   9   39.35    4.56
   0   1   9   32.54    4.97
   0   1   9   39.15    5.51
   0   1  10  265.92   11.92
   0   1  10  254.40   12.43
   0   1  10  260.82   14.74
   0   1  11    2.33    2.01
   0   1  11    3.35    2.08
   0   1  11   -0.61    2.56
   0   1  12   49.14    5.30
   0   1  12   41.81    6.66
   0   1  13    2.43    1.95
   0   1  13    8.00    4.21
   0   1  14   82.81   10.25
   0   1  15  452.69   25.03
   0   2 -15  185.19   15.92
   0   2 -14   12.17    4.31
   0   2 -13  167.95   13.93
   0   2 -12  531.57   24.37
   0   2 -11   22.97    4.96
   0   2 -11   27.44    4.56
   0   2 -10 1016.60   29.33
   0   2 -10 1040.41   32.92
   0   2  -9  424.40   16.22
   0   2  -9  413.72   18.05
   0   2  -9  419.94   17.12
   0   2  -8   69.19    5.92
   0   2  -8   87.71    7.56
   0   2  -8   75.64    6.39
   0   2  -7  545.89   18.99
   0   2  -7  538.77   17.24
   0   2  -7  556.37   18.05
   0   2  -6  232.06   10.82
   0   2  -6  221.86    9.69
   0   2  -6  235.26   10.07
   0   2  -5  448.10   14.77
   0   2  -5  435.52   13.62
   0   2  -5  444.72   13.82
   0   2  -4    7.08    2.70
   0   2  -4    6.81    1.77
   0   2  -3   32.94    3.28
   0   2  -3   31.11    2.82
   0   2  -2   43.85    3.26
   0   2  -2   46.92    2.95
   0   2  -1  859.06   18.06
   0   2  -1  813.20   16.49
   0   2  -1  848.53   17.88
   0   2  -1  881.41   18.50
   0   2   0  157.88    5.75
   0   2   0  157.42    5.84
   0   2   1   -0.98    1.16
   0   2   1    2.40    1.55
   0   2   2 2987.28   57.43
   0   2   2 3083.44   57.20
   0   2   3  170.62    6.71
   0   2   3  162.64    7.66
   0   2   3  190.66    8.07
   0   2   4   27.95    2.95
   0   2   4   31.10    1.93
   0   2   4   31.85    3.71
   0   2   4   33.39    3.83
   0   2   5 1922.31   40.09
   0   2   5 1985.05   36.70
   0   2   5 1985.62   43.74
   0   2   5 1884.42   42.69
   0   2   6    5.23    1.82
   0   2   6    4.26    1.37
   0   2   6    6.67    2.69
   0   2   7  351.35   13.23
   0   2   7  399.74   11.70
   0   2   7  413.30   16.70
   0   2   7  375.22   15.87
   0   2   8 1097.37   28.78
   0   2   8 1163.42   26.30
   0   2   8 1180.46   33.48
   0   2   8 1090.61   32.33
   0   2   9  387.50   12.90
   0   2   9  354.75   14.53
   0   2   9  347.38   16.91
   0   2  10    9.59    2.37
   0   2  10    9.50    2.71
   0   2  10    6.62    2.64
   0   2  11  352.88   13.47
   0   2  11  331.95   15.40
   0   2  11  339.76   18.44
   0   2  12    2.54    1.98
   0   2  12    2.17    2.08
   0   2  12   -0.84    2.92
   0   2  13   -2.80    3.78
   0   2  14   19.45    5.83
   0   2  15   53.55    8.73
   0   3 -15   -0.33    3.86
   0   3 -14  221.04   16.63
   0   3 -13  211.35   15.62
   0   3 -12  581.12   25.59
   0   3 -11  170.10   12.55
   0   3 -11  166.79   10.86
   0   3 -10 1058.97   33.15
   0   3 -10 1030.31   30.11
   0   3 -10 1014.22   30.80
   0   3  -9  173.54   11.38
   0   3  -9  182.05   10.30
   0   3  -9  169.05   10.43
   0   3  -8 1712.75   43.57
   0   3  -8 1809.55   42.05
   0   3  -8 1826.02   42.36
   0   3  -7  897.50   26.08
   0   3  -7  891.05   24.65
   0   3  -7  883.91   24.67
   0   3  -6  319.32   13.06
   0   3  -6  306.05   11.99
   0   3  -5  706.34   20.50
   0   3  -5  747.74   19.66
   0   3  -4  890.52   23.09
   0   3  -4  973.71   22.52
   0   3  -3  484.87   14.06
   0   3  -3  468.94   13.33
   0   3  -2 1623.46   33.01
   0   3  -2 1552.77   32.43
   0   3  -2 1636.40   33.63
   0   3  -1  210.18    7.82
   0   3  -1  202.79    5.91
   0   3  -1  208.39    7.61
   0   3  -1  224.56    8.25
   0   3   0   93.36    5.10
   0   3   0   94.45    5.42
   0   3   1  273.02    9.93
   0   3   1  275.61    9.77
   0   3   2  340.13   11.89
   0   3   2  343.73   11.73
   0   3   3  375.44   13.44
   0   3   3  374.75   13.14
   0   3   4  304.62   10.86
   0   3   4  321.23   12.89
   0   3   4  302.41   12.26
   0   3   5 1217.65   28.57
   0   3   5 1242.95   32.11
   0   3   5 1195.13   31.02
   0   3   6  412.87   14.23
   0   3   6  420.05    9.91
   0   3   6  414.43   16.80
   0   3   6  396.49   16.11
   0   3   7   36.87    4.11
   0   3   7   33.84    2.55
   0   3   7   47.33    5.62
   0   3   7   38.00    5.29
   0   3   8  381.33   10.87
   0   3   8  346.07   14.15
   0   3   8  388.36   17.56
   0   3   9  694.65   17.47
   0   3   9  700.49   22.18
   0   3   9  647.81   25.09
   0   3  10  456.14   13.72
   0   3  10  459.01   17.82
   0   3  10  421.86   20.46
   0   3  11  392.95   12.90
   0   3  11  358.54   16.20
   0   3  11  354.04   19.49
   0   3  12  203.73   15.20
   0   3  12  200.91   12.24
   0   3  13   46.30    6.12
   0   3  13   46.50    7.78
   0   3  14   13.39    4.79
   0   4 -15  103.17   11.89
   0   4 -14   94.13   11.12
   0   4 -13   -0.51    3.02
   0   4 -12    2.48    3.36
   0   4 -11   18.15    4.73
   0   4 -10  473.49   20.65
   0   4 -10  448.59   18.51
   0   4 -10  442.44   18.49
   0   4  -9  442.25   19.18
   0   4  -9  453.78   18.08
   0   4  -9  495.01   18.53
   0   4  -8 1000.95   29.94
   0   4  -8 1035.65   29.04
   0   4  -8 1008.00   28.38
   0   4  -7 2444.37   56.56
   0   4  -7 2725.68   55.71
   0   4  -6  399.41   15.36
   0   4  -6  386.39   14.06
   0   4  -5 1120.50   28.12
   0   4  -5 1050.32   26.47
   0   4  -4 1987.78   42.14
   0   4  -4 1917.07   40.92
   0   4  -3 2377.84   47.33
   0   4  -3 2239.04   46.35
   0   4  -2 2734.07   53.77
   0   4  -2 2748.85   50.40
   0   4  -2 2658.91   53.17
   0   4  -2 2710.03   54.32
   0   4  -1 2433.19   45.38
   0   4  -1 2518.88   49.64
   0   4  -1 2624.24   50.64
   0   4   0  663.32   18.28
   0   4   0  644.53   18.26
   0   4   1  194.40    9.06
   0   4   1  202.05    9.10
   0   4   2  257.19   11.17
   0   4   2  273.58   11.15
   0   4   3    2.58    1.97
   0   4   3    6.25    2.78
   0   4   4   19.90    3.25
   0   4   4   21.07    3.69
   0   4   4   25.69    3.97
   0   4   5   15.51    2.88
   0   4   5   13.29    3.22
   0   4   5    8.60    2.73
   0   4   6  246.93   11.02
   0   4   6  275.70   13.80
   0   4   6  240.07   12.71
   0   4   7   98.93    7.11
   0   4   7   79.99    7.54
   0   4   8   23.92    3.77
   0   4   8   22.46    4.62
   0   4   9  666.64   22.18
   0   4   9  648.78   25.90
   0   4  10  554.22   20.55
   0   4  10  554.80   24.60
   0   4  11  480.64   19.50
   0   4  11  491.51   23.92
   0   4  12  140.22   10.27
   0   4  12  144.84   13.21
   0   4  13  395.05   23.18
   0   5 -15   99.29   11.74
   0   5 -14  251.82   18.19
   0   5 -13  420.34   22.74
   0   5 -12  253.93   16.54
   0   5 -11  103.29    9.83
   0   5 -10   27.72    5.22
   0   5 -10   29.61    4.68
   0   5  -9  289.44   15.41
   0   5  -9  309.65   14.90
   0   5  -9  301.23   14.33
   0   5  -8  161.09   10.76
   0   5  -8  167.46   10.01
   0   5  -7  526.94   19.50
   0   5  -7  521.86   18.21
   0   5  -6 1013.01   28.23
   0   5  -6  966.00   26.42
   0   5  -5 1572.44   37.26
   0   5  -5 1520.41   35.78
   0   5  -4  594.54   18.51
   0   5  -4  572.59   17.66
   0   5  -3 5168.07   94.31
   0   5  -3 4831.11   90.01
   0   5  -3 4936.57   93.11
   0   5  -3 5023.94   94.89
   0   5  -2 2106.59   44.09
   0   5  -2 2009.01   39.53
   0   5  -2 2032.07   43.69
   0   5  -2 2072.24   44.85
   0   5  -1 7543.73  132.55
   0   5  -1 7856.03  138.90
   0   5  -1 7752.58  139.70
   0   5   0 7605.42  139.05
   0   5   0 7676.25  139.36
   0   5   1 1753.53   39.63
   0   5   1 1649.45   38.92
   0   5   2  586.53   19.36
   0   5   2  572.96   18.86
   0   5   3 1156.29   30.93
   0   5   3 1092.33   29.85
   0   5   4  406.57   16.75
   0   5   4  372.18   15.74
   0   5   5  249.31   11.58
   0   5   5  259.33   13.60
   0   5   5  239.95   12.76
   0   5   6   94.81    7.10
   0   5   6   87.65    7.92
   0   5   7   62.44    5.95
   0   5   7   66.38    7.41
   0   5   8    2.03    1.88
   0   5   8    4.28    3.41
   0   5   9   82.30    7.40
   0   5   9   77.53    8.77
   0   5  10  183.47   11.42
   0   5  10  195.71   14.63
   0   5  11  187.47   11.96
   0   5  11  191.21   15.16
   0   5  12  296.71   19.83
   0   5  12  294.85   15.60
   0   5  13  278.09   19.83
   0   6 -15  139.85   14.27
   0   6 -14  207.63   16.55
   0   6 -13  571.84   27.21
   0   6 -12  472.03   23.34
   0   6 -11   11.69    3.97
   0   6 -10   28.37    5.45
   0   6  -9  668.71   25.10
   0   6  -9  659.37   23.12
   0   6  -8   21.04    4.33
   0   6  -8   22.02    3.91
   0   6  -7   98.45    8.15
   0   6  -7  103.66    7.67
   0   6  -6   37.00    5.09
   0   6  -6   32.04    4.30
   0   6  -5  262.84   12.71
   0   6  -5  309.26   12.97
   0   6  -4  956.94   26.72
   0   6  -4  934.00   23.59
   0   6  -4  954.69   26.02
   0   6  -4  947.00   27.39
   0   6  -3    3.20    2.48
   0   6  -3    5.24    1.65
   0   6  -3    0.60    1.54
   0   6  -3    0.30    2.44
   0   6  -2 1249.12   26.55
   0   6  -2 1244.17   31.43
   0   6  -2 1251.36   32.49
   0   6  -1  415.57   11.28
   0   6  -1  419.32   15.59
   0   6  -1  432.03   16.28
   0   6   0  528.27   18.34
   0   6   0  504.60   18.17
   0   6   1 1575.24   38.65
   0   6   1 1510.91   37.91
   0   6   2  802.29   24.87
   0   6   2  736.97   23.81
   0   6   3 1710.77   42.31
   0   6   3 1571.57   40.77
   0   6   4 1824.15   45.30
   0   6   4 1660.44   43.37
   0   6   5  510.57   18.57
   0   6   5  487.45   20.11
   0   6   6   16.85    3.78
   0   6   6   16.94    4.09
   0   6   7  158.08   10.06
   0   6   7  144.46   11.31
   0   6   8   -1.07    2.32
   0   6   8    3.90    3.04
   0   6   9   29.62    5.03
   0   6   9   22.41    5.38
   0   6  10    4.03    2.81
   0   6  11   -3.44    3.04
   0   6  11   -1.00    2.97
   0   6  12   85.60   10.69
   0   7 -14  188.96   16.01
   0   7 -13  215.50   16.39
   0   7 -12  145.49   12.76
   0   7 -11  272.83   17.04
   0   7 -10  605.28   25.22
   0   7  -9  105.19    9.42
   0   7  -9   80.53    7.68
   0   7  -8  515.56   21.31
   0   7  -8  511.86   19.79
   0   7  -7    3.41    2.65
   0   7  -7    1.19    2.01
   0   7  -6   11.87    3.48
   0   7  -6   17.58    3.48
   0   7  -6   11.81    3.38
   0   7  -5  487.80   18.69
   0   7  -5  460.16   15.88
   0   7  -5  473.51   17.83
   0   7  -5  483.98   19.34
   0   7  -4    2.77    2.20
   0   7  -4    5.28    1.62
   0   7  -4    5.89    1.96
   0   7  -4    4.51    2.52
   0   7  -3  148.40    9.44
   0   7  -3  142.57    6.92
   0   7  -3  167.29    9.79
   0   7  -3  150.75    9.93
   0   7  -2    9.01    1.74
   0   7  -2    7.82    2.31
   0   7  -2    3.55    2.03
   0   7  -1  850.36   25.75
   0   7  -1  831.62   26.11
   0   7   0  223.32   11.94
   0   7   0  183.26   11.13
   0   7   1  319.03   14.95
   0   7   1  313.66   14.77
   0   7   2  943.68   29.24
   0   7   2  887.37   28.31
   0   7   3  165.02   11.04
   0   7   4  186.97   12.09
   0   7   5   88.22    8.60
   0   7   6   60.38    6.69
   0   7   6   59.77    7.49
   0   7   7  214.73   12.67
   0   7   7  191.00   13.65
   0   7   8  891.26   29.07
   0   7   8  897.01   33.05
   0   7   9   34.42    5.42
   0   7   9   33.02    6.38
   0   7  10   -0.03    1.97
   0   7  10   -0.47    3.17
   0   7  11    0.34    3.39
   0   8 -14  329.45   21.56
   0   8 -13  473.57   25.48
   0   8 -12  327.93   19.91
   0   8 -11  601.59   26.85
   0   8 -10  616.02   26.21
   0   8  -9  743.99   28.11
   0   8  -8  396.76   19.12
   0   8  -7  721.48   26.11
   0   8  -7  710.22   23.36
   0   8  -7  704.43   24.43
   0   8  -7  693.58   26.33
   0   8  -6   -0.25    2.24
   0   8  -6    4.48    1.87
   0   8  -6    0.09    1.59
   0   8  -6    1.60    2.41
   0   8  -5  710.96   24.78
   0   8  -5  697.41   13.84
   0   8  -5  689.61   20.69
   0   8  -5  692.89   23.70
   0   8  -5  680.00   25.05
   0   8  -4  719.62   24.54
   0   8  -4  720.28   20.11
   0   8  -4  705.02   23.89
   0   8  -4  737.47   25.72
   0   8  -3    2.61    1.15
   0   8  -3    1.51    2.03
   0   8  -3    0.07    2.72
   0   8  -2  101.15    5.46
   0   8  -2  102.86    8.24
   0   8  -2   97.77    8.60
   0   8  -1   78.50    7.28
   0   8  -1   68.75    7.25
   0   8   0  395.34   17.37
   0   8   0  325.95   16.24
   0   8   1   30.72    5.04
   0   8   2  308.29   15.90
   0   8   3  956.66   31.48
   0   8   4  820.61   29.19
   0   8   5  197.37   13.67
   0   8   6  234.78   13.76
   0   8   6  240.66   15.61
   0   8   7  354.39   17.38
   0   8   7  323.08   18.87
   0   8   8  226.90   13.83
   0   8   8  221.91   15.97
   0   8   9  398.09   19.22
   0   8   9  420.51   23.18
   0   8  10  270.70   15.75
   0   8  10  267.07   19.21
   0   9 -14   49.40    8.73
   0   9 -13    3.37    2.99
   0   9 -12   55.13    8.71
   0   9 -11   14.13    4.88
   0   9 -10  540.26   24.87
   0   9  -9  771.10   30.07
   0   9  -9  844.81   31.90
   0   9  -8  779.97   26.66
   0   9  -8  815.81   30.04
   0   9  -8  831.38   30.94
   0   9  -7  392.22   16.49
   0   9  -7  405.84   19.54
   0   9  -7  380.40   19.55
   0   9  -6  430.31   16.64
   0   9  -6  452.59    9.82
   0   9  -6  449.77   20.28
   0   9  -6  447.41   20.92
   0   9  -5  251.06   11.34
   0   9  -5  241.61   14.29
   0   9  -5  267.34   15.49
   0   9  -4  613.72   18.36
   0   9  -4  614.13   24.30
   0   9  -3 1293.13   29.83
   0   9  -3 1325.60   38.93
   0   9  -2  293.59   10.15
   0   9  -2  271.82   15.34
   0   9  -1  391.98   18.74
   0   9   0    1.36    2.64
   0   9   1  102.34    9.53
   0   9   2   -0.69    2.97
   0   9   3   26.11    5.33
   0   9   4   21.35    5.08
   0   9   5  253.86   16.40
   0   9   6   79.09    8.37
   0   9   6   85.39    9.86
   0   9   7  301.69   16.81
   0   9   7  319.96   19.66
   0   9   8  271.37   16.02
   0   9   8  256.06   17.96
   0   9   9  213.10   14.36
   0   9   9  190.79   15.98
   0  10 -13   38.16    7.94
   0  10 -12    6.08    4.26
   0  10 -11   12.64    4.41
   0  10 -11   13.02    5.02
   0  10 -10   22.66    5.90
   0  10 -10   25.01    6.31
   0  10  -9   39.04    6.96
   0  10  -9   40.30    6.96
   0  10  -8   98.08    8.66
   0  10  -8  120.47   11.20
   0  10  -8  121.02   11.68
   0  10  -7  220.34   12.20
   0  10  -7  247.06   15.66
   0  10  -7  242.22   16.06
   0  10  -6  610.68   20.74
   0  10  -6  641.52   25.96
   0  10  -6  621.15   26.48
   0  10  -5  872.14   24.77
   0  10  -5  933.00   32.85
   0  10  -4  505.72   16.34
   0  10  -4  509.42   22.97
   0  10  -3 1278.89   29.68
   0  10  -3 1318.61   40.44
   0  10  -2  694.43   27.30
   0  10  -1  275.27   16.48
   0  10   0 1014.91   34.76
   0  10   1  395.73   20.32
   0  10   2   77.92    9.04
   0  10   3   36.17    6.54
   0  10   4  238.14   16.42
   0  10   5  118.96   11.83
   0  10   6    5.12    3.43
   0  10   6    0.30    3.37
   0  10   7   40.10    6.66
   0  10   7   32.35    6.76
   0  10   8   80.24    9.10
   0  10   8   95.32   11.43
   0  11 -12  220.71   17.62
   0  11 -12  229.98   18.35
   0  11 -11   -1.79    3.17
   0  11 -11    1.29    3.12
   0  11 -10    4.12    5.90
   0  11 -10   -0.28    3.32
   0  11  -9   49.82    8.20
   0  11  -9   33.54    6.74
   0  11  -8   38.52    6.96
   0  11  -8   35.47    6.80
   0  11  -7  219.03   12.22
   0  11  -7  229.76   15.89
   0  11  -7  239.76   16.83
   0  11  -6    1.76    1.60
   0  11  -6    6.82    4.09
   0  11  -5  506.20   17.30
   0  11  -5  466.71   23.72
   0  11  -4  370.01   13.49
   0  11  -4  394.31   21.08
   0  11  -3   86.46    9.89
   0  11  -2  716.97   29.38
   0  11  -1  446.97   22.66
   0  11   0  829.43   32.20
   0  11   1  922.25   34.58
   0  11   2  176.59   14.27
   0  11   3  169.28   14.24
   0  11   4  449.52   24.23
   0  11   5    3.89    3.74
   0  11   6   70.95    8.91
   0  11   6   74.08   10.30
   0  11   7    4.09    3.91
   0  11   7   21.51    5.93
   0  12 -11  374.91   23.35
   0  12 -10   41.31    8.02
   0  12 -10   30.75    7.13
   0  12  -9  156.43   14.16
   0  12  -9  134.81   13.50
   0  12  -8   10.01    4.32
   0  12  -8   17.96    5.71
   0  12  -7  127.04   12.94
   0  12  -6   49.06    8.09
   0  12  -5    1.17    3.13
   0  12  -4   31.79    6.86
   0  12  -3  144.11   13.13
   0  12  -2   37.57    7.54
   0  12  -1  491.25   25.17
   0  12   0  186.54   15.24
   0  12   1  302.60   19.61
   0  12   2  376.06   22.26
   0  12   3  127.55   13.07
   0  12   4   74.83   10.01
   0  12   5   85.67   10.93
   0  12   6   96.81   11.10
   0  12   7  118.13   12.23
   0  13 -10  476.76   26.76
   0  13  -9  141.74   13.98
   0  13  -9  160.14   15.64
   0  13  -8  124.15   13.32
   0  13  -7    4.68    3.96
   0  13  -6  195.40   16.53
   0  13  -5   30.57    7.13
   0  13  -4   88.70   11.00
   0  13  -3   44.78    7.80
   0  13  -2   28.84    6.68
   0  13  -1    5.74    4.00
   0  13   0  207.46   16.73
   0  13   1  132.47   13.60
   0  13   2  259.53   19.19
   0  13   3  549.10   28.93
   0  14  -5  111.28   13.31
   0  14  -4  206.23   17.48
   0  14  -3  181.71   16.25
   0  14  -2   21.32    6.59
   1 -15   3   33.20    8.01
   1 -15   4   79.06   10.62
   1 -15   5  302.44   20.39
   1 -15   5  281.66   18.85
   1 -15   6  207.06   16.88
   1 -15   7  449.59   25.19
   1 -15   8  407.60   23.93
   1 -14  -1  240.19   18.52
   1 -14   0  129.62   13.25
   1 -14   1  258.81   18.53
   1 -14   2   33.96    6.75
   1 -14   3  106.50   11.89
   1 -14   3  136.09   11.43
   1 -14   4    1.76    3.06
   1 -14   5   10.51    4.84
   1 -14   6    7.94    4.36
   1 -14   7    0.12    3.13
   1 -14   8   -2.29    3.61
   1 -14   9   44.72    7.58
   1 -14  10  132.94   13.11
   1 -13  -3   28.40    6.72
   1 -13  -2  332.14   21.36
   1 -13  -1  145.35   13.76
   1 -13   0  204.09   15.92
   1 -13   1  126.00   12.59
   1 -13   1  131.16    9.74
   1 -13   2  185.24   14.87
   1 -13   2  215.41   13.44
   1 -13   3  113.96   11.64
   1 -13   4  279.04   17.86
   1 -13   5    1.59    3.27
   1 -13   6   91.09   10.24
   1 -13   7    3.88    3.51
   1 -13   8   27.31    5.90
   1 -13   9    5.38    3.68
   1 -13  10   22.11    5.71
   1 -13  11   10.44    4.19
   1 -12  -5   -1.76    3.50
   1 -12  -4   94.60   11.47
   1 -12  -3   15.65    4.87
   1 -12  -2    4.27    3.02
   1 -12  -1  307.99   19.16
   1 -12   0  308.58   18.90
   1 -12   0  299.86   13.85
   1 -12   1   93.79   10.25
   1 -12   1  137.09    9.73
   1 -12   2  261.23   16.72
   1 -12   3  364.84   19.70
   1 -12   4  357.05   19.33
   1 -12   5  262.28   16.41
   1 -12   6  189.02   13.76
   1 -12   7   11.94    4.20
   1 -12   8   63.29    8.14
   1 -12   9   16.66    5.36
   1 -12  10   15.37    5.02
   1 -12  11   51.24    8.33
   1 -12  12   -0.75    2.92
   1 -11  -6   99.50   11.60
   1 -11  -5   16.10    5.76
   1 -11  -4  126.25   12.41
   1 -11  -3    8.34    4.57
   1 -11  -3   16.53    2.89
   1 -11  -2   14.08    4.70
   1 -11  -2    9.21    2.00
   1 -11  -2   14.46    2.72
   1 -11  -1    6.61    3.61
   1 -11  -1    5.56    2.10
   1 -11  -1    7.99    2.06
   1 -11   0  233.60   15.34
   1 -11   0  238.21   11.80
   1 -11   1   25.64    5.32
   1 -11   2  187.00   13.23
   1 -11   3 1044.63   34.48
   1 -11   4  474.78   21.47
   1 -11   5  533.29   22.92
   1 -11   6  154.16   11.76
   1 -11   7  466.69   21.40
   1 -11   8   69.68    8.05
   1 -11   9  273.55   16.33
   1 -11  10  148.22   12.08
   1 -11  11   54.85    7.74
   1 -11  12   45.61    7.22
   1 -11  13   13.65    4.63
   1 -10  -8  237.04   18.32
   1 -10  -7  248.93   18.23
   1 -10  -6  535.36   26.70
   1 -10  -6  575.03   21.27
   1 -10  -5  180.34   14.77
   1 -10  -5  208.28   11.38
   1 -10  -4  233.59   16.12
   1 -10  -4  233.52   11.47
   1 -10  -3  283.11   17.33
   1 -10  -3  308.14   12.67
   1 -10  -2    2.24    2.89
   1 -10  -2    1.91    1.21
   1 -10  -2    0.67    1.46
   1 -10  -2    1.32    1.28
   1 -10  -1   29.44    5.36
   1 -10  -1   25.47    3.36
   1 -10  -1   29.52    2.90
   1 -10  -1   31.57    3.64
   1 -10   0  133.31   10.83
   1 -10   0  140.37    7.49
   1 -10   0  129.15    8.24
   1 -10   1   -2.69    2.44
   1 -10   2  175.15   12.14
   1 -10   3  246.88   14.23
   1 -10   4  591.36   23.12
   1 -10   5  790.67   27.44
   1 -10   6   98.05    8.90
   1 -10   7 1193.68   36.13
   1 -10   8 1379.26   40.09
   1 -10   9  125.68   10.51
   1 -10  10  508.46   22.33
   1 -10  11  219.40   14.48
   1 -10  12  112.21   10.65
   1 -10  13  437.42   22.05
   1 -10  14   46.66    7.62
   1  -9 -10   49.00    8.37
   1  -9  -9   37.99    7.89
   1  -9  -8  374.14   22.29
   1  -9  -7  110.66   11.83
   1  -9  -6   67.42    9.01
   1  -9  -6   68.67    6.95
   1  -9  -5  658.93   28.04
   1  -9  -5  711.64   23.08
   1  -9  -4  208.75   14.44
   1  -9  -4  218.84   11.01
   1  -9  -3  425.83   20.41
   1  -9  -3  442.30   10.78
   1  -9  -3  420.78   15.32
   1  -9  -2  983.76   32.74
   1  -9  -2 1072.25   26.50
   1  -9  -2  994.22   23.62
   1  -9  -1  108.10    8.76
   1  -9  -1   95.07    8.81
   1  -9  -1   99.33    6.35
   1  -9  -1   96.67    5.51
   1  -9  -1   93.02    6.08
   1  -9   0  557.16   21.13
   1  -9   0  531.84   21.36
   1  -9   0  534.36   16.26
   1  -9   0  528.50   13.14
   1  -9   1  325.22   15.39
   1  -9   1  344.24   16.39
   1  -9   2   16.24    3.60
   1  -9   2   25.83    4.62
   1  -9   3    1.13    1.86
   1  -9   3    4.89    2.66
   1  -9   4    4.72    1.88
   1  -9   4    7.32    2.97
   1  -9   5   43.72    5.71
   1  -9   5   32.91    5.01
   1  -9   6   23.02    4.35
   1  -9   7   25.64    4.58
   1  -9   8  360.78   16.99
   1  -9   9  193.32   12.45
   1  -9  10  327.64   16.94
   1  -9  11  402.51   19.49
   1  -9  12  387.97   19.79
   1  -9  13   42.93    6.63
   1  -9  14  300.77   18.34
   1  -8 -11    8.99    4.45
   1  -8 -10   10.58    4.21
   1  -8  -9   21.44    5.24
   1  -8  -8   99.09   10.99
   1  -8  -7  133.02   12.16
   1  -8  -6   98.59   10.06
   1  -8  -5  941.09   32.60
   1  -8  -5  938.71   27.62
   1  -8  -4    9.04    3.61
   1  -8  -4    9.11    2.46
   1  -8  -3  481.84   20.69
   1  -8  -3  484.00   11.31
   1  -8  -3  494.53   16.58
   1  -8  -2  550.00   21.94
   1  -8  -2  603.22   15.52
   1  -8  -2  579.30   17.61
   1  -8  -1  311.99   14.44
   1  -8  -1  306.66   10.47
   1  -8  -1  274.68   10.89
   1  -8  -1  297.23   10.90
   1  -8  -1  293.18   14.81
   1  -8   0   28.63    4.24
   1  -8   0   28.27    2.44
   1  -8   0   20.06    2.70
   1  -8   0   32.48    4.77
   1  -8   0   31.53    5.09
   1  -8   1  922.68   27.32
   1  -8   1  954.46   23.74
   1  -8   1  882.62   27.63
   1  -8   1  955.07   29.93
   1  -8   2  416.37   16.53
   1  -8   2  422.53   17.02
   1  -8   2  422.64   18.30
   1  -8   3  301.05   13.77
   1  -8   3  290.85   13.74
   1  -8   4  138.58    9.32
   1  -8   4  140.75    9.23
   1  -8   5    1.23    1.71
   1  -8   5    3.55    2.04
   1  -8   6    1.08    1.88
   1  -8   6   -2.52    2.66
   1  -8   7  332.92   15.13
   1  -8   8   93.11    7.97
   1  -8   9   96.78    8.49
   1  -8  10  108.84    9.18
   1  -8  11   29.74    5.22
   1  -8  12  240.41   14.90
   1  -8  13  455.55   21.64
   1  -8  14  109.94   10.71
   1  -8  15  503.86   24.50
   1  -7 -12  130.62   13.48
   1  -7 -11  316.37   20.42
   1  -7 -10   70.02    9.39
   1  -7  -9   99.87   10.30
   1  -7  -8   26.23    9.00
   1  -7  -7   98.63    9.89
   1  -7  -6  175.14   12.60
   1  -7  -5  269.38   15.12
   1  -7  -4  272.09   14.67
   1  -7  -3  103.01    6.74
   1  -7  -3   78.22    7.45
   1  -7  -3   87.96    8.16
   1  -7  -2   98.18    6.24
   1  -7  -2   90.16    4.61
   1  -7  -2   97.07    8.08
   1  -7  -2   99.60    8.28
   1  -7  -1   75.63    4.81
   1  -7  -1   80.78    4.94
   1  -7  -1   79.15    5.28
   1  -7  -1   74.97    6.76
   1  -7  -1   81.35    7.39
   1  -7   0 1828.38   42.86
   1  -7   0 1879.81   39.05
   1  -7   0 1825.21   36.15
   1  -7   0 1857.07   44.04
   1  -7   0 1977.07   46.46
   1  -7   1  453.00   16.34
   1  -7   1  445.39   13.90
   1  -7   1  462.71   17.03
   1  -7   1  465.26   18.18
   1  -7   2 1276.98   32.38
   1  -7   2 1341.66   33.30
   1  -7   2 1258.55   34.64
   1  -7   3  571.76   19.03
   1  -7   3  590.03   19.26
   1  -7   4  432.04   16.53
   1  -7   4  445.25   16.24
   1  -7   5  363.42   15.36
   1  -7   5  382.89   14.88
   1  -7   6    7.17    2.55
   1  -7   6    7.34    2.69
   1  -7   7   42.74    5.53
   1  -7   7   44.46    5.14
   1  -7   8   30.67    4.70
   1  -7   9   44.79    5.52
   1  -7  10  202.33   12.26
   1  -7  11   17.28    4.05
   1  -7  12  328.31   17.15
   1  -7  13  476.00   22.01
   1  -7  14  200.92   14.38
   1  -7  15   16.38    5.21
   1  -6 -12  413.65   23.65
   1  -6 -11  115.42   11.80
   1  -6 -10  806.91   31.77
   1  -6  -9  488.64   22.76
   1  -6  -8  451.10   21.75
   1  -6  -7  852.34   30.25
   1  -6  -6  246.99   14.47
   1  -6  -5   40.08    5.50
   1  -6  -5   45.70    6.04
   1  -6  -4  176.03   11.12
   1  -6  -4  177.28   11.19
   1  -6  -3  183.42    8.91
   1  -6  -3  176.27   10.62
   1  -6  -3  174.96   10.82
   1  -6  -2    1.97    0.91
   1  -6  -2    1.09    1.43
   1  -6  -2   -0.25    2.14
   1  -6  -2   -0.05    1.85
   1  -6  -1   57.16    3.87
   1  -6  -1   55.50    4.32
   1  -6  -1   51.21    5.35
   1  -6  -1   54.14    5.68
   1  -6   0 2618.37   53.87
   1  -6   0 2601.12   50.81
   1  -6   0 2570.40   48.32
   1  -6   0 2582.76   54.79
   1  -6   0 2588.70   56.53
   1  -6   1   88.31    6.06
   1  -6   1   87.55    5.25
   1  -6   1   86.50    6.31
   1  -6   1   96.62    7.23
   1  -6   2  210.61    9.84
   1  -6   2  249.73   10.73
   1  -6   2  243.51   11.69
   1  -6   3 2049.90   45.03
   1  -6   3 2108.13   44.90
   1  -6   4  819.23   23.69
   1  -6   4  890.88   23.48
   1  -6   5  211.51   10.73
   1  -6   5  213.76   10.03
   1  -6   6 1553.99   38.20
   1  -6   6 1476.13   35.67
   1  -6   7  391.00   16.64
   1  -6   7  397.68   15.20
   1  -6   8  177.30   11.28
   1  -6   8  159.94    9.59
   1  -6   9   64.25    6.24
   1  -6  10  304.55   14.86
   1  -6  11    2.36    2.57
   1  -6  12    1.58    2.12
   1  -6  13   17.48    4.47
   1  -6  14  169.03   13.16
   1  -6  15   17.70    5.12
   1  -6  15   21.22    5.89
   1  -6  16  115.53   11.76
   1  -5 -13   76.54   10.42
   1  -5 -12  330.10   20.39
   1  -5 -11  302.84   18.58
   1  -5 -10  718.59   28.78
   1  -5  -9 1394.38   41.67
   1  -5  -8  162.42   11.69
   1  -5  -7  157.00   11.43
   1  -5  -6 1128.32   33.74
   1  -5  -6 1185.19   34.44
   1  -5  -5  309.02   14.75
   1  -5  -5  329.67   15.24
   1  -5  -4  284.18   13.51
   1  -5  -4  289.63   13.73
   1  -5  -3  334.83   14.06
   1  -5  -3  326.33   14.19
   1  -5  -2   89.29    3.79
   1  -5  -2  103.59    5.98
   1  -5  -2   96.73    6.94
   1  -5  -2   92.96    6.97
   1  -5  -1  166.86    6.29
   1  -5  -1  156.76    7.04
   1  -5  -1  153.46    8.30
   1  -5  -1  146.96    8.61
   1  -5   0    1.11    1.37
   1  -5   0    2.34    1.39
   1  -5   0    4.03    1.24
   1  -5   0    6.09    2.46
   1  -5   0   -1.05    1.76
   1  -5   1  742.98   19.83
   1  -5   1  789.07   19.08
   1  -5   1  778.87   20.58
   1  -5   1  790.18   22.09
   1  -5   2 1301.70   29.78
   1  -5   2 1318.78   29.84
   1  -5   3 1623.24   36.45
   1  -5   3 1706.84   36.02
   1  -5   4 1403.24   33.35
   1  -5   4 1472.95   32.37
   1  -5   5  129.16    7.87
   1  -5   5  130.30    7.16
   1  -5   6 1103.85   29.50
   1  -5   6 1049.46   26.82
   1  -5   7 2176.00   49.83
   1  -5   7 2076.61   46.21
   1  -5   8 1132.14   32.06
   1  -5   8 1001.86   28.12
   1  -5   9  233.64   11.96
   1  -5  10  318.41   14.99
   1  -5  11  309.25   15.47
   1  -5  12   77.74    7.81
   1  -5  13  165.58   12.29
   1  -5  14    9.58    3.99
   1  -5  15   92.91   10.01
   1  -5  15   67.67    9.50
   1  -5  16   -0.64    3.96
   1  -5  16    6.43    4.05
   1  -4 -14   -2.50    3.62
   1  -4 -13    1.52    3.56
   1  -4 -12   11.86    4.71
   1  -4 -11  133.04   12.02
   1  -4 -10  544.01   23.93
   1  -4  -9  198.62   13.19
   1  -4  -8  667.14   24.42
   1  -4  -7  111.73    8.78
   1  -4  -7  111.45    9.24
   1  -4  -6  817.43   26.59
   1  -4  -6  880.67   27.28
   1  -4  -5 1913.56   45.52
   1  -4  -5 1953.16   45.97
   1  -4  -4  334.23   13.89
   1  -4  -4  340.81   14.07
   1  -4  -3  181.39    9.42
   1  -4  -3  183.17    9.49
   1  -4  -2  299.21    7.40
   1  -4  -2  304.07   11.79
   1  -4  -2  294.09   11.84
   1  -4  -1  322.74    8.94
   1  -4  -1  330.26   10.39
   1  -4  -1  338.63   11.80
   1  -4  -1  335.11   12.34
   1  -4   0   70.31    4.49
   1  -4   0   68.33    3.57
   1  -4   0   74.37    4.39
   1  -4   0   75.22    5.03
   1  -4   0   63.62    5.05
   1  -4   1  987.77   22.29
   1  -4   1 1006.61   22.22
   1  -4   1  993.24   22.73
   1  -4   1  944.78   23.95
   1  -4   2  219.65    8.39
   1  -4   2  226.59    8.28
   1  -4   3  201.57    8.42
   1  -4   3  210.05    7.97
   1  -4   4  526.61   16.14
   1  -4   4  561.26   15.17
   1  -4   5   60.75    5.16
   1  -4   5   57.04    4.42
   1  -4   6 1498.02   37.15
   1  -4   6 1609.77   35.14
   1  -4   7  493.30   18.28
   1  -4   7  497.95   16.39
   1  -4   8  999.40   29.85
   1  -4   8  966.08   26.66
   1  -4   9  680.07   22.08
   1  -4  10   35.21    4.96
   1  -4  11 1223.53   35.26
   1  -4  12  527.70   21.87
   1  -4  13  163.22   12.16
   1  -4  14  239.43   15.86
   1  -4  14  230.35   16.36
   1  -4  15   53.98    8.04
   1  -4  15   63.64    9.04
   1  -4  16   16.44    5.36
   1  -4  16    9.13    3.74
   1  -3 -14   17.60    5.49
   1  -3 -13   -2.13    3.87
   1  -3 -12   -0.67    3.31
   1  -3 -11  164.38   13.00
   1  -3 -10  227.60   14.47
   1  -3  -9   13.02    3.82
   1  -3  -8   76.88    7.50
   1  -3  -7  375.77   15.93
   1  -3  -7  362.71   16.35
   1  -3  -6  743.75   22.83
   1  -3  -6  737.50   23.67
   1  -3  -5   98.36    7.31
   1  -3  -5   94.27    7.27
   1  -3  -4  480.63   16.37
   1  -3  -4  485.90   16.49
   1  -3  -3   71.79    5.47
   1  -3  -3   88.09    6.05
   1  -3  -2  472.23   14.13
   1  -3  -2  456.97   14.18
   1  -3  -1  367.18   10.65
   1  -3  -1  358.46    8.87
   1  -3  -1  360.08   11.15
   1  -3  -1  346.31   11.48
   1  -3   0  746.82   16.87
   1  -3   0  765.54   16.44
   1  -3   0  798.40   17.21
   1  -3   0  794.23   17.64
   1  -3   0  754.28   17.70
   1  -3   0  751.23   18.74
   1  -3   1  604.36   14.23
   1  -3   1  623.15   15.13
   1  -3   1  623.46   14.48
   1  -3   1  603.15   15.76
   1  -3   2  794.71   18.30
   1  -3   2  814.12   17.66
   1  -3   3  417.35   12.33
   1  -3   3  413.42   11.11
   1  -3   4  409.70   13.33
   1  -3   4  431.39   12.04
   1  -3   5    9.58    2.01
   1  -3   5    7.19    2.11
   1  -3   6  828.81   23.99
   1  -3   6  867.92   22.02
   1  -3   7  327.68   14.33
   1  -3   7  330.09   12.65
   1  -3   8   95.97    7.95
   1  -3   8   87.63    6.59
   1  -3   9  454.32   17.26
   1  -3  10   47.18    5.59
   1  -3  11  339.73   16.31
   1  -3  12  537.22   22.19
   1  -3  13  423.08   20.43
   1  -3  13  442.74   21.48
   1  -3  14  109.14   10.61
   1  -3  14  136.41   12.06
   1  -3  15  421.90   22.36
   1  -3  15  409.60   22.16
   1  -3  16  163.63   14.15
   1  -3  16  167.75   14.35
   1  -2 -14  244.48   18.07
   1  -2 -13   82.12   10.10
   1  -2 -12  314.01   18.57
   1  -2 -11  149.23   12.14
   1  -2 -10  246.82   14.75
   1  -2  -9   87.43    8.19
   1  -2  -8  124.02    9.20
   1  -2  -8  126.78    9.46
   1  -2  -7  351.55   14.99
   1  -2  -7  340.57   15.28
   1  -2  -6 1700.58   40.32
   1  -2  -6 1784.00   41.53
   1  -2  -5   18.07    3.20
   1  -2  -5   15.36    2.92
   1  -2  -4  280.16   10.55
   1  -2  -4  271.60   11.01
   1  -2  -3  152.17    7.40
   1  -2  -3  169.12    7.80
   1  -2  -2   33.29    3.33
   1  -2  -2   33.44    3.11
   1  -2  -1 1383.27   28.05
   1  -2  -1 1400.67   26.01
   1  -2  -1 1395.95   27.86
   1  -2  -1 1390.21   28.40
   1  -2   0 3827.81   67.88
   1  -2   0 3775.16   68.88
   1  -2   0 4056.51   69.28
   1  -2   0 4148.93   70.12
   1  -2   0 3908.53   68.91
   1  -2   0 3899.53   70.13
   1  -2   1  699.68   14.41
   1  -2   1  704.83   15.88
   1  -2   1  713.40   16.11
   1  -2   1  688.83   14.01
   1  -2   1  673.25   15.54
   1  -2   2  212.76    6.83
   1  -2   2  204.77    5.78
   1  -2   3  188.70    7.36
   1  -2   3  195.08    6.25
   1  -2   4 1453.72   31.83
   1  -2   4 1434.90   29.48
   1  -2   5  311.75   11.88
   1  -2   5  288.08   10.07
   1  -2   6  260.12   11.75
   1  -2   6  255.96   10.17
   1  -2   7  124.95    8.64
   1  -2   7  136.45    7.77
   1  -2   8    6.59    2.19
   1  -2   8   10.11    2.49
   1  -2   9  133.22    8.94
   1  -2   9  150.65    9.43
   1  -2  10  100.22    8.25
   1  -2  10  110.20    8.62
   1  -2  11  779.38   27.16
   1  -2  11  795.07   27.08
   1  -2  12  269.61   15.33
   1  -2  12  266.42   15.30
   1  -2  13  313.56   17.20
   1  -2  13  261.26   16.01
   1  -2  14  229.40   15.20
   1  -2  14  207.39   14.94
   1  -2  15   57.57    8.11
   1  -2  15   70.99    9.28
   1  -2  16  557.40   27.40
   1  -1 -15  242.21   18.46
   1  -1 -14  204.81   16.32
   1  -1 -13 1427.53   45.98
   1  -1 -12  706.00   22.78
   1  -1 -12  755.84   29.81
   1  -1 -11  175.61    9.70
   1  -1 -11  165.76   12.58
   1  -1 -10  787.29   22.29
   1  -1 -10  756.06   27.39
   1  -1  -9 1114.13   33.43
   1  -1  -9 1155.09   28.02
   1  -1  -8  131.45    9.22
   1  -1  -8  129.98    6.82
   1  -1  -8  150.16    9.92
   1  -1  -7 2320.07   51.51
   1  -1  -7 2267.53   45.57
   1  -1  -7 2365.86   52.33
   1  -1  -6    1.89    2.35
   1  -1  -6   -0.49    1.05
   1  -1  -6    2.80    2.10
   1  -1  -5    0.71    2.14
   1  -1  -5    3.20    1.23
   1  -1  -5    7.19    2.30
   1  -1  -4   15.31    2.87
   1  -1  -4   15.27    1.55
   1  -1  -4   10.92    2.47
   1  -1  -3  123.19    5.60
   1  -1  -3  124.18    5.95
   1  -1  -2  270.51    7.64
   1  -1  -2  286.24    8.56
   1  -1  -1 4453.42   77.97
   1  -1   0 1481.90   27.82
   1  -1   0 1490.02   28.22
   1  -1   0 1453.78   27.82
   1  -1   0 1497.90   27.15
   1  -1   1  990.40   20.23
   1  -1   1  961.54   20.03
   1  -1   1  985.62   18.62
   1  -1   1  954.22   19.93
   1  -1   2    8.40    1.77
   1  -1   2    6.83    1.48
   1  -1   2    9.30    2.21
   1  -1   2    6.63    1.02
   1  -1   3 2507.62   48.09
   1  -1   3 2493.38   48.03
   1  -1   3 2506.14   48.20
   1  -1   3 2474.52   45.75
   1  -1   4 1406.10   30.88
   1  -1   4 1372.86   28.56
   1  -1   4 1340.15   30.16
   1  -1   5 2780.52   55.14
   1  -1   5 2906.93   55.32
   1  -1   5 2840.64   56.71
   1  -1   6   19.33    3.26
   1  -1   6   20.53    2.81
   1  -1   6   20.17    3.01
   1  -1   7  781.09   22.53
   1  -1   7  786.73   23.07
   1  -1   7  806.07   22.60
   1  -1   8    2.33    2.36
   1  -1   8    4.22    2.04
   1  -1   8    1.13    2.00
   1  -1   9  146.76    9.44
   1  -1   9  161.74   10.06
   1  -1   9  144.99    9.47
   1  -1  10  174.16   10.75
   1  -1  10  149.62   10.36
   1  -1  10  175.17   11.14
   1  -1  11   -1.21    2.11
   1  -1  11    2.76    2.86
   1  -1  12  100.96    8.88
   1  -1  12  103.75    9.53
   1  -1  13   25.15    4.75
   1  -1  13   36.37    6.13
   1  -1  14  230.61   14.63
   1  -1  14  249.62   16.69
   1  -1  15  147.05   11.85
   1  -1  15  143.88   13.37
   1  -1  16   79.81   10.32
   1   0 -15   81.11   10.84
   1   0 -14  130.96   12.94
   1   0 -13  252.59   17.18
   1   0 -12 1053.33   36.29
   1   0 -12 1051.55   29.49
   1   0 -11  419.05   15.70
   1   0 -11  388.64   19.49
   1   0 -10  917.37   30.41
   1   0 -10  936.56   25.21
   1   0  -9 1514.08   40.19
   1   0  -9 1410.86   33.82
   1   0  -9 1623.10   41.14
   1   0  -8  161.37   10.21
   1   0  -8  165.74    7.81
   1   0  -8  185.17   10.89
   1   0  -7   35.65    3.29
   1   0  -7   39.78    4.75
   1   0  -7   31.91    4.26
   1   0  -6 2159.67   46.58
   1   0  -6 2145.36   41.76
   1   0  -6 2127.92   46.58
   1   0  -6 2128.67   46.83
   1   0  -5   86.87    5.87
   1   0  -5   88.55    4.17
   1   0  -5   89.56    5.93
   1   0  -4    5.22    1.22
   1   0  -4    6.51    2.50
   1   0  -4    4.30    1.68
   1   0  -3 1992.53   38.07
   1   0  -3 1938.68   34.78
   1   0  -3 1936.52   38.51
   1   0  -2    2.99    1.32
   1   0  -2    4.10    1.51
   1   0  -1  511.75   10.53
   1   0  -1  513.04   11.08
   1   0  -1  527.94   11.74
   1   0   0  293.80    7.10
   1   0   0  288.54    7.10
   1   0   1 2260.08   41.20
   1   0   1 2194.77   39.34
   1   0   1 2271.08   40.76
   1   0   2 4199.74   75.06
   1   0   2 4174.08   73.33
   1   0   2 4150.92   74.12
   1   0   3 2008.09   39.74
   1   0   3 2045.46   38.73
   1   0   3 1937.16   38.38
   1   0   4 2441.09   48.04
   1   0   4 2420.02   46.84
   1   0   4 2376.89   47.12
   1   0   4 2415.21   47.08
   1   0   5 2222.91   44.26
   1   0   5 2121.56   44.76
   1   0   5 2139.21   44.59
   1   0   5 2241.60   45.57
   1   0   6  532.98   16.10
   1   0   6  547.02   17.03
   1   0   6  539.64   17.07
   1   0   6  524.55   16.78
   1   0   7  393.93   13.94
   1   0   7  388.08   14.92
   1   0   7  391.29   14.79
   1   0   7  398.37   15.00
   1   0   8 1428.23   34.73
   1   0   8 1481.44   37.05
   1   0   8 1462.42   36.22
   1   0   8 1413.35   36.38
   1   0   9  130.02    8.44
   1   0   9  133.95    9.52
   1   0   9  129.32    9.29
   1   0   9  141.21    9.32
   1   0  10   78.52    6.87
   1   0  10   76.15    7.25
   1   0  10   72.89    7.28
   1   0  11  437.98   17.92
   1   0  11  450.66   19.23
   1   0  11  438.00   20.01
   1   0  12   15.29    3.76
   1   0  12   17.22    4.59
   1   0  13    8.63    3.15
   1   0  13    3.30    3.03
   1   0  14    0.98    2.56
   1   0  14   -2.09    3.22
   1   0  15   44.09    7.75
   1   0  16   98.20   11.64
   1   1 -15    3.70    3.17
   1   1 -14  135.68   13.10
   1   1 -13   61.58    8.61
   1   1 -12    0.55    1.82
   1   1 -12    0.69    3.01
   1   1 -11  602.82   24.68
   1   1 -11  595.74   19.89
   1   1 -10  520.06   21.52
   1   1 -10  532.62   17.73
   1   1  -9  115.75    7.08
   1   1  -9  129.95    9.64
   1   1  -9  109.98    8.65
   1   1  -8 1697.66   41.86
   1   1  -8 1631.96   36.55
   1   1  -8 1716.72   41.50
   1   1  -7  578.94   19.47
   1   1  -7  593.26   19.45
   1   1  -7  569.17   16.13
   1   1  -6  923.07   24.59
   1   1  -6  900.41   21.16
   1   1  -6  870.26   24.11
   1   1  -5 1659.14   36.58
   1   1  -5 1646.99   33.25
   1   1  -5 1690.73   36.58
   1   1  -4   43.87    4.14
   1   1  -4   40.78    3.73
   1   1  -3 3052.02   56.13
   1   1  -3 2943.06   56.04
   1   1  -2  276.08    8.20
   1   1  -2  279.09    8.25
   1   1  -1  278.18    7.54
   1   1  -1  266.87    6.91
   1   1  -1  256.45    7.45
   1   1   0   93.04    3.82
   1   1   0   92.22    3.16
   1   1   1  194.27    6.74
   1   1   1  186.21    6.19
   1   1   1  182.56    5.45
   1   1   2  772.50   18.23
   1   1   2  797.65   17.89
   1   1   2  762.99   17.00
   1   1   3 2824.22   54.06
   1   1   3 2843.37   51.52
   1   1   3 2778.17   53.60
   1   1   3 2769.29   52.90
   1   1   4 2840.22   55.82
   1   1   4 2854.60   55.97
   1   1   4 2854.21   53.29
   1   1   5 1967.55   43.93
   1   1   5 2136.38   44.91
   1   1   5 2175.51   41.93
   1   1   6 2094.93   45.48
   1   1   6 2138.33   42.86
   1   1   6 2050.73   46.30
   1   1   7  736.86   21.94
   1   1   7  689.13   19.34
   1   1   7  743.94   22.82
   1   1   7  724.64   22.48
   1   1   8 1465.93   33.63
   1   1   8 1454.12   37.75
   1   1   8 1445.56   36.30
   1   1   8 1368.17   36.82
   1   1   9  723.36   21.57
   1   1   9  748.73   25.48
   1   1   9  696.73   24.54
   1   1   9  747.77   23.98
   1   1  10   44.52    4.94
   1   1  10   53.48    6.10
   1   1  10   65.10    7.15
   1   1  11  954.25   27.51
   1   1  11  929.71   29.99
   1   1  11  916.58   31.73
   1   1  12  450.14   17.83
   1   1  12  477.50   20.64
   1   1  12  391.36   20.43
   1   1  13   14.04    3.69
   1   1  13   20.62    5.22
   1   1  14  119.15   12.07
   1   1  15    1.03    2.94
   1   2 -15   24.22    6.44
   1   2 -14   42.43    7.59
   1   2 -13    3.07    3.36
   1   2 -12   47.86    5.57
   1   2 -12   50.28    7.33
   1   2 -11   22.81    3.72
   1   2 -11   25.85    5.31
   1   2 -10  161.98    9.29
   1   2 -10  169.67   11.67
   1   2  -9  148.35   10.35
   1   2  -9  146.51    8.35
   1   2  -9  161.26   10.31
   1   2  -8  234.28   12.36
   1   2  -8  230.67   10.16
   1   2  -8  235.51   11.97
   1   2  -7 1518.05   36.81
   1   2  -7 1460.85   33.20
   1   2  -7 1451.84   36.06
   1   2  -6   32.81    4.30
   1   2  -6   36.88    4.27
   1   2  -5  223.71    9.96
   1   2  -5  221.12    9.54
   1   2  -4  763.78   19.95
   1   2  -4  764.02   19.53
   1   2  -3  391.41   12.01
   1   2  -3  380.68   11.54
   1   2  -2  565.77   14.40
   1   2  -2  531.23   13.97
   1   2  -1 8093.11  141.25
   1   2  -1 8089.45  137.94
   1   2  -1 8104.66  141.14
   1   2  -1 8129.08  140.23
   1   2   0 1516.56   31.06
   1   2   0 1549.26   30.03
   1   2   1  728.23   17.51
   1   2   1  707.61   16.44
   1   2   2  459.50   13.68
   1   2   2  462.98   13.75
   1   2   2  486.71   13.01
   1   2   3   16.53    3.11
   1   2   3   16.43    2.77
   1   2   3   16.55    2.65
   1   2   4  297.57   11.44
   1   2   4  326.83   12.36
   1   2   4  334.45   11.83
   1   2   5   47.61    4.64
   1   2   5   57.85    3.68
   1   2   5   51.46    5.08
   1   2   5   58.19    5.01
   1   2   6   34.24    4.23
   1   2   6   26.59    3.85
   1   2   6   26.39    2.72
   1   2   7  510.72   17.97
   1   2   7  535.38   15.17
   1   2   7  514.20   19.33
   1   2   8    1.17    2.10
   1   2   8    4.32    1.58
   1   2   8    5.14    2.59
   1   2   8    0.75    2.25
   1   2   9  494.05   15.82
   1   2   9  454.16   18.35
   1   2   9  480.56   20.15
   1   2  10 1086.43   27.85
   1   2  10 1037.42   31.60
   1   2  10 1062.78   34.12
   1   2  11  147.13    8.67
   1   2  11  151.70   10.80
   1   2  11  144.35   11.80
   1   2  12  267.82   12.49
   1   2  12  261.92   16.85
   1   2  12  263.84   15.13
   1   2  13  166.01   12.45
   1   2  13  215.87   15.90
   1   2  14   75.72    9.90
   1   2  15  146.73   14.13
   1   3 -15  137.91   13.74
   1   3 -14  352.15   21.17
   1   3 -13  185.19   14.57
   1   3 -12    5.75    3.97
   1   3 -12   -0.04    1.80
   1   3 -11  173.74   12.62
   1   3 -11  143.62    9.55
   1   3 -10    0.73    1.51
   1   3 -10   21.40    8.15
   1   3  -9  126.56    9.47
   1   3  -9  120.06    8.98
   1   3  -9  123.45    8.08
   1   3  -8   17.40    3.13
   1   3  -8   16.12    3.65
   1   3  -8   18.64    3.49
   1   3  -7  364.94   15.29
   1   3  -7  385.66   15.00
   1   3  -6  485.55   17.16
   1   3  -6  520.41   17.00
   1   3  -5  121.60    7.50
   1   3  -5  117.59    7.04
   1   3  -4   10.55    2.53
   1   3  -4   11.63    2.37
   1   3  -3 2103.12   42.78
   1   3  -3 2023.02   42.31
   1   3  -2  336.05   11.33
   1   3  -2  320.97    7.75
   1   3  -2  305.12   10.69
   1   3  -1 2249.46   44.82
   1   3  -1 2258.15   44.31
   1   3   0  136.07    6.69
   1   3   0  132.33    6.33
   1   3   1  571.81   16.29
   1   3   1  558.35   15.26
   1   3   2  403.93   13.78
   1   3   2  415.83   13.09
   1   3   3  539.41   16.25
   1   3   3  497.59   16.52
   1   3   3  502.73   15.66
   1   3   4  431.72   15.29
   1   3   4  503.70   17.02
   1   3   4  495.61   16.04
   1   3   5  415.07   15.16
   1   3   5  426.98   16.37
   1   3   5  427.82   15.63
   1   3   6   33.03    4.30
   1   3   6   32.26    4.57
   1   3   6   32.07    4.41
   1   3   7   77.09    6.58
   1   3   7   91.36    8.03
   1   3   8   74.23    6.84
   1   3   9   -0.20    1.98
   1   3   9    1.71    2.31
   1   3  10  442.22   19.03
   1   3  10  451.78   21.18
   1   3  11  296.51   15.70
   1   3  11  291.91   17.53
   1   3  12    9.90    3.10
   1   3  12   14.55    4.97
   1   3  13  345.92   21.05
   1   3  13  352.67   18.67
   1   3  14  276.77   19.32
   1   4 -15  142.72   13.94
   1   4 -14  565.28   27.52
   1   4 -13  846.57   33.26
   1   4 -12  239.77   15.85
   1   4 -11  293.41   16.79
   1   4 -11  295.18   14.47
   1   4 -10  201.50   13.03
   1   4 -10  199.19   11.31
   1   4  -9  384.65   17.71
   1   4  -9  383.36   15.82
   1   4  -9  415.75   17.45
   1   4  -8   45.20    5.87
   1   4  -8   50.09    5.50
   1   4  -7    4.50    2.59
   1   4  -7    4.86    2.35
   1   4  -6  597.86   19.97
   1   4  -6  618.69   19.57
   1   4  -5  242.02   11.23
   1   4  -5  234.68   10.64
   1   4  -4  437.46   15.05
   1   4  -4  401.60   14.19
   1   4  -3  220.16    9.98
   1   4  -3  221.07    9.65
   1   4  -2 1406.05   32.24
   1   4  -2 1357.42   31.63
   1   4  -2 1383.37   31.44
   1   4  -1 1006.37   25.52
   1   4  -1 1084.62   25.48
   1   4   0 1934.03   41.27
   1   4   0 1858.98   40.04
   1   4   1  933.42   24.52
   1   4   1  911.15   23.32
   1   4   2  963.25   26.04
   1   4   2  968.21   24.84
   1   4   3  918.40   26.02
   1   4   3  928.21   24.82
   1   4   4 2801.55   57.36
   1   4   4 2723.45   59.08
   1   4   4 2620.05   57.05
   1   4   5   76.66    6.30
   1   4   5   70.25    6.75
   1   4   5   82.84    6.91
   1   4   6    0.32    1.90
   1   4   6    3.61    2.10
   1   4   6    2.22    2.21
   1   4   7  153.95    9.81
   1   4   7  152.06   10.38
   1   4   8   -1.86    2.24
   1   4   9    9.26    2.90
   1   4  10   50.35    6.36
   1   4  10   46.45    6.81
   1   4  11   50.87    6.78
   1   4  11   43.86    7.30
   1   4  12  243.74   15.06
   1   4  12  248.48   17.54
   1   4  13   61.81    7.79
   1   4  13   59.62    8.98
   1   5 -15  316.20   21.13
   1   5 -14  325.53   20.69
   1   5 -13  571.28   26.86
   1   5 -12  233.52   15.93
   1   5 -11  944.09   33.17
   1   5 -10  167.20   11.94
   1   5 -10  140.76    9.91
   1   5  -9 1882.41   48.77
   1   5  -9 1941.44   47.65
   1   5  -8  330.23   15.99
   1   5  -8  347.89   15.41
   1   5  -7   18.10    4.08
   1   5  -7   21.44    3.69
   1   5  -6  268.42   13.00
   1   5  -6  258.72   12.26
   1   5  -5  348.33   14.39
   1   5  -5  338.19   13.80
   1   5  -4   43.33    4.84
   1   5  -4   42.88    4.71
   1   5  -3   77.79    6.38
   1   5  -3   83.36    2.97
   1   5  -3   84.93    6.25
   1   5  -3   85.52    6.57
   1   5  -2   40.69    2.39
   1   5  -2   39.12    4.30
   1   5  -2   51.06    5.13
   1   5  -1  842.72   23.51
   1   5  -1  827.25   23.04
   1   5   0  550.30   18.20
   1   5   0  542.21   17.49
   1   5   1 1925.25   43.90
   1   5   1 1862.87   42.31
   1   5   2 1539.25   37.40
   1   5   2 1422.42   35.31
   1   5   3 1897.65   44.93
   1   5   3 1809.06   42.90
   1   5   4 1974.18   45.42
   1   5   4 1963.06   47.50
   1   5   4 1905.31   45.57
   1   5   5  458.09   17.66
   1   5   5  476.59   19.40
   1   5   5  449.49   18.04
   1   5   6  265.36   13.19
   1   5   6  254.38   13.61
   1   5   7  272.30   13.80
   1   5   7  245.76   14.09
   1   5   8  551.14   21.41
   1   5   8  537.43   22.60
   1   5   9   -0.60    2.14
   1   5  10   48.91    6.64
   1   5  11   35.80    6.04
   1   5  11   40.35    7.18
   1   5  12    2.81    3.01
   1   5  12    8.84    5.28
   1   6 -15   13.12    5.23
   1   6 -14  162.71   14.71
   1   6 -13  154.27   13.72
   1   6 -12    1.92    2.87
   1   6 -11  784.26   30.15
   1   6 -10  414.51   20.18
   1   6  -9  568.38   23.08
   1   6  -8 1244.37   36.49
   1   6  -8 1280.02   35.46
   1   6  -7   14.73    3.60
   1   6  -7   14.26    3.51
   1   6  -6  419.34   17.39
   1   6  -6  421.29   16.85
   1   6  -5  606.84   21.27
   1   6  -5  617.09   20.69
   1   6  -4  139.94    9.32
   1   6  -4  123.96    4.25
   1   6  -4  136.55    8.71
   1   6  -4  133.63    8.99
   1   6  -3  179.27   10.17
   1   6  -3  152.84    6.10
   1   6  -3  156.32    9.38
   1   6  -3  166.82    9.74
   1   6  -2   12.14    1.37
   1   6  -2   16.50    3.36
   1   6  -2   12.91    3.25
   1   6  -1   23.56    3.75
   1   6  -1   21.62    3.77
   1   6   0   15.00    3.19
   1   6   0   12.08    3.05
   1   6   1   77.52    6.90
   1   6   1   64.74    6.14
   1   6   2 1026.81   30.27
   1   6   2 1022.80   29.06
   1   6   3 1553.83   40.06
   1   6   3 1407.24   37.65
   1   6   4 1148.24   34.04
   1   6   4 1103.33   32.16
   1   6   5  515.69   19.88
   1   6   5  502.65   20.32
   1   6   6  635.33   23.22
   1   6   6  655.23   24.45
   1   6   7  748.81   25.88
   1   6   7  697.48   26.59
   1   6   8  804.99   28.01
   1   6   8  842.98   30.42
   1   6   9   88.65    8.62
   1   6   9   81.40    9.02
   1   6  10  153.08   11.84
   1   6  11   62.32    7.89
   1   6  11   53.53    8.63
   1   6  12  134.50   11.63
   1   6  12  157.65   14.87
   1   7 -14   59.00    9.18
   1   7 -13   28.24    6.47
   1   7 -12   96.04   10.71
   1   7 -11   13.30    4.35
   1   7 -10  807.06   30.21
   1   7  -9  388.79   19.24
   1   7  -8  271.04   15.04
   1   7  -7  104.30    9.01
   1   7  -7  110.76    8.72
   1   7  -6  497.64   20.18
   1   7  -6  491.23   19.27
   1   7  -6  512.28   20.48
   1   7  -5  484.08   19.39
   1   7  -5  489.70   11.44
   1   7  -5  460.51   18.47
   1   7  -5  447.70   18.87
   1   7  -4 1049.75   31.44
   1   7  -4 1092.85   25.27
   1   7  -4 1127.57   31.62
   1   7  -4 1136.96   32.21
   1   7  -3  350.67   10.22
   1   7  -3  352.37   15.51
   1   7  -3  360.70   15.79
   1   7  -2 1230.89   24.09
   1   7  -2 1313.20   34.67
   1   7  -2 1236.36   34.10
   1   7  -1   23.86    4.03
   1   7  -1   26.27    4.63
   1   7   0   64.64    6.61
   1   7   0   52.92    5.98
   1   7   1    6.03    2.15
   1   7   1    5.61    2.77
   1   7   2    5.97    2.47
   1   7   2    9.66    2.85
   1   7   3   12.83    3.32
   1   7   4   55.32    6.55
   1   7   5   33.37    5.46
   1   7   5   71.68    8.03
   1   7   6   71.96    7.55
   1   7   6   68.70    7.90
   1   7   7  349.54   17.51
   1   7   7  338.56   18.37
   1   7   8  176.69   12.54
   1   7   8  201.69   14.34
   1   7   9  222.06   14.48
   1   7   9  245.84   16.73
   1   7  10  305.30   17.47
   1   7  11   66.54    8.38
   1   8 -14   28.06    7.20
   1   8 -13    2.20    3.86
   1   8 -12    8.19    4.05
   1   8 -11    4.71    4.22
   1   8 -10    6.95    3.63
   1   8  -9  550.31   24.20
   1   8  -8  146.96   11.69
   1   8  -7  173.59   12.36
   1   8  -7  168.06   12.18
   1   8  -6  657.45   14.86
   1   8  -6  626.52   24.28
   1   8  -6  639.75   24.68
   1   8  -5  309.21   15.90
   1   8  -5  295.87   11.44
   1   8  -5  301.58   15.26
   1   8  -5  321.86   16.26
   1   8  -4   98.13    5.48
   1   8  -4   95.64    8.17
   1   8  -4   91.55    8.48
   1   8  -3  726.17   16.98
   1   8  -3  737.59   25.24
   1   8  -3  706.54   25.20
   1   8  -2  592.99   22.07
   1   8  -2  533.44   21.22
   1   8  -1    2.83    2.49
   1   8  -1    1.87    2.32
   1   8   0  602.75   22.79
   1   8   1  609.83   23.11
   1   8   2   70.92    7.61
   1   8   3  281.37   15.53
   1   8   4   42.61    6.30
   1   8   5  253.23   15.05
   1   8   5  278.56   16.15
   1   8   6    4.72    2.51
   1   8   6    8.88    3.84
   1   8   7   62.67    7.69
   1   8   7   56.46    7.77
   1   8   8    6.97    3.35
   1   8   8    5.78    3.57
   1   8   9   11.56    4.41
   1   8   9    8.67    4.34
   1   8  10  119.85   11.13
   1   8  10  105.83   11.92
   1   9 -14  108.89   12.58
   1   9 -13   47.27    7.86
   1   9 -12  512.02   26.25
   1   9 -11   13.12    4.73
   1   9 -10   30.71    6.17
   1   9  -9   48.84    7.47
   1   9  -9   60.96    8.26
   1   9  -8  271.76   16.57
   1   9  -8  250.76   16.21
   1   9  -7  315.40   14.20
   1   9  -7  368.12    9.71
   1   9  -7  309.81   17.69
   1   9  -7  342.95   18.57
   1   9  -6  220.61   10.62
   1   9  -6  236.36   14.79
   1   9  -6  267.15   15.71
   1   9  -5  562.02   17.00
   1   9  -5  587.33   24.05
   1   9  -4  366.97   11.71
   1   9  -4  364.85   18.35
   1   9  -3  290.85    8.75
   1   9  -3  290.04   16.06
   1   9  -2  601.09   23.91
   1   9  -1  319.53   16.65
   1   9   0  803.64   28.59
   1   9   1  295.43   16.36
   1   9   2  355.71   18.40
   1   9   3  245.97   15.33
   1   9   4   70.70    8.57
   1   9   5   28.52    5.72
   1   9   5   26.71    5.68
   1   9   6   20.35    5.06
   1   9   6   22.58    5.12
   1   9   7    4.08    3.67
   1   9   7   -0.01    2.79
   1   9   8   78.91    9.07
   1   9   8   82.20   10.26
   1   9   9  140.82   12.45
   1   9   9  121.90   12.73
   1  10 -13  265.26   19.50
   1  10 -12  457.26   25.34
   1  10 -11  249.48   18.08
   1  10 -11  251.93   18.21
   1  10 -10  286.92   18.63
   1  10 -10  265.97   18.31
   1  10  -9  685.50   29.56
   1  10  -9  686.69   29.75
   1  10  -8  111.58    8.54
   1  10  -8  116.19   11.28
   1  10  -8  113.33   11.32
   1  10  -7   18.30    3.39
   1  10  -7   19.69    5.06
   1  10  -7   19.59    5.30
   1  10  -6   10.21    2.51
   1  10  -6    5.85    3.26
   1  10  -6   14.38    4.48
   1  10  -5   31.60    3.49
   1  10  -5   42.24    6.68
   1  10  -4  139.54    6.45
   1  10  -4  141.23   11.86
   1  10  -3  100.03    9.97
   1  10  -2  129.46   11.16
   1  10  -1  417.11   20.49
   1  10   0  692.14   27.65
   1  10   1  435.02   21.42
   1  10   2  384.82   20.20
   1  10   3 1070.85   37.06
   1  10   4    9.02    4.10
   1  10   5  560.62   25.56
   1  10   5  588.88   27.10
   1  10   6   99.81   10.37
   1  10   6  109.67   11.61
   1  10   7   12.22    4.98
   1  10   7   14.06    4.85
   1  10   8  126.19   12.06
   1  10   8  124.96   13.13
   1  10   9   -1.20    3.97
   1  11 -12  232.51   18.27
   1  11 -12  243.66   18.85
   1  11 -11  372.46   22.94
   1  11 -11  404.58   24.06
   1  11 -10  672.74   30.96
   1  11 -10  675.98   31.28
   1  11  -9   97.35   11.20
   1  11  -9  105.36   11.69
   1  11  -8   82.75    9.98
   1  11  -8   83.33   10.31
   1  11  -7  123.07   12.12
   1  11  -6   78.03    9.56
   1  11  -5  175.69   14.16
   1  11  -4    3.75    3.05
   1  11  -3   88.41    9.86
   1  11  -2    6.70    3.70
   1  11  -1    8.25    3.96
   1  11   0  102.39   10.77
   1  11   1  281.73   17.92
   1  11   2  288.51   18.41
   1  11   3  352.93   20.77
   1  11   4  272.96   18.54
   1  11   5  152.81   13.52
   1  11   5  135.88   13.42
   1  11   6  336.26   20.41
   1  11   6  359.08   22.18
   1  11   7  244.25   17.39
   1  11   7  246.83   18.69
   1  11   8  145.58   13.37
   1  12 -11   81.33   10.94
   1  12 -10  380.45   23.58
   1  12 -10  450.41   25.68
   1  12  -9  236.89   17.85
   1  12  -9  253.61   18.77
   1  12  -8   15.22    4.63
   1  12  -7  376.07   22.50
   1  12  -6  195.40   15.64
   1  12  -5  259.97   18.16
   1  12  -4  190.79   15.26
   1  12  -3    0.01    3.39
   1  12  -2   65.36    9.13
   1  12  -1   91.50   10.62
   1  12   0    0.27    3.29
   1  12   1   15.73    5.27
   1  12   2   73.48    9.95
   1  12   3    7.70    4.18
   1  12   4  166.69   15.03
   1  12   5   18.11    5.80
   1  12   5   35.91    7.64
   1  12   6   94.20   11.20
   1  12   7  230.70   17.71
   1  13 -10   34.61    7.85
   1  13  -8  191.31   16.67
   1  13  -7  171.08   15.61
   1  13  -6  357.15   22.54
   1  13  -5  168.95   15.42
   1  13  -4   18.12    5.58
   1  13  -3  130.72   13.30
   1  13  -2  124.87   12.89
   1  13  -1   62.56    9.12
   1  13   0  138.84   13.59
   1  13   1   54.40    8.99
   1  13   2    8.70    4.69
   1  14  -4  166.50   15.79
   1  14  -3  136.56   14.19
   2 -15   1   63.51    9.62
   2 -15   2  237.18   17.85
   2 -15   3  105.39   11.72
   2 -15   4  283.92   19.32
   2 -15   5    3.39    3.31
   2 -15   5   13.44    5.39
   2 -15   6   26.69    5.89
   2 -15   6   25.27    6.43
   2 -15   7   39.71    7.44
   2 -14  -1  181.56   15.84
   2 -14   0  107.65   11.95
   2 -14   1  138.33   13.35
   2 -14   2  198.19   15.60
   2 -14   3  308.90   19.57
   2 -14   3  327.89   18.19
   2 -14   4   91.10   10.38
   2 -14   4   83.64    9.64
   2 -14   5  244.49   16.91
   2 -14   5  230.35   16.46
   2 -14   6   30.76    6.30
   2 -14   6   31.41    6.41
   2 -14   7   86.77   10.26
   2 -14   7   88.73   10.96
   2 -14   8  130.84   12.37
   2 -14   8  135.25   13.92
   2 -13  -4   24.58    6.30
   2 -13  -3   16.60    5.32
   2 -13  -2    4.55    2.83
   2 -13  -1   12.82    4.30
   2 -13   0   26.01    6.28
   2 -13   1   65.78    8.69
   2 -13   1   63.75    6.88
   2 -13   2   49.64    7.60
   2 -13   2   67.16    7.40
   2 -13   3  343.84   19.52
   2 -13   3  321.45   17.75
   2 -13   4  618.36   26.82
   2 -13   4  609.83   26.17
   2 -13   5  308.51   18.38
   2 -13   5  328.27   19.21
   2 -13   6  351.46   19.54
   2 -13   6  401.88   22.07
   2 -13   7  253.97   16.36
   2 -13   7  260.01   18.25
   2 -13   8  143.00   12.10
   2 -13   8  136.97   13.68
   2 -13   9  167.48   13.19
   2 -13   9  185.17   16.24
   2 -12  -5   60.40    9.25
   2 -12  -4  124.26   12.88
   2 -12  -3    5.40    3.32
   2 -12  -2   69.87    9.42
   2 -12  -1    2.88    2.85
   2 -12  -1    2.88    2.22
   2 -12   0  107.77   10.58
   2 -12   0  115.10    8.45
   2 -12   0   98.15    7.49
   2 -12   1   13.48    4.21
   2 -12   1   12.77    3.35
   2 -12   2   47.95    7.01
   2 -12   2   50.45    6.49
   2 -12   3   91.16    9.41
   2 -12   3   98.58    9.34
   2 -12   4  460.97   21.62
   2 -12   4  433.10   21.08
   2 -12   5   36.63    6.02
   2 -12   5   40.55    6.78
   2 -12   6  300.80   16.89
   2 -12   7  484.88   22.06
   2 -12   8  347.40   18.44
   2 -12   9  157.67   12.20
   2 -12  10  321.87   18.00
   2 -11  -9  279.65   19.55
   2 -11  -7  111.16   12.48
   2 -11  -6  692.06   31.57
   2 -11  -5  555.70   27.25
   2 -11  -5  580.29   21.78
   2 -11  -4  301.93   19.15
   2 -11  -4  323.08   15.07
   2 -11  -3  390.62   21.21
   2 -11  -3  393.23   16.32
   2 -11  -2  285.77   17.51
   2 -11  -2  317.13   11.87
   2 -11  -2  302.64   13.78
   2 -11  -1  138.87   11.77
   2 -11  -1  138.53    8.84
   2 -11  -1  135.72    8.33
   2 -11   0  323.80   17.71
   2 -11   0  330.68   14.51
   2 -11   0  335.67   14.24
   2 -11   1  159.13   11.97
   2 -11   1  147.88    9.98
   2 -11   2    5.38    3.02
   2 -11   2    4.90    2.35
   2 -11   3    4.46    2.69
   2 -11   3    4.76    2.99
   2 -11   4   93.46    8.75
   2 -11   4  100.41    9.47
   2 -11   5   -2.27    2.81
   2 -11   6  156.20   11.30
   2 -11   7  536.65   22.17
   2 -11   8  607.71   24.16
   2 -11   9  209.81   13.61
   2 -11  10  261.88   15.52
   2 -11  11  312.28   17.41
   2 -10 -10    0.02    3.03
   2 -10  -9    0.88    3.05
   2 -10  -8  150.79   14.58
   2 -10  -8  152.54   12.09
   2 -10  -7   44.47    7.78
   2 -10  -7   48.15    6.60
   2 -10  -6  156.73   13.73
   2 -10  -6  145.93   10.80
   2 -10  -5  699.68   29.74
   2 -10  -5  757.04   25.57
   2 -10  -4  333.78   19.18
   2 -10  -4  353.89   16.04
   2 -10  -4  370.12   16.17
   2 -10  -3  543.87   24.20
   2 -10  -3  561.85   19.34
   2 -10  -3  550.38   19.84
   2 -10  -2  493.08   22.35
   2 -10  -2  505.64   15.62
   2 -10  -2  497.68   16.84
   2 -10  -2  511.40   18.39
   2 -10  -1  392.16   17.67
   2 -10  -1  360.43   18.23
   2 -10  -1  366.79   14.91
   2 -10  -1  362.37   12.74
   2 -10  -1  370.07   14.08
   2 -10   0   12.50    3.18
   2 -10   0    6.65    2.85
   2 -10   0   11.38    2.75
   2 -10   0   14.28    2.88
   2 -10   1  561.68   21.34
   2 -10   1  557.94   22.47
   2 -10   1  611.77   20.14
   2 -10   1  602.04   20.95
   2 -10   2  433.82   18.18
   2 -10   2  429.19   18.90
   2 -10   2  453.67   18.56
   2 -10   3  147.17   10.12
   2 -10   3  157.60   10.82
   2 -10   3  138.08   10.39
   2 -10   4   10.78    2.95
   2 -10   4   15.25    3.62
   2 -10   5  401.25   17.68
   2 -10   6  443.92   18.83
   2 -10   7   78.92    7.58
   2 -10   8  172.79   11.49
   2 -10   9  519.62   21.33
   2 -10  10  114.83    9.65
   2 -10  11  285.70   15.90
   2 -10  12  144.29   11.35
   2 -10  12  117.51   13.27
   2  -9 -11  106.50   11.97
   2  -9 -10   73.19    9.73
   2  -9  -9    2.91    2.93
   2  -9  -8   46.30    7.68
   2  -9  -7    1.16    3.49
   2  -9  -7    1.59    2.46
   2  -9  -6  274.96   17.47
   2  -9  -6  297.95   15.60
   2  -9  -5   32.11    6.11
   2  -9  -5   38.63    5.46
   2  -9  -4  309.74   17.40
   2  -9  -4  323.76   14.92
   2  -9  -3  391.91   19.16
   2  -9  -3  382.95   15.74
   2  -9  -3  377.21   15.34
   2  -9  -2  564.05   21.15
   2  -9  -2  559.48   22.71
   2  -9  -2  571.55   16.39
   2  -9  -2  562.11   19.26
   2  -9  -2  541.13   17.80
   2  -9  -1  170.79   10.63
   2  -9  -1  171.48   11.59
   2  -9  -1  167.34    9.49
   2  -9  -1  164.40    8.12
   2  -9  -1  181.77    9.01
   2  -9   0  944.10   28.71
   2  -9   0 1024.80   30.97
   2  -9   0  980.96   27.27
   2  -9   0 1027.28   23.89
   2  -9   0 1035.49   27.47
   2  -9   1  194.69   10.88
   2  -9   1  176.67   11.08
   2  -9   1  193.70   10.18
   2  -9   1  175.15   10.13
   2  -9   2 1226.03   33.19
   2  -9   2 1258.32   34.39
   2  -9   2 1222.15   33.73
   2  -9   3  623.96   21.48
   2  -9   3  620.58   21.74
   2  -9   4   32.01    4.65
   2  -9   4   32.31    4.67
   2  -9   5  323.33   15.33
   2  -9   5  353.73   15.38
   2  -9   6  146.49   10.19
   2  -9   6  143.89    9.66
   2  -9   7   -0.67    1.78
   2  -9   8  537.99   20.37
   2  -9   9   21.82    4.03
   2  -9  10  137.39   10.32
   2  -9  11    0.21    1.81
   2  -9  12  285.59   15.87
   2  -9  12  282.28   19.77
   2  -9  13  169.97   15.63
   2  -8 -12  148.48   14.26
   2  -8 -11  211.10   16.49
   2  -8 -10  211.98   15.82
   2  -8  -9  131.14   11.99
   2  -8  -8  213.20   15.97
   2  -8  -7  260.05   16.87
   2  -8  -6   52.78    7.47
   2  -8  -6   59.41    6.81
   2  -8  -5   28.53    5.60
   2  -8  -5   53.22    6.12
   2  -8  -4    3.50    3.11
   2  -8  -4    0.67    2.40
   2  -8  -3  260.37   14.51
   2  -8  -3  294.50   13.29
   2  -8  -2    2.71    2.71
   2  -8  -2    2.55    1.33
   2  -8  -2    2.24    2.02
   2  -8  -2    3.62    1.96
   2  -8  -1   95.38    7.28
   2  -8  -1   93.98    6.86
   2  -8  -1  102.88    6.35
   2  -8  -1  106.00    6.35
   2  -8  -1   99.01    8.13
   2  -8   0  355.90   14.53
   2  -8   0  337.02   13.74
   2  -8   0  364.28   11.88
   2  -8   0  382.65   14.02
   2  -8   0  379.35   15.99
   2  -8   0  397.75   17.93
   2  -8   1  839.76   24.49
   2  -8   1  852.49   24.14
   2  -8   1  853.80   24.76
   2  -8   1  900.13   26.30
   2  -8   1  906.68   28.77
   2  -8   2  205.19   10.49
   2  -8   2  213.14   10.63
   2  -8   2  209.02   11.17
   2  -8   2  207.88   10.98
   2  -8   2  213.93   12.59
   2  -8   3 2230.82   49.89
   2  -8   3 2259.53   50.23
   2  -8   4 1960.16   45.76
   2  -8   4 1980.32   45.18
   2  -8   5  421.24   16.99
   2  -8   5  462.93   16.84
   2  -8   6 1392.85   36.78
   2  -8   6 1330.64   34.46
   2  -8   7  590.24   22.05
   2  -8   7  573.88   19.86
   2  -8   8   36.69    4.81
   2  -8   9  384.97   16.53
   2  -8  10  461.79   18.93
   2  -8  11   70.83    7.29
   2  -8  12  191.89   12.64
   2  -8  12  211.15   16.60
   2  -8  13   -0.76    2.20
   2  -8  13   -4.91    4.31
   2  -7 -12   33.18    6.98
   2  -7 -11   67.07    9.26
   2  -7 -10  400.13   21.37
   2  -7  -9  609.24   25.87
   2  -7  -8  108.31    9.92
   2  -7  -7  479.11   22.52
   2  -7  -6  114.34   10.17
   2  -7  -5   56.28    6.91
   2  -7  -4    2.11    2.28
   2  -7  -4    1.49    2.51
   2  -7  -3   40.95    4.76
   2  -7  -3   36.61    5.28
   2  -7  -3   34.10    5.42
   2  -7  -2    9.17    2.23
   2  -7  -2   13.84    2.80
   2  -7  -2   10.74    1.87
   2  -7  -2   11.40    3.04
   2  -7  -2   17.97    4.02
   2  -7  -1   38.38    4.40
   2  -7  -1   43.91    3.96
   2  -7  -1   36.30    4.22
   2  -7  -1   41.72    3.84
   2  -7  -1   40.63    5.03
   2  -7  -1   49.34    5.89
   2  -7   0   68.70    5.45
   2  -7   0   67.67    5.54
   2  -7   0   64.71    4.50
   2  -7   0   69.84    5.41
   2  -7   0   63.69    5.86
   2  -7   0   70.42    6.89
   2  -7   1  157.25    8.34
   2  -7   1  168.01    8.81
   2  -7   1  173.77    9.10
   2  -7   1  167.15    9.19
   2  -7   1  155.71    9.99
   2  -7   2  422.22   14.82
   2  -7   2  436.81   15.50
   2  -7   2  448.88   16.37
   2  -7   2  428.82   15.29
   2  -7   2  420.91   17.31
   2  -7   3  145.73    8.24
   2  -7   3  137.88    7.94
   2  -7   4  308.93   12.91
   2  -7   4  298.04   12.19
   2  -7   5  857.05   25.14
   2  -7   5  846.29   23.51
   2  -7   6  634.83   21.68
   2  -7   6  658.53   20.01
   2  -7   7 1849.60   44.99
   2  -7   7 1726.43   40.85
   2  -7   8  509.39   18.08
   2  -7   9  144.07    9.32
   2  -7  10  463.30   18.36
   2  -7  11  156.16   10.66
   2  -7  12   -0.06    2.01
   2  -7  12   -0.90    3.77
   2  -7  13  112.21    9.78
   2  -7  13  100.85   11.52
   2  -7  14   34.71    5.99
   2  -7  14   29.39    6.95
   2  -6 -13   13.80    6.04
   2  -6 -12  209.09   16.02
   2  -6 -11  164.74   13.61
   2  -6 -10  329.76   18.55
   2  -6  -9  261.50   15.69
   2  -6  -8  214.08   13.42
   2  -6  -7  269.52   15.65
   2  -6  -6 2770.56   64.70
   2  -6  -5 1087.95   32.51
   2  -6  -4  816.40   26.36
   2  -6  -4  889.17   28.02
   2  -6  -3  147.84    8.76
   2  -6  -3  146.11    9.39
   2  -6  -3  168.38   10.57
   2  -6  -2  153.19    6.48
   2  -6  -2  149.92    8.07
   2  -6  -2  147.43    8.34
   2  -6  -2  141.36    8.89
   2  -6  -2  160.43   10.05
   2  -6  -1   15.04    2.33
   2  -6  -1   12.12    2.52
   2  -6  -1   15.90    2.58
   2  -6  -1    7.93    2.58
   2  -6  -1   17.66    3.59
   2  -6   0  155.61    7.60
   2  -6   0  158.97    8.25
   2  -6   0  163.35    7.21
   2  -6   0  163.62    7.88
   2  -6   0  157.69    8.43
   2  -6   0  148.02    9.19
   2  -6   1    4.39    1.68
   2  -6   1    1.24    1.68
   2  -6   1    6.65    2.11
   2  -6   1    2.88    2.34
   2  -6   1    5.07    2.06
   2  -6   2  534.90   15.92
   2  -6   2  556.86   17.46
   2  -6   2  507.41   17.43
   2  -6   2  546.37   16.28
   2  -6   2  518.71   18.29
   2  -6   3  131.92    7.25
   2  -6   3  131.85    7.03
   2  -6   4   23.68    3.40
   2  -6   4   25.78    3.28
   2  -6   5  858.86   24.54
   2  -6   5  890.47   22.76
   2  -6   6 1222.96   32.65
   2  -6   6 1256.91   29.87
   2  -6   7  924.17   27.77
   2  -6   7  904.51   24.48
   2  -6   8 1501.32   40.40
   2  -6   8 1548.97   36.81
   2  -6   9  126.10    8.44
   2  -6  10  103.01    7.95
   2  -6  11  846.98   27.53
   2  -6  11  926.88   33.79
   2  -6  12  378.06   17.71
   2  -6  12  418.83   22.37
   2  -6  13  107.23    9.52
   2  -6  13  109.79   11.59
   2  -6  14  156.42   12.17
   2  -6  14  172.89   15.25
   2  -6  15   26.87    6.35
   2  -5 -13   -0.26    3.34
   2  -5 -12   58.84    8.68
   2  -5 -11  147.82   12.44
   2  -5 -10  265.03   16.14
   2  -5  -9  124.92   10.40
   2  -5  -8  569.26   22.20
   2  -5  -7  544.51   20.60
   2  -5  -6 1770.41   45.73
   2  -5  -6 1814.69   46.47
   2  -5  -5 1853.53   46.04
   2  -5  -5 1956.78   47.42
   2  -5  -4 1479.23   37.66
   2  -5  -4 1521.16   38.73
   2  -5  -3  681.51   20.50
   2  -5  -3  655.55   20.80
   2  -5  -3  673.94   21.95
   2  -5  -2 1652.89   33.39
   2  -5  -2 1682.50   37.73
   2  -5  -2 1640.72   38.13
   2  -5  -2 1688.81   39.76
   2  -5  -1 2506.39   51.02
   2  -5  -1 2594.02   50.10
   2  -5  -1 2654.42   52.88
   2  -5  -1 2654.59   53.00
   2  -5  -1 2491.80   54.57
   2  -5   0  682.31   17.07
   2  -5   0  676.26   18.03
   2  -5   0  693.40   19.02
   2  -5   0  632.73   16.99
   2  -5   0  672.56   18.35
   2  -5   0  654.73   20.07
   2  -5   1 2099.31   42.60
   2  -5   1 2242.92   45.75
   2  -5   1 2183.77   45.35
   2  -5   1 2168.51   43.81
   2  -5   1 2183.48   46.89
   2  -5   2  366.53   11.64
   2  -5   2  371.98   11.60
   2  -5   2  373.18   13.34
   2  -5   2  387.69   13.96
   2  -5   3    2.40    1.38
   2  -5   3    2.55    1.21
   2  -5   3    2.72    2.28
   2  -5   4  169.20    8.24
   2  -5   4  154.40    6.96
   2  -5   5  113.63    7.24
   2  -5   5  117.43    6.19
   2  -5   6  418.28   15.82
   2  -5   6  394.93   13.10
   2  -5   7  576.43   20.52
   2  -5   7  597.01   17.83
   2  -5   8  299.22   14.65
   2  -5   8  272.55   11.80
   2  -5   9  539.68   18.63
   2  -5  10  242.88   12.42
   2  -5  10  243.02   15.18
   2  -5  11  874.32   27.64
   2  -5  11  887.17   32.42
   2  -5  12  613.83   23.23
   2  -5  12  612.97   26.98
   2  -5  13  260.23   15.07
   2  -5  13  270.06   17.92
   2  -5  14  162.32   12.26
   2  -5  14  166.60   14.53
   2  -5  15  451.40   25.00
   2  -4 -14  171.37   15.24
   2  -4 -13   -1.98    3.33
   2  -4 -12   52.43    7.71
   2  -4 -11  222.84   15.08
   2  -4 -10    6.60    3.27
   2  -4  -9   -2.71    2.97
   2  -4  -8   17.89    3.88
   2  -4  -7  519.54   19.26
   2  -4  -6  471.68   17.33
   2  -4  -6  507.94   19.65
   2  -4  -5  488.10   18.34
   2  -4  -5  515.01   18.89
   2  -4  -4  288.31   12.68
   2  -4  -4  314.67   13.55
   2  -4  -3 2149.34   46.43
   2  -4  -3 2154.71   47.37
   2  -4  -2  270.51   11.14
   2  -4  -2  302.31   11.37
   2  -4  -2  311.26   12.25
   2  -4  -1 2314.41   44.84
   2  -4  -1 2237.61   45.96
   2  -4  -1 2407.91   47.72
   2  -4  -1 2320.52   46.38
   2  -4  -1 2296.52   48.31
   2  -4   0  566.14   13.80
   2  -4   0  596.06   16.81
   2  -4   0  609.48   16.04
   2  -4   0  574.50   15.36
   2  -4   0  593.38   15.37
   2  -4   0  579.34   17.01
   2  -4   1  884.01   19.23
   2  -4   1  863.54   22.23
   2  -4   1  910.25   22.28
   2  -4   1  895.10   19.92
   2  -4   1  850.74   22.14
   2  -4   2 3366.93   62.97
   2  -4   2 3431.13   62.25
   2  -4   2 3465.52   66.72
   2  -4   2 3460.04   66.94
   2  -4   3 1010.81   24.11
   2  -4   3 1079.16   22.46
   2  -4   3 1090.70   27.51
   2  -4   4  107.76    6.27
   2  -4   4  104.47    5.03
   2  -4   4  110.67    7.51
   2  -4   5  475.95   15.89
   2  -4   5  474.87   13.40
   2  -4   5  492.98   17.81
   2  -4   6   81.86    6.47
   2  -4   6   84.56    5.25
   2  -4   6   88.02    7.54
   2  -4   7   58.21    5.86
   2  -4   7   60.14    4.80
   2  -4   7   65.05    6.63
   2  -4   8  236.35   12.83
   2  -4   8  210.47   10.01
   2  -4   8  204.66   12.48
   2  -4   9   32.97    4.23
   2  -4   9   33.13    5.36
   2  -4  10  514.58   18.88
   2  -4  10  470.35   18.22
   2  -4  10  500.12   21.85
   2  -4  11  171.59   10.85
   2  -4  11  167.18   10.75
   2  -4  11  170.78   12.69
   2  -4  12  200.84   12.54
   2  -4  12  200.48   14.37
   2  -4  13  253.42   14.94
   2  -4  13  226.11   15.90
   2  -4  14  135.12   11.41
   2  -4  14  150.04   13.32
   2  -4  15  451.24   22.21
   2  -4  15  413.18   23.23
   2  -4  16  347.79   21.80
   2  -3 -14   85.10   10.69
   2  -3 -13  357.46   20.90
   2  -3 -12  103.05   10.69
   2  -3 -11  167.76   12.72
   2  -3 -10  196.45   13.10
   2  -3  -9  217.89   12.96
   2  -3  -8   15.31    3.52
   2  -3  -7   89.92    7.23
   2  -3  -7  105.28    8.44
   2  -3  -6  225.92   10.93
   2  -3  -6  247.61   12.45
   2  -3  -5   54.06    4.77
   2  -3  -5   68.44    6.04
   2  -3  -4  246.55    9.62
   2  -3  -4  248.52   11.25
   2  -3  -3   38.75    4.04
   2  -3  -3   47.14    4.60
   2  -3  -2 2008.87   42.10
   2  -3  -2 2043.10   41.04
   2  -3  -2 1956.60   41.84
   2  -3  -1  286.02    9.12
   2  -3  -1  284.13    9.87
   2  -3  -1  275.23   10.34
   2  -3  -1  282.84    9.24
   2  -3  -1  278.47   10.03
   2  -3   0  990.05   19.10
   2  -3   0 1002.23   23.61
   2  -3   0  995.42   22.63
   2  -3   0  954.53   22.30
   2  -3   0 1017.17   20.98
   2  -3   0  989.45   22.90
   2  -3   1 1763.35   32.97
   2  -3   1 1766.57   36.98
   2  -3   1 1766.87   37.27
   2  -3   1 1792.45   33.06
   2  -3   1 1767.22   35.99
   2  -3   2  426.52   11.28
   2  -3   2  432.67    9.84
   2  -3   2  428.62   13.89
   2  -3   2  448.33   14.01
   2  -3   3 5155.51   91.05
   2  -3   3 5043.23   87.58
   2  -3   3 4797.35   93.83
   2  -3   4 1440.00   32.68
   2  -3   4 1486.88   29.34
   2  -3   4 1548.41   35.40
   2  -3   5 1669.36   37.79
   2  -3   5 1668.52   33.89
   2  -3   5 1694.73   39.54
   2  -3   6  942.16   26.58
   2  -3   6  983.12   23.31
   2  -3   6  996.92   27.89
   2  -3   7  388.68   16.07
   2  -3   7  369.50   15.91
   2  -3   7  381.23   13.15
   2  -3   8    1.39    2.07
   2  -3   8    3.85    2.19
   2  -3   8    0.58    1.60
   2  -3   8    0.54    1.90
   2  -3   9  579.18   22.00
   2  -3   9  526.74   18.55
   2  -3   9  535.94   18.60
   2  -3  10   -1.16    2.60
   2  -3  10    0.74    1.63
   2  -3  10    0.38    1.68
   2  -3  11   14.89    3.89
   2  -3  11   10.58    2.71
   2  -3  11   16.88    3.64
   2  -3  12   12.73    3.98
   2  -3  12   20.03    4.13
   2  -3  13   -1.47    3.11
   2  -3  13    4.55    2.96
   2  -3  14   81.85    9.42
   2  -3  14  103.42   10.02
   2  -3  15  103.23   11.14
   2  -3  15   83.86    9.64
   2  -3  16  202.03   15.94
   2  -2 -15  128.71   13.44
   2  -2 -14   63.34    9.13
   2  -2 -13  258.29   17.38
   2  -2 -12  409.43   21.14
   2  -2 -11  129.51   11.04
   2  -2 -10  345.66   17.29
   2  -2  -9  537.36   21.04
   2  -2  -8  548.47   20.15
   2  -2  -8  569.06   21.63
   2  -2  -7  449.28   16.70
   2  -2  -7  431.09   17.59
   2  -2  -6  228.20   10.57
   2  -2  -6  234.22   11.71
   2  -2  -5    4.56    2.32
   2  -2  -5    4.18    2.01
   2  -2  -4   24.78    3.01
   2  -2  -4   23.80    3.48
   2  -2  -3   46.20    3.36
   2  -2  -3   49.08    4.23
   2  -2  -2   92.44    3.84
   2  -2  -2  102.55    5.44
   2  -2  -1 3703.70   72.39
   2  -2  -1 4076.55   73.56
   2  -2  -1 4072.16   71.85
   2  -2   0   18.87    2.77
   2  -2   0   20.94    2.74
   2  -2   0   32.18    3.01
   2  -2   0   15.79    1.51
   2  -2   0   18.85    2.02
   2  -2   1  130.22    6.45
   2  -2   1  135.95    6.43
   2  -2   1  136.00    4.29
   2  -2   1  130.54    5.13
   2  -2   2  703.75   18.57
   2  -2   2  698.97   18.45
   2  -2   2  701.49   15.97
   2  -2   2  695.01   18.25
   2  -2   3    6.84    2.47
   2  -2   3   -3.81    2.73
   2  -2   3    6.86    1.84
   2  -2   3    4.01    0.94
   2  -2   4 1046.63   25.07
   2  -2   4 1038.89   26.13
   2  -2   4 1032.00   21.52
   2  -2   4 1033.02   21.64
   2  -2   4 1004.89   26.17
   2  -2   5 4056.72   80.36
   2  -2   5 4108.92   75.36
   2  -2   5 4131.77   75.54
   2  -2   5 4229.25   81.10
   2  -2   6  656.54   20.47
   2  -2   6  597.06   16.85
   2  -2   6  610.55   16.91
   2  -2   6  624.71   20.38
   2  -2   7  903.47   26.41
   2  -2   7  869.37   23.25
   2  -2   7  899.55   23.35
   2  -2   7  887.40   26.64
   2  -2   8  789.53   24.91
   2  -2   8  765.62   22.30
   2  -2   8  749.10   22.30
   2  -2   9   -1.14    2.27
   2  -2   9    0.83    1.71
   2  -2  10  498.05   20.47
   2  -2  10  481.48   18.83
   2  -2  10  514.20   19.36
   2  -2  11   11.64    3.90
   2  -2  11   12.50    3.40
   2  -2  12   10.01    3.64
   2  -2  12    8.47    2.93
   2  -2  13   10.94    4.48
   2  -2  13    9.56    3.44
   2  -2  14    6.13    4.13
   2  -2  14    5.31    3.58
   2  -2  15   21.65    5.18
   2  -2  15   19.77    5.06
   2  -1 -15  108.27   12.03
   2  -1 -14  285.50   19.18
   2  -1 -13  356.08   20.43
   2  -1 -12  110.13   10.63
   2  -1 -11 1257.34   29.72
   2  -1 -11 1248.88   38.63
   2  -1 -10  169.69    7.76
   2  -1 -10  174.66   11.86
   2  -1  -9  552.77   14.97
   2  -1  -9  530.22   20.66
   2  -1  -8  920.09   27.77
   2  -1  -8  952.12   21.21
   2  -1  -8  992.63   29.59
   2  -1  -7 3204.08   65.05
   2  -1  -7 3043.67   56.53
   2  -1  -7 3283.41   66.96
   2  -1  -6 1604.42   36.99
   2  -1  -6 1604.23   29.99
   2  -1  -6 1643.06   38.64
   2  -1  -5 2117.30   44.32
   2  -1  -5 2163.32   46.17
   2  -1  -4  661.48   16.53
   2  -1  -4  595.05   17.41
   2  -1  -4  590.47   17.35
   2  -1  -3  412.92   11.12
   2  -1  -3  413.35   12.48
   2  -1  -3  417.19   12.50
   2  -1  -2  183.04    7.71
   2  -1  -2  177.10    5.38
   2  -1  -2  175.73    4.50
   2  -1  -2  183.12    6.71
   2  -1  -2  184.43    6.79
   2  -1  -1   40.97    3.45
   2  -1  -1   46.29    3.76
   2  -1  -1   36.43    2.46
   2  -1  -1   40.72    2.44
   2  -1  -1   38.88    2.51
   2  -1   0  534.90   13.90
   2  -1   0  509.52   13.67
   2  -1   0  533.41   12.77
   2  -1   0  520.43   10.52
   2  -1   0  503.89   10.92
   2  -1   1    8.03    2.52
   2  -1   1    9.31    2.30
   2  -1   1   12.71    2.45
   2  -1   2  715.38   17.95
   2  -1   2  680.45   13.48
   2  -1   2  720.62   18.11
   2  -1   3 2397.24   49.60
   2  -1   3 2509.74   45.49
   2  -1   3 2575.19   50.49
   2  -1   3 2498.44   45.35
   2  -1   4  390.57   13.25
   2  -1   4  373.18   10.65
   2  -1   4  370.99   13.39
   2  -1   4  373.66   10.53
   2  -1   5 3271.57   64.91
   2  -1   5 3263.07   61.94
   2  -1   5 3279.26   66.03
   2  -1   5 3255.65   61.80
   2  -1   6  708.75   20.70
   2  -1   6  656.92   18.67
   2  -1   6  690.80   21.43
   2  -1   6  652.67   18.45
   2  -1   7  515.01   17.76
   2  -1   7  489.53   16.39
   2  -1   7  514.38   18.68
   2  -1   7  478.83   16.07
   2  -1   8 1458.92   36.98
   2  -1   8 1434.60   35.89
   2  -1   8 1501.94   38.69
   2  -1   8 1451.68   35.71
   2  -1   9    4.79    2.77
   2  -1   9    7.88    2.78
   2  -1   9    6.10    2.24
   2  -1   9    3.97    2.45
   2  -1  10  764.14   25.69
   2  -1  10  766.14   25.60
   2  -1  10  745.32   26.64
   2  -1  10  783.33   25.70
   2  -1  11  507.09   20.66
   2  -1  11  469.91   20.13
   2  -1  12  288.73   15.74
   2  -1  12  273.83   15.58
   2  -1  13    3.13    2.63
   2  -1  13    8.43    3.61
   2  -1  14   -1.52    2.61
   2  -1  14   -1.47    3.41
   2  -1  15    5.95    4.25
   2  -1  16  132.80   13.18
   2   0 -15   44.20    7.82
   2   0 -14   -2.07    3.57
   2   0 -13   36.61    6.56
   2   0 -12    2.21    1.54
   2   0 -12    5.37    3.68
   2   0 -11  482.15   21.42
   2   0 -11  450.56   15.00
   2   0 -10 1640.67   43.29
   2   0 -10 1551.22   34.56
   2   0  -9  349.17   16.24
   2   0  -9  385.36   12.12
   2   0  -8 2107.26   49.38
   2   0  -8 2120.38   42.01
   2   0  -8 2167.12   50.47
   2   0  -8 2193.53   50.83
   2   0  -7 3450.36   72.42
   2   0  -7 3577.47   65.34
   2   0  -7 3655.50   74.21
   2   0  -7 3746.48   74.23
   2   0  -6 1486.47   34.23
   2   0  -6 1433.65   28.11
   2   0  -6 1484.55   35.27
   2   0  -6 1414.87   34.83
   2   0  -5 5028.75   92.40
   2   0  -5 4981.10   93.44
   2   0  -5 4947.20   86.24
   2   0  -5 5005.22   93.75
   2   0  -4 1023.20   23.82
   2   0  -4 1063.91   25.22
   2   0  -3 1485.74   29.76
   2   0  -3 1427.00   30.79
   2   0  -2 7312.95  125.31
   2   0  -2 7428.27  126.57
   2   0  -2 6931.86  128.99
   2   0  -2 7527.11  128.04
   2   0  -1 5640.36   99.49
   2   0  -1 6015.98  100.35
   2   0  -1 5607.55  102.06
   2   0  -1 5426.11  101.58
   2   0  -1 5974.49  100.40
   2   0  -1 5767.68   98.81
   2   0   0 1300.53   26.12
   2   0   0 1253.97   24.20
   2   0   0 1260.01   26.12
   2   0   1  345.38   10.81
   2   0   1  348.66    8.52
   2   0   1  363.59   10.44
   2   0   2  257.23    9.57
   2   0   2  249.48    7.37
   2   0   2  256.32    9.08
   2   0   3   83.31    5.67
   2   0   3   80.55    4.25
   2   0   3   77.73    5.11
   2   0   4  756.97   22.11
   2   0   4  865.33   20.47
   2   0   4  911.23   22.00
   2   0   5    0.36    2.05
   2   0   5    0.01    2.04
   2   0   5    0.01    1.37
   2   0   6  891.59   25.57
   2   0   6  866.46   23.61
   2   0   6  852.78   23.41
   2   0   6  903.69   23.48
   2   0   7 1241.31   31.35
   2   0   7 1246.65   31.58
   2   0   7 1235.21   31.24
   2   0   7 1256.65   33.43
   2   0   8 1382.19   35.24
   2   0   8 1385.67   35.60
   2   0   8 1397.91   37.12
   2   0   8 1373.10   35.23
   2   0   9  126.45    8.74
   2   0   9  126.38    9.19
   2   0   9  142.26   10.07
   2   0   9  139.17    9.50
   2   0  10 1740.67   43.39
   2   0  10 1744.23   44.96
   2   0  10 1710.95   45.81
   2   0  11  363.88   16.73
   2   0  11  356.19   18.10
   2   0  11  382.29   18.20
   2   0  12  252.89   14.09
   2   0  12  237.03   15.09
   2   0  12  229.45   14.70
   2   0  13  644.89   24.45
   2   0  13  556.26   25.13
   2   0  14  125.74   11.81
   2   0  15  351.96   21.11
   2   1 -15   45.29    8.24
   2   1 -14  306.32   19.48
   2   1 -13   14.03    4.48
   2   1 -12   -0.27    1.67
   2   1 -12   -0.60    2.50
   2   1 -11  296.61   16.57
   2   1 -11  317.18   12.51
   2   1 -10    1.35    1.12
   2   1 -10    2.28    2.42
   2   1  -9  145.53   10.08
   2   1  -9  143.76    7.25
   2   1  -9  131.12    9.67
   2   1  -8   17.11    2.38
   2   1  -8   13.84    3.06
   2   1  -8   23.87    4.06
   2   1  -7 1395.80   34.31
   2   1  -7 1340.85   28.88
   2   1  -7 1347.59   34.78
   2   1  -6  797.15   22.56
   2   1  -6  831.53   23.44
   2   1  -5 1623.55   35.55
   2   1  -5 1558.46   35.97
   2   1  -4  243.59    9.44
   2   1  -4  234.89    9.55
   2   1  -3 1618.36   33.12
   2   1  -3 1588.05   33.64
   2   1  -2 5533.62   97.99
   2   1  -2 5413.37   98.43
   2   1  -2 5599.27   98.43
   2   1  -1 1150.20   23.69
   2   1  -1 1137.99   24.48
   2   1  -1 1157.86   24.30
   2   1   0  891.69   20.16
   2   1   0  841.23   18.28
   2   1   0  845.78   18.79
   2   1   0  855.00   16.42
   2   1   1  688.22   17.84
   2   1   1  662.63   15.86
   2   1   1  691.46   16.20
   2   1   1  697.66   14.01
   2   1   2 2237.41   44.86
   2   1   2 2179.76   42.73
   2   1   2 2176.32   40.59
   2   1   3 2489.67   51.16
   2   1   3 2502.27   49.06
   2   1   4   70.04    5.68
   2   1   4   68.76    5.01
   2   1   4   68.07    4.75
   2   1   5   -1.38    1.83
   2   1   5    2.77    1.85
   2   1   5    0.69    1.55
   2   1   6   20.56    3.65
   2   1   6   19.40    2.91
   2   1   6   30.34    3.98
   2   1   7  496.18   18.44
   2   1   7  475.19   16.01
   2   1   7  477.57   17.75
   2   1   7  468.72   17.32
   2   1   8   28.33    4.68
   2   1   8   19.90    3.28
   2   1   8   26.26    4.27
   2   1   8   24.61    4.12
   2   1   9  127.58    8.41
   2   1   9  136.71    9.85
   2   1   9  122.80    9.56
   2   1   9  128.28    9.55
   2   1  10  808.46   24.79
   2   1  10  773.22   27.51
   2   1  10  771.90   27.31
   2   1  11  227.36   12.30
   2   1  11  228.29   14.30
   2   1  11  211.19   13.78
   2   1  12   48.28    5.83
   2   1  12   45.08    7.01
   2   1  12   48.47    7.21
   2   1  13  388.02   20.56
   2   1  13  396.83   21.24
   2   1  14  193.08   15.30
   2   1  15  423.92   23.97
   2   2 -15  229.02   17.50
   2   2 -14  187.92   15.23
   2   2 -13   59.10    8.15
   2   2 -12  111.83   10.64
   2   2 -12  108.77    7.76
   2   2 -11   11.19    4.01
   2   2 -11    5.32    2.08
   2   2 -10  281.41   15.27
   2   2 -10  287.52   11.96
   2   2  -9   14.70    3.94
   2   2  -9    8.77    2.05
   2   2  -9   16.50    3.54
   2   2  -8   11.24    3.08
   2   2  -8   12.72    2.36
   2   2  -8   13.53    3.23
   2   2  -7   51.33    5.57
   2   2  -7   47.30    5.27
   2   2  -6  234.58   10.95
   2   2  -6  220.65   10.73
   2   2  -5  186.36    9.13
   2   2  -5  204.03    9.58
   2   2  -4   34.61    4.01
   2   2  -4   34.43    3.72
   2   2  -3 1192.46   27.53
   2   2  -3 1230.63   27.82
   2   2  -3 1230.35   26.70
   2   2  -2 9722.83  171.66
   2   2  -2 9730.16  169.78
   2   2  -2 9999.00  171.68
   2   2  -1 1942.35   36.78
   2   2  -1 2018.98   39.89
   2   2  -1 1997.77   37.80
   2   2   0 1651.05   31.23
   2   2   0 1683.38   34.49
   2   2   0 1673.86   32.17
   2   2   1  520.63   15.43
   2   2   1  515.03   14.58
   2   2   1  499.89   12.59
   2   2   2  103.91    6.58
   2   2   2  111.24    6.18
   2   2   2  100.00    5.10
   2   2   3 2002.12   43.35
   2   2   3 1960.30   42.14
   2   2   3 1993.18   40.16
   2   2   4 1197.24   30.37
   2   2   4 1207.43   29.78
   2   2   4 1222.93   28.20
   2   2   5    7.02    3.44
   2   2   5    9.75    2.46
   2   2   6  305.50   13.96
   2   2   6  333.46   14.23
   2   2   7  231.86   12.49
   2   2   7  247.73   12.73
   2   2   7  243.76   10.35
   2   2   8   16.15    3.76
   2   2   8   16.86    2.88
   2   2   8   29.06    4.70
   2   2   9    5.56    2.25
   2   2   9    3.33    2.34
   2   2   9    9.88    3.55
   2   2  10  152.66    9.12
   2   2  10  130.38   10.48
   2   2  10  135.23   10.80
   2   2  11    7.73    2.62
   2   2  11    3.85    3.06
   2   2  11    9.75    3.99
   2   2  12   63.69    8.07
   2   2  12   77.05    9.16
   2   2  13   29.32    5.97
   2   2  13   30.54    6.45
   2   2  14  107.51   11.12
   2   2  14  116.28   12.19
   2   3 -15 1024.70   39.93
   2   3 -14  349.07   21.09
   2   3 -13  342.44   19.91
   2   3 -13  356.69   15.95
   2   3 -12  819.88   30.86
   2   3 -12  796.52   25.12
   2   3 -11  117.28   10.32
   2   3 -11  108.01    7.78
   2   3 -10  196.81   12.61
   2   3 -10  179.46    9.87
   2   3  -9 1680.43   43.74
   2   3  -9 1685.42   43.47
   2   3  -8  287.15   14.14
   2   3  -8  306.72   14.30
   2   3  -7   46.39    5.57
   2   3  -7   52.39    5.45
   2   3  -6   50.37    5.42
   2   3  -6   45.91    4.98
   2   3  -5  169.72    9.18
   2   3  -5  172.45    9.07
   2   3  -4  441.07   14.83
   2   3  -4  419.34   14.53
   2   3  -3    1.07    2.20
   2   3  -3    3.37    2.17
   2   3  -3    0.30    1.33
   2   3  -2 1219.00   29.43
   2   3  -2 1281.20   26.25
   2   3  -2 1285.23   29.60
   2   3  -1  951.70   18.71
   2   3  -1  973.81   23.91
   2   3  -1  978.09   22.27
   2   3   0  237.09    9.66
   2   3   0  223.03    8.36
   2   3   1  828.42   21.98
   2   3   1  808.12   19.69
   2   3   2 1387.65   33.37
   2   3   2 1425.20   33.01
   2   3   2 1377.93   30.53
   2   3   3 1721.68   39.58
   2   3   3 1723.09   39.33
   2   3   3 1674.45   36.80
   2   3   4 1572.91   37.97
   2   3   4 1652.22   38.42
   2   3   4 1522.96   35.62
   2   3   5 1850.49   43.61
   2   3   5 1888.56   44.03
   2   3   5 1777.12   41.43
   2   3   6   91.07    7.51
   2   3   6   84.61    7.38
   2   3   6   90.04    7.02
   2   3   7  544.98   20.69
   2   3   7  561.14   21.33
   2   3   8  283.59   14.79
   2   3   9    4.06    2.66
   2   3  10  191.97   13.09
   2   3  10  188.41   13.27
   2   3  11   13.15    4.21
   2   3  11   13.79    4.34
   2   3  12    8.60    3.46
   2   3  12   19.73    5.44
   2   3  13   10.52    4.00
   2   3  13   17.65    5.02
   2   3  14    4.02    3.53
   2   3  14   15.86    5.60
   2   4 -15  198.94   16.40
   2   4 -14  472.24   24.93
   2   4 -13   31.91    6.61
   2   4 -12  908.03   33.00
   2   4 -12  854.25   27.33
   2   4 -11  285.55   16.69
   2   4 -11  304.52   14.26
   2   4 -10 1201.76   36.75
   2   4  -9 1243.75   36.32
   2   4  -9 1247.97   35.81
   2   4  -8 1346.79   37.09
   2   4  -8 1371.13   36.79
   2   4  -7 1066.96   30.90
   2   4  -7 1127.76   31.17
   2   4  -6  472.57   17.44
   2   4  -6  426.46   16.61
   2   4  -5  493.40   17.37
   2   4  -5  474.76   17.07
   2   4  -4  141.60    8.46
   2   4  -4  126.99    7.84
   2   4  -4  135.26    6.31
   2   4  -3  307.07   12.66
   2   4  -3  307.65    9.35
   2   4  -3  296.49   12.31
   2   4  -2  216.63   10.09
   2   4  -2  225.78    9.60
   2   4  -1  233.07   10.44
   2   4  -1  226.34    9.52
   2   4   0  873.09   23.95
   2   4   0  866.43   22.21
   2   4   1   84.78    6.37
   2   4   1   74.71    5.35
   2   4   2 1300.01   32.81
   2   4   2 1278.15   30.37
   2   4   3 2889.76   61.96
   2   4   3 2977.82   62.57
   2   4   3 2920.41   59.62
   2   4   4  162.33    9.88
   2   4   4  161.23    9.96
   2   4   4  166.72    9.21
   2   4   5 1427.96   37.41
   2   4   5 1472.15   38.40
   2   4   5 1404.09   35.69
   2   4   6 1095.75   31.88
   2   4   6 1164.68   33.57
   2   4   6 1050.18   30.50
   2   4   7  264.75   14.17
   2   4   7  250.37   13.53
   2   4   8  763.83   26.95
   2   4   9  400.14   19.07
   2   4  10   23.43    5.07
   2   4  10   21.15    4.73
   2   4  11  341.60   18.62
   2   4  11  331.36   19.61
   2   4  12   67.98    8.56
   2   4  12   62.09    8.91
   2   4  13    1.84    2.96
   2   4  13    6.38    4.16
   2   5 -15    4.20    4.41
   2   5 -14   21.76    5.83
   2   5 -13   87.56   10.19
   2   5 -12  191.77   14.37
   2   5 -11  493.04   22.85
   2   5 -10 1198.67   37.11
   2   5  -9  894.14   29.95
   2   5  -8  937.92   29.64
   2   5  -8  927.74   29.07
   2   5  -7 1244.27   35.14
   2   5  -7 1314.25   35.16
   2   5  -6 2043.50   48.84
   2   5  -6 2101.07   48.68
   2   5  -5 1640.26   40.44
   2   5  -5 1616.28   39.88
   2   5  -4 1658.40   39.30
   2   5  -4 1511.51   31.79
   2   5  -4 1637.85   38.72
   2   5  -3  371.32   14.95
   2   5  -3  343.32    9.67
   2   5  -3  368.58   14.66
   2   5  -3  355.24   13.93
   2   5  -2  951.22   26.23
   2   5  -2  890.31   24.65
   2   5  -1  512.12   17.77
   2   5  -1  492.89   16.56
   2   5   0   26.69    3.88
   2   5   0   29.01    3.98
   2   5   1   17.98    3.44
   2   5   1   10.21    2.53
   2   5   2   17.03    3.57
   2   5   2   13.69    3.01
   2   5   3  332.34   15.07
   2   5   3  364.66   15.94
   2   5   3  354.44   14.36
   2   5   4  510.44   19.75
   2   5   4  534.50   20.57
   2   5   4  520.11   18.74
   2   5   5   93.29    8.14
   2   5   5  103.17    8.12
   2   5   6 1119.96   33.57
   2   5   6 1145.48   33.02
   2   5   7 1758.63   46.21
   2   5   7 1692.79   44.99
   2   5   8  463.33   20.73
   2   5   8  458.79   20.55
   2   5   9  525.34   22.86
   2   5  10  218.32   14.72
   2   5  11  199.54   14.40
   2   5  11  180.03   15.00
   2   5  12  334.19   19.53
   2   5  12  339.64   21.39
   2   5  13  288.23   18.54
   2   6 -15   49.77    8.94
   2   6 -14   75.15   10.09
   2   6 -13   55.80    8.61
   2   6 -12    6.27    4.17
   2   6 -11   47.40    7.28
   2   6 -10  102.50    9.65
   2   6  -9   81.75    8.45
   2   6  -8   79.99    8.00
   2   6  -7  611.61   23.20
   2   6  -7  667.47   23.36
   2   6  -6  758.13   25.65
   2   6  -6  782.77   25.46
   2   6  -5 1618.93   42.17
   2   6  -5 1674.46   34.10
   2   6  -5 1675.27   41.88
   2   6  -4  358.87   15.96
   2   6  -4  365.67    9.89
   2   6  -4  369.06   15.77
   2   6  -4  338.56   14.92
   2   6  -3 1109.38   31.00
   2   6  -3 1107.01   30.20
   2   6  -2  133.05    9.10
   2   6  -2  140.76    8.95
   2   6  -1   14.13    3.10
   2   6  -1   11.44    2.95
   2   6   0  260.33   13.21
   2   6   0  274.94   12.57
   2   6   1  594.39   21.33
   2   6   1  539.65   19.05
   2   6   2  373.10   16.71
   2   6   2  330.95   14.58
   2   6   3  353.22   16.59
   2   6   3  306.19   14.36
   2   6   4   82.26    7.94
   2   6   4   63.20    6.53
   2   6   5   27.41    4.81
   2   6   5   14.56    3.53
   2   6   6   33.83    5.37
   2   6   6   28.51    4.66
   2   6   7  351.25   17.99
   2   6   7  374.22   18.34
   2   6   8  195.19   13.54
   2   6   8  181.52   13.27
   2   6   9  114.18   10.61
   2   6  10  285.54   17.47
   2   6  11  273.63   17.56
   2   6  11  261.96   18.73
   2   6  12  161.33   13.76
   2   7 -14   47.21    8.46
   2   7 -13    1.95    3.21
   2   7 -12  148.43   13.15
   2   7 -11   -2.21    3.58
   2   7 -10   91.63    9.73
   2   7  -9   51.02    7.14
   2   7  -8   41.37    6.51
   2   7  -7   45.61    6.31
   2   7  -6   51.19    6.55
   2   7  -6   53.64    3.89
   2   7  -6   53.40    6.34
   2   7  -6   49.53    6.18
   2   7  -5  170.76   11.38
   2   7  -5  163.34    6.00
   2   7  -5  162.22   10.83
   2   7  -5  161.26   10.77
   2   7  -4  435.95   18.17
   2   7  -4  410.09   17.54
   2   7  -3  981.10   19.65
   2   7  -3 1066.32   30.76
   2   7  -3  991.43   29.54
   2   7  -2  997.91   29.90
   2   7  -2  914.24   28.30
   2   7  -1   48.39    5.88
   2   7  -1   54.38    5.93
   2   7   0  389.27   17.54
   2   7   0  386.05   16.42
   2   7   1  386.04   16.61
   2   7   2  193.88   11.54
   2   7   3  281.12   14.58
   2   7   4    3.06    2.94
   2   7   4    5.10    2.94
   2   7   5   -1.99    2.79
   2   7   5    0.16    2.15
   2   7   6  125.24   10.75
   2   7   6  152.44   11.52
   2   7   7   -0.98    2.83
   2   7   7   -0.72    3.74
   2   7   8   24.18    5.28
   2   7   8   18.17    4.57
   2   7   9   43.65    7.15
   2   7   9   58.46    7.94
   2   7  10   57.16    7.93
   2   7  11   81.01    9.95
   2   8 -14  307.18   20.94
   2   8 -13   74.33   10.04
   2   8 -12  558.89   27.03
   2   8 -11  147.88   13.12
   2   8 -10  212.66   15.32
   2   8  -9  404.31   20.87
   2   8  -8   44.68    6.95
   2   8  -7    3.69    1.41
   2   8  -7    0.52    3.21
   2   8  -7    1.35    2.34
   2   8  -6  248.43    7.72
   2   8  -6  245.59   14.80
   2   8  -6  243.89   14.53
   2   8  -5  212.53   13.52
   2   8  -5  233.25   13.79
   2   8  -4  538.58   13.62
   2   8  -4  551.77   21.76
   2   8  -3  192.22   12.07
   2   8  -2  279.13   14.70
   2   8  -1 1023.41   31.37
   2   8   0  376.35   17.30
   2   8   1 1398.60   39.03
   2   8   2 1397.09   39.57
   2   8   3  827.37   28.77
   2   8   4  390.70   19.52
   2   8   4  364.26   18.33
   2   8   5  592.38   25.09
   2   8   5  591.28   24.62
   2   8   6  109.14   10.56
   2   8   6  112.53   10.55
   2   8   7  167.34   13.20
   2   8   7  143.40   12.32
   2   8   8    5.49    3.87
   2   8   8    3.53    2.89
   2   8   9   76.68    9.53
   2   8   9   98.62   10.88
   2   8  10   -2.34    3.48
   2   8  11   10.74    4.98
   2   9 -13  231.97   17.95
   2   9 -12  222.66   17.13
   2   9 -11  564.73   27.36
   2   9 -10  676.08   29.52
   2   9  -9  304.92   12.18
   2   9  -9  320.09   19.10
   2   9  -9  309.06   18.45
   2   9  -8  222.50    8.76
   2   9  -8  219.38   15.36
   2   9  -8  182.82   14.06
   2   9  -7  667.02   14.98
   2   9  -7  614.91   26.61
   2   9  -7  657.45   26.83
   2   9  -6   21.06    3.04
   2   9  -6   26.05    5.73
   2   9  -6   14.28    4.33
   2   9  -5    8.35    1.79
   2   9  -5    4.83    3.19
   2   9  -4   31.99    2.29
   2   9  -4   33.10    5.50
   2   9  -3  201.97   13.19
   2   9  -2  159.75   11.83
   2   9  -1  105.76    9.54
   2   9   0  831.21   29.21
   2   9   1  102.65    9.69
   2   9   2  601.94   24.59
   2   9   3  305.28   17.12
   2   9   4  275.58   17.18
   2   9   4  319.32   17.92
   2   9   5  928.70   33.96
   2   9   5  898.20   33.21
   2   9   6  692.54   29.25
   2   9   6  711.98   29.45
   2   9   7  183.80   14.48
   2   9   7  189.10   14.91
   2   9   8  253.55   17.43
   2   9   8  260.62   18.02
   2   9   9   29.80    5.83
   2   9   9   38.93    7.42
   2   9  10   14.65    5.43
   2  10 -13  160.16   15.35
   2  10 -12  221.33   17.66
   2  10 -11  209.04   16.75
   2  10 -11  215.57   16.89
   2  10 -10  377.62   22.26
   2  10 -10  390.47   22.52
   2  10  -9  232.46   16.87
   2  10  -9  217.13   16.18
   2  10  -8  188.64   10.83
   2  10  -8  173.51   14.31
   2  10  -8  197.02   15.09
   2  10  -7  903.52   25.42
   2  10  -7 1022.20   36.02
   2  10  -7  928.21   34.31
   2  10  -6  757.49   20.32
   2  10  -6  699.48   28.87
   2  10  -5  320.31   10.06
   2  10  -5  336.86   18.80
   2  10  -4  144.24   11.99
   2  10  -3   14.13    4.58
   2  10  -2   33.32    5.91
   2  10  -1  160.52   12.55
   2  10   0    6.77    3.47
   2  10   1  304.54   17.62
   2  10   2    0.78    2.50
   2  10   3  322.20   18.72
   2  10   4  270.55   17.78
   2  10   4  249.98   16.78
   2  10   5  204.17   15.63
   2  10   5  254.91   17.37
   2  10   6  419.65   22.92
   2  10   6  407.42   22.67
   2  10   7  436.40   23.64
   2  10   7  398.69   22.94
   2  10   8  189.08   15.59
   2  10   8  193.99   16.16
   2  10   9   28.78    6.65
   2  11 -12  196.17   17.21
   2  11 -11   59.67    9.63
   2  11 -11   59.80    9.55
   2  11 -10  210.65   17.10
   2  11 -10  230.84   17.71
   2  11  -9  239.34   17.81
   2  11  -9  271.49   18.78
   2  11  -8  219.31   16.80
   2  11  -8  224.02   16.70
   2  11  -7  387.23   21.75
   2  11  -6  620.99   27.96
   2  11  -5  751.12   30.73
   2  11  -4   70.71    8.97
   2  11  -3  183.73   14.33
   2  11  -2  230.68   15.90
   2  11  -1  182.11   14.17
   2  11   0   39.12    7.69
   2  11   1   86.40    9.89
   2  11   2   12.30    4.96
   2  11   3   11.35    4.23
   2  11   4    4.47    3.42
   2  11   4    6.12    4.26
   2  11   5  122.02   12.44
   2  11   5  106.45   11.73
   2  11   6   49.92    8.39
   2  11   6   54.62    8.65
   2  11   7  206.70   16.72
   2  11   7  229.35   17.95
   2  12 -10   13.65    5.93
   2  12 -10   11.08    5.30
   2  12  -9   89.25   11.59
   2  12  -8   94.52   11.40
   2  12  -7  149.52   14.20
   2  12  -6  115.03   12.12
   2  12  -5  231.04   17.22
   2  12  -4  214.00   16.39
   2  12  -3  250.30   17.53
   2  12  -2  564.90   27.62
   2  12  -1  189.69   15.34
   2  12   0   33.21    6.84
   2  12   1  161.94   14.31
   2  12   2  194.53   15.79
   2  12   3   16.52    5.63
   2  12   4   86.46   11.05
   2  12   4   92.81   11.28
   2  12   5   11.51    5.35
   2  12   5    5.35    3.45
   2  13  -8    2.94    3.48
   2  13  -7  169.18   15.58
   2  13  -6  120.81   13.02
   2  13  -5  215.28   17.32
   2  13  -4  362.75   22.56
   2  13  -3  127.73   13.22
   2  13  -2  419.29   24.24
   2  13  -1  307.05   20.55
   2  13   0  383.19   23.10
   2  13   1  327.64   21.45
   2  13   2  685.53   32.41
   3 -15   0  109.87   12.36
   3 -15   1   29.25    7.01
   3 -15   2  138.50   13.27
   3 -15   3  251.11   17.70
   3 -15   4  302.13   19.22
   3 -15   5  442.06   24.16
   3 -15   6  414.30   24.00
   3 -14  -2   47.00    8.04
   3 -14  -1  128.14   12.97
   3 -14   0    0.71    3.23
   3 -14   1   22.31    6.11
   3 -14   2    6.50    3.73
   3 -14   3   67.17    8.83
   3 -14   3   88.67    9.63
   3 -14   4   18.61    5.42
   3 -14   4   17.84    4.84
   3 -14   5   19.13    5.15
   3 -14   5   14.82    5.04
   3 -14   6   55.72    7.99
   3 -14   6   46.74    7.90
   3 -14   7  153.87   14.68
   3 -13  -4   81.86   10.57
   3 -13  -3  238.05   17.61
   3 -13  -2  103.38   11.55
   3 -13  -1   90.06   10.45
   3 -13   0   78.79    9.49
   3 -13   1   78.09    9.27
   3 -13   1   86.32    8.34
   3 -13   2    1.86    3.34
   3 -13   2    6.14    3.42
   3 -13   3   24.89    5.34
   3 -13   3   27.39    5.36
   3 -13   4    2.95    2.45
   3 -13   4   -0.79    2.89
   3 -13   5   12.87    4.03
   3 -13   5    9.44    4.09
   3 -13   6   51.55    7.13
   3 -13   6   75.77    9.98
   3 -13   7  119.59   10.40
   3 -13   7  104.32   11.97
   3 -13   8  255.74   18.95
   3 -12  -6  211.20   17.33
   3 -12  -5  241.61   18.11
   3 -12  -4  418.46   23.42
   3 -12  -3  149.73   13.46
   3 -12  -3  155.53   11.02
   3 -12  -2  397.71   21.50
   3 -12  -2  374.20   17.26
   3 -12  -1  265.54   17.09
   3 -12  -1  288.97   13.54
   3 -12  -1  293.93   14.99
   3 -12   0   68.29    8.31
   3 -12   0   62.13    6.73
   3 -12   0   74.24    7.06
   3 -12   1  313.69   17.69
   3 -12   1  339.09   16.58
   3 -12   2   17.69    4.50
   3 -12   2   20.07    4.46
   3 -12   3   15.35    4.20
   3 -12   3   16.80    4.53
   3 -12   4  117.43   10.08
   3 -12   4  107.67   10.32
   3 -12   5   14.85    4.16
   3 -12   5   20.05    4.96
   3 -12   6    4.91    2.58
   3 -12   6    3.69    3.77
   3 -12   7  139.67   10.73
   3 -12   7  108.79   11.76
   3 -12   8  134.64   10.50
   3 -12   8  121.59   12.85
   3 -12   9  121.75   13.10
   3 -11  -9    4.39    4.03
   3 -11  -8    6.25    3.78
   3 -11  -7   21.40    6.06
   3 -11  -7   23.66    4.92
   3 -11  -6   56.28    8.96
   3 -11  -6   46.32    6.63
   3 -11  -5   78.10    9.81
   3 -11  -5   79.98    8.36
   3 -11  -4  275.26   17.95
   3 -11  -4  284.45   15.29
   3 -11  -3  591.82   26.33
   3 -11  -3  655.39   23.74
   3 -11  -2  375.24   19.83
   3 -11  -2  405.03   17.74
   3 -11  -1  252.58   13.95
   3 -11  -1  262.01   15.90
   3 -11  -1  257.02   12.38
   3 -11  -1  251.48   13.58
   3 -11   0  325.51   15.68
   3 -11   0  292.13   16.52
   3 -11   0  319.76   15.38
   3 -11   0  325.91   15.06
   3 -11   1  340.93   16.03
   3 -11   1  326.41   17.02
   3 -11   1  371.76   16.77
   3 -11   1  368.23   16.81
   3 -11   2  844.51   27.37
   3 -11   2  872.96   29.26
   3 -11   2  865.92   28.95
   3 -11   3   60.31    6.70
   3 -11   3   58.83    6.85
   3 -11   3   64.30    7.54
   3 -11   4  361.27   16.88
   3 -11   4  352.37   16.87
   3 -11   4  340.24   18.29
   3 -11   5   26.79    4.85
   3 -11   5   18.04    5.05
   3 -11   6  114.53    9.17
   3 -11   6   94.22   10.28
   3 -11   7   16.27    3.66
   3 -11   7   17.08    5.14
   3 -11   8   -1.20    1.77
   3 -11   8    4.58    3.87
   3 -11   9   72.62    7.38
   3 -11   9   82.32   10.59
   3 -11  10  291.62   20.29
   3 -10 -10   91.89   10.79
   3 -10  -9  101.23   10.98
   3 -10  -9  105.87   11.01
   3 -10  -8   98.69   10.32
   3 -10  -8   73.44    9.30
   3 -10  -7  118.94   12.39
   3 -10  -7  124.53   11.00
   3 -10  -6    3.50    3.91
   3 -10  -6   -0.27    2.88
   3 -10  -5   36.13    6.83
   3 -10  -5   45.36    6.32
   3 -10  -4    7.50    3.58
   3 -10  -4   10.64    3.37
   3 -10  -4    6.16    2.68
   3 -10  -3  684.65   24.56
   3 -10  -3  660.19   26.79
   3 -10  -3  664.09   22.72
   3 -10  -3  743.82   25.22
   3 -10  -2  253.24   13.50
   3 -10  -2  231.88   14.49
   3 -10  -2  261.56   13.76
   3 -10  -2  254.80   12.15
   3 -10  -2  251.08   11.16
   3 -10  -1   21.35    4.03
   3 -10  -1   19.38    4.43
   3 -10  -1   19.03    3.38
   3 -10  -1   25.87    4.22
   3 -10  -1   27.10    3.84
   3 -10   0  498.52   18.96
   3 -10   0  513.77   21.12
   3 -10   0  524.92   19.99
   3 -10   0  539.66   19.46
   3 -10   1  298.38   14.03
   3 -10   1  343.39   16.28
   3 -10   1  345.00   15.78
   3 -10   1  320.25   15.18
   3 -10   2  358.76   15.66
   3 -10   2  381.85   16.95
   3 -10   2  397.39   17.29
   3 -10   2  397.93   17.66
   3 -10   3 1024.58   29.95
   3 -10   3 1109.72   31.53
   3 -10   3 1031.74   32.86
   3 -10   4   94.62    7.83
   3 -10   4  109.27    8.47
   3 -10   4   95.72    9.04
   3 -10   5  727.72   24.91
   3 -10   5  761.02   24.60
   3 -10   5  749.77   28.39
   3 -10   6  333.95   15.02
   3 -10   6  311.32   18.12
   3 -10   7  387.98   16.55
   3 -10   7  370.91   20.51
   3 -10   8  110.56    8.52
   3 -10   8   92.32   10.23
   3 -10   9   16.67    3.53
   3 -10   9    8.31    4.54
   3 -10  10    9.88    2.89
   3 -10  10    1.38    3.38
   3 -10  11   33.04    6.98
   3  -9 -11   12.30    4.11
   3  -9 -10  319.24   19.40
   3  -9  -9  295.90   18.02
   3  -9  -9  325.43   19.24
   3  -9  -8   69.06    8.74
   3  -9  -8   64.70    8.11
   3  -9  -7  312.02   19.46
   3  -9  -7  330.67   17.96
   3  -9  -6  314.48   18.65
   3  -9  -6  328.84   17.30
   3  -9  -5  110.76   10.51
   3  -9  -5  127.49   10.00
   3  -9  -5  156.80   11.22
   3  -9  -4  462.39   21.22
   3  -9  -4  449.80   19.35
   3  -9  -4  452.70   18.82
   3  -9  -3  398.70   19.04
   3  -9  -3  429.84   18.09
   3  -9  -3  408.03   16.77
   3  -9  -2    2.50    2.42
   3  -9  -2    4.33    2.86
   3  -9  -2    4.14    2.10
   3  -9  -2    0.79    1.87
   3  -9  -2    2.87    1.79
   3  -9  -1  106.22    7.73
   3  -9  -1  100.13    8.63
   3  -9  -1  114.35    8.58
   3  -9  -1  114.61    7.56
   3  -9  -1  104.83    7.06
   3  -9   0   62.16    5.77
   3  -9   0   73.78    7.10
   3  -9   0   71.79    6.83
   3  -9   0   76.60    6.67
   3  -9   0   67.60    5.37
   3  -9   1  238.83   11.57
   3  -9   1  264.73   13.12
   3  -9   1  242.96   12.74
   3  -9   1  273.74   13.35
   3  -9   2    0.66    1.36
   3  -9   2    3.47    1.85
   3  -9   2    1.46    2.01
   3  -9   2    7.70    2.89
   3  -9   3   70.53    6.25
   3  -9   3   74.58    6.51
   3  -9   3   74.65    7.48
   3  -9   4    9.92    3.09
   3  -9   4    6.78    2.70
   3  -9   4    0.38    2.51
   3  -9   5  122.42    8.70
   3  -9   5  129.43    8.36
   3  -9   5  129.97   10.70
   3  -9   6  283.32   14.18
   3  -9   6  299.71   13.29
   3  -9   6  279.76   16.49
   3  -9   7  225.96   11.58
   3  -9   7  235.31   15.43
   3  -9   8  287.47   13.37
   3  -9   8  279.97   17.74
   3  -9   9  250.19   12.62
   3  -9   9  241.20   16.96
   3  -9  10  230.61   12.37
   3  -9  10  219.82   16.67
   3  -9  11   80.74   10.49
   3  -9  12    4.50    3.83
   3  -8 -12  239.11   17.69
   3  -8 -11  103.44   11.11
   3  -8 -10  118.93   11.33
   3  -8  -9  130.76   11.33
   3  -8  -8  197.93   13.31
   3  -8  -7  230.81   14.79
   3  -8  -6  617.61   25.90
   3  -8  -6  637.80   24.78
   3  -8  -5  336.73   17.81
   3  -8  -5  364.16   17.29
   3  -8  -4  115.22    9.66
   3  -8  -4  146.22   10.01
   3  -8  -4  120.43    9.30
   3  -8  -3  152.49   10.58
   3  -8  -3  124.81    9.22
   3  -8  -3  135.09    9.03
   3  -8  -2  453.92   16.47
   3  -8  -2  451.09   18.54
   3  -8  -2  469.37   15.33
   3  -8  -2  444.66   16.59
   3  -8  -2  474.87   18.18
   3  -8  -1   68.05    5.67
   3  -8  -1   77.68    6.00
   3  -8  -1   79.33    6.94
   3  -8  -1   85.79    6.34
   3  -8  -1   71.35    6.69
   3  -8   0  273.12   11.42
   3  -8   0  263.87   12.99
   3  -8   0  285.74   11.57
   3  -8   0  290.11   12.75
   3  -8   0  286.50   13.24
   3  -8   0  286.19   15.04
   3  -8   1   64.52    5.26
   3  -8   1   63.55    6.23
   3  -8   1   80.50    6.83
   3  -8   1   64.48    5.91
   3  -8   1   72.80    7.28
   3  -8   2   40.94    4.27
   3  -8   2   45.54    5.38
   3  -8   2   44.51    5.34
   3  -8   2   44.05    4.73
   3  -8   2   52.74    6.25
   3  -8   3   25.61    3.51
   3  -8   3   28.22    3.72
   3  -8   3   25.30    4.44
   3  -8   4   57.74    5.46
   3  -8   4   66.30    5.50
   3  -8   4   67.59    7.24
   3  -8   5 1814.30   43.76
   3  -8   5 1916.06   42.14
   3  -8   5 1886.26   49.03
   3  -8   6  191.84   11.12
   3  -8   6  199.97    9.86
   3  -8   6  197.60   13.20
   3  -8   7  298.05   14.76
   3  -8   7  283.73   12.30
   3  -8   7  294.03   16.96
   3  -8   8  520.41   17.75
   3  -8   8  473.28   22.81
   3  -8   9    9.90    2.60
   3  -8   9   15.78    4.81
   3  -8  10  174.78   10.31
   3  -8  10  183.30   14.81
   3  -8  11  320.99   14.86
   3  -8  11  284.48   19.29
   3  -8  12  248.24   18.25
   3  -8  13   48.22    8.20
   3  -7 -13   17.18    5.49
   3  -7 -12    3.03    3.61
   3  -7 -11   44.93    7.28
   3  -7 -10  212.64   14.78
   3  -7  -9    2.76    2.80
   3  -7  -8  135.81   10.60
   3  -7  -7 1263.23   36.06
   3  -7  -6  132.52   10.39
   3  -7  -6  129.71   10.90
   3  -7  -5 1953.87   48.60
   3  -7  -5 1843.37   48.65
   3  -7  -4  696.85   23.80
   3  -7  -4  651.82   23.71
   3  -7  -3   67.86    6.75
   3  -7  -3   61.21    5.95
   3  -7  -3   77.78    7.19
   3  -7  -3   73.88    7.49
   3  -7  -2  686.77   21.22
   3  -7  -2  649.52   21.89
   3  -7  -2  666.82   22.17
   3  -7  -2  701.87   24.52
   3  -7  -1  834.26   22.06
   3  -7  -1  839.50   22.95
   3  -7  -1  827.57   23.39
   3  -7  -1  803.56   24.76
   3  -7  -1  858.23   24.84
   3  -7  -1  890.05   27.74
   3  -7   0   26.92    3.06
   3  -7   0   30.17    3.84
   3  -7   0   20.04    3.53
   3  -7   0   25.82    3.37
   3  -7   0   18.59    3.30
   3  -7   0   20.33    4.09
   3  -7   1  217.47    9.11
   3  -7   1  221.27   11.38
   3  -7   1  207.24   10.76
   3  -7   1  220.12   10.06
   3  -7   1  203.44   11.58
   3  -7   2   20.39    2.79
   3  -7   2   19.50    3.86
   3  -7   2   18.48    3.55
   3  -7   2   21.28    3.19
   3  -7   2   19.44    3.65
   3  -7   3   77.93    5.58
   3  -7   3   78.47    5.42
   3  -7   3   69.67    6.80
   3  -7   4  267.73   11.54
   3  -7   4  283.62   10.83
   3  -7   4  268.25   14.02
   3  -7   5   76.15    6.22
   3  -7   5   80.06    5.47
   3  -7   5   67.39    7.40
   3  -7   6  425.39   16.91
   3  -7   6  477.05   15.10
   3  -7   6  440.11   19.83
   3  -7   7  372.32   16.30
   3  -7   7  376.69   13.53
   3  -7   7  383.89   18.97
   3  -7   8 1043.06   27.16
   3  -7   8 1027.73   34.93
   3  -7   9  423.84   15.78
   3  -7   9  410.01   21.10
   3  -7  10  630.70   20.97
   3  -7  10  624.71   27.68
   3  -7  11  612.54   21.34
   3  -7  11  579.25   27.31
   3  -7  12  614.99   22.20
   3  -7  12  582.40   28.25
   3  -7  13  190.87   16.17
   3  -6 -13   73.40    9.60
   3  -6 -12   52.72    8.14
   3  -6 -11   37.30    6.52
   3  -6 -10   -1.79    2.92
   3  -6  -9   20.91    4.61
   3  -6  -8  153.34   10.89
   3  -6  -7  435.22   17.94
   3  -6  -6   10.35    3.13
   3  -6  -5  870.89   28.12
   3  -6  -4  952.62   28.39
   3  -6  -4  915.22   28.01
   3  -6  -4  927.14   29.44
   3  -6  -3  589.31   19.99
   3  -6  -3  622.91   21.08
   3  -6  -3  591.17   20.35
   3  -6  -3  621.13   22.10
   3  -6  -2 1028.33   28.27
   3  -6  -2  956.56   26.55
   3  -6  -2  971.60   26.99
   3  -6  -2 1036.35   29.56
   3  -6  -1 1235.57   27.55
   3  -6  -1 1266.33   29.81
   3  -6  -1 1184.63   30.17
   3  -6  -1 1250.79   32.17
   3  -6  -1 1247.27   30.66
   3  -6  -1 1290.85   33.73
   3  -6   0  640.46   16.33
   3  -6   0  653.83   20.65
   3  -6   0  629.76   18.64
   3  -6   0  634.47   19.24
   3  -6   0  647.48   18.57
   3  -6   0  620.02   20.82
   3  -6   1  442.86   12.67
   3  -6   1  406.82   15.76
   3  -6   1  419.12   15.55
   3  -6   1  432.79   13.70
   3  -6   1  422.05   16.19
   3  -6   2  967.34   23.32
   3  -6   2 1000.67   27.87
   3  -6   2 1034.61   28.10
   3  -6   2 1036.21   23.86
   3  -6   2  972.41   27.51
   3  -6   3  106.72    6.17
   3  -6   3  114.74    5.87
   3  -6   3  103.22    7.78
   3  -6   3  115.74    8.36
   3  -6   4    2.44    1.45
   3  -6   4    2.64    1.34
   3  -6   4    0.42    2.30
   3  -6   5  108.94    7.20
   3  -6   5  116.28    6.01
   3  -6   5  112.75    8.97
   3  -6   6   26.11    2.95
   3  -6   6   27.68    5.18
   3  -6   6   21.02    3.42
   3  -6   7  400.22   16.70
   3  -6   7  395.40   13.31
   3  -6   7  397.04   18.83
   3  -6   8    8.39    2.13
   3  -6   8    3.38    3.08
   3  -6   8    2.77    2.19
   3  -6   9   13.55    2.69
   3  -6   9   15.18    4.10
   3  -6  10  964.04   27.16
   3  -6  10  937.40   34.19
   3  -6  11  317.62   14.47
   3  -6  11  308.28   18.88
   3  -6  12  157.54   10.46
   3  -6  12  158.09   13.91
   3  -6  13  475.27   25.22
   3  -6  14  361.89   22.44
   3  -5 -14  316.88   20.90
   3  -5 -13   52.77    8.39
   3  -5 -12  368.01   20.63
   3  -5 -11  355.36   19.26
   3  -5 -10  205.43   13.64
   3  -5  -9    2.13    2.25
   3  -5  -8   39.40    5.44
   3  -5  -7   -1.60    1.97
   3  -5  -6    4.68    2.25
   3  -5  -5    2.81    1.51
   3  -5  -5    2.00    2.22
   3  -5  -4   33.58    4.77
   3  -5  -4   26.31    4.33
   3  -5  -4   32.20    4.69
   3  -5  -3  602.78   19.98
   3  -5  -3  640.65   20.86
   3  -5  -3  615.83   19.77
   3  -5  -3  609.07   20.84
   3  -5  -2 2034.64   45.95
   3  -5  -2 1959.84   44.47
   3  -5  -2 1990.35   43.76
   3  -5  -2 2102.24   46.53
   3  -5  -1   44.30    3.06
   3  -5  -1   40.35    4.21
   3  -5  -1   41.86    4.67
   3  -5  -1   36.26    3.79
   3  -5  -1   44.14    4.09
   3  -5  -1   40.01    4.55
   3  -5   0 1708.60   33.78
   3  -5   0 1818.60   39.31
   3  -5   0 1846.58   40.91
   3  -5   0 1706.14   38.40
   3  -5   0 1782.11   36.87
   3  -5   0 1738.98   40.03
   3  -5   1  769.61   17.77
   3  -5   1  803.80   23.22
   3  -5   1  805.85   22.75
   3  -5   1  829.51   19.26
   3  -5   1  799.72   22.46
   3  -5   2  817.85   19.24
   3  -5   2  824.36   18.82
   3  -5   2  868.80   24.47
   3  -5   2  819.66   23.88
   3  -5   3  655.23   17.40
   3  -5   3  657.14   15.55
   3  -5   3  657.65   21.32
   3  -5   3  680.28   21.49
   3  -5   4  528.42   16.07
   3  -5   4  529.22   13.30
   3  -5   4  536.29   19.48
   3  -5   5  330.13   12.87
   3  -5   5  320.45    9.91
   3  -5   5  336.54   15.38
   3  -5   6  530.74   18.36
   3  -5   6  523.63   14.52
   3  -5   6  534.17   20.82
   3  -5   7  217.66   11.73
   3  -5   7  208.04    8.76
   3  -5   7  215.22   12.97
   3  -5   8    2.73    1.40
   3  -5   8    0.97    2.19
   3  -5   8    1.50    1.86
   3  -5   9   16.34    2.90
   3  -5   9   18.80    4.80
   3  -5  10  345.90   14.32
   3  -5  10  329.61   14.00
   3  -5  10  340.80   18.61
   3  -5  11  219.73   11.85
   3  -5  11  220.50   11.85
   3  -5  11  226.00   15.51
   3  -5  12   45.01    5.68
   3  -5  12   33.17    6.31
   3  -5  13   14.55    3.50
   3  -5  13   12.30    4.60
   3  -5  14  660.33   30.41
   3  -5  15   76.19   10.38
   3  -4 -14   32.75    6.70
   3  -4 -13  261.70   17.67
   3  -4 -12  307.21   18.39
   3  -4 -11  171.61   12.84
   3  -4 -10  129.92   10.59
   3  -4  -9  376.13   17.43
   3  -4  -8  211.48   12.00
   3  -4  -7  448.09   17.04
   3  -4  -6  553.90   18.23
   3  -4  -6  587.19   21.57
   3  -4  -5    2.82    1.77
   3  -4  -5    0.45    2.07
   3  -4  -4  581.76   16.34
   3  -4  -4  601.41   20.06
   3  -4  -3    2.63    2.66
   3  -4  -3    1.78    1.36
   3  -4  -3    3.33    2.13
   3  -4  -3    1.85    1.63
   3  -4  -2 1038.06   27.54
   3  -4  -2  947.70   25.98
   3  -4  -2 1040.28   25.15
   3  -4  -2 1049.61   26.80
   3  -4  -1   88.00    3.47
   3  -4  -1   86.08    6.03
   3  -4  -1   96.76    6.70
   3  -4  -1   88.07    5.18
   3  -4  -1   91.59    6.14
   3  -4   0  366.46    8.41
   3  -4   0  340.01   13.38
   3  -4   0  383.19   13.17
   3  -4   0  359.17   12.86
   3  -4   0  370.31   10.69
   3  -4   0  373.13   12.91
   3  -4   1  642.46   14.02
   3  -4   1  616.56   19.35
   3  -4   1  651.12   19.25
   3  -4   1  662.34   14.74
   3  -4   1  626.09   17.85
   3  -4   2   20.73    1.64
   3  -4   2   23.04    3.55
   3  -4   2   26.23    3.97
   3  -4   2   23.65    2.26
   3  -4   3  148.02    6.64
   3  -4   3  148.67    4.65
   3  -4   3  134.79    8.40
   3  -4   4 1071.49   26.07
   3  -4   4 1082.10   21.51
   3  -4   4 1096.62   29.77
   3  -4   5  720.91   21.25
   3  -4   5  773.50   17.09
   3  -4   5  734.97   24.00
   3  -4   6  572.68   19.25
   3  -4   6  577.70   14.98
   3  -4   6  556.39   20.83
   3  -4   7  457.96   17.78
   3  -4   7  436.86   13.63
   3  -4   7  452.49   13.76
   3  -4   7  456.66   19.12
   3  -4   8  209.65    9.44
   3  -4   8  215.55    9.57
   3  -4   8  214.93   13.18
   3  -4   9   92.10    6.55
   3  -4   9   88.96    6.48
   3  -4   9   92.86    8.88
   3  -4  10  192.22   10.47
   3  -4  10  194.48   10.52
   3  -4  10  205.08   13.82
   3  -4  11    7.29    2.68
   3  -4  11    8.80    2.93
   3  -4  11    5.51    2.91
   3  -4  12    9.79    3.06
   3  -4  12   10.56    4.29
   3  -4  13   33.86    5.44
   3  -4  13   33.74    6.64
   3  -4  14   16.17    5.24
   3  -4  15   94.86   11.30
   3  -3 -15   82.59   10.82
   3  -3 -14  111.39   11.89
   3  -3 -13   77.37    9.64
   3  -3 -12  358.08   19.59
   3  -3 -11  217.73   14.25
   3  -3 -10   14.43    3.60
   3  -3  -9  238.27   13.21
   3  -3  -8 1036.06   29.83
   3  -3  -7  743.54   22.72
   3  -3  -7  735.93   25.24
   3  -3  -6  286.14   11.82
   3  -3  -6  295.42   14.05
   3  -3  -5  769.90   20.60
   3  -3  -5  802.12   24.10
   3  -3  -4    7.49    1.85
   3  -3  -4    4.13    1.98
   3  -3  -3  875.51   24.64
   3  -3  -3  900.44   25.12
   3  -3  -3  896.70   19.49
   3  -3  -3  873.11   23.59
   3  -3  -2    7.75    2.48
   3  -3  -2    6.38    2.81
   3  -3  -2    7.25    1.05
   3  -3  -2    8.59    2.23
   3  -3  -1  164.75    8.34
   3  -3  -1  155.36    8.41
   3  -3  -1  183.30    7.82
   3  -3   0  217.85    9.85
   3  -3   0  212.97    9.30
   3  -3   0  219.03    9.48
   3  -3   0  205.94    8.14
   3  -3   1   32.69    4.84
   3  -3   1   30.56    4.05
   3  -3   1   33.16    3.06
   3  -3   2   39.82    4.45
   3  -3   2   42.69    4.57
   3  -3   3  336.89   13.48
   3  -3   4 2242.83   49.00
   3  -3   4 2195.25   39.32
   3  -3   4 2145.47   39.25
   3  -3   5 1419.03   36.62
   3  -3   5 1489.18   29.05
   3  -3   5 1444.69   28.98
   3  -3   6  623.85   21.51
   3  -3   6  596.05   15.52
   3  -3   6  591.83   15.52
   3  -3   7  226.97   12.62
   3  -3   7  237.90    9.38
   3  -3   7  215.97    9.06
   3  -3   8  323.02   16.03
   3  -3   8  335.52   12.67
   3  -3   8  354.48   12.90
   3  -3   9  319.03   16.26
   3  -3   9  285.91   12.56
   3  -3   9  313.01   12.96
   3  -3  10  337.79   17.64
   3  -3  10  349.74   14.94
   3  -3  10  362.36   15.02
   3  -3  11  353.43   18.69
   3  -3  11  358.94   16.13
   3  -3  11  358.32   15.94
   3  -3  12   54.38    7.74
   3  -3  12   51.69    6.33
   3  -3  13    8.27    3.56
   3  -3  13   12.30    3.78
   3  -3  14  120.19   11.94
   3  -3  15   13.62    5.06
   3  -2 -15   10.45    4.69
   3  -2 -14    4.22    3.57
   3  -2 -13    5.47    3.67
   3  -2 -12  164.52   12.96
   3  -2 -11   95.70    9.34
   3  -2 -10  378.13   17.90
   3  -2  -9   18.11    3.81
   3  -2  -8  985.91   28.64
   3  -2  -8 1013.99   31.06
   3  -2  -7 1412.74   35.18
   3  -2  -7 1473.98   38.36
   3  -2  -6  732.42   20.87
   3  -2  -6  736.39   23.31
   3  -2  -5  876.08   22.20
   3  -2  -5  909.22   25.09
   3  -2  -4 2257.79   44.43
   3  -2  -4 2300.76   48.21
   3  -2  -3   19.73    3.47
   3  -2  -3   16.97    1.94
   3  -2  -3   11.82    2.33
   3  -2  -2 2410.69   50.44
   3  -2  -2 2436.83   50.90
   3  -2  -2 2454.37   43.33
   3  -2  -2 2424.95   47.90
   3  -2  -1  209.05    9.36
   3  -2  -1  227.47    9.84
   3  -2  -1  224.67    7.74
   3  -2  -1  213.32    7.66
   3  -2   0  890.29   22.57
   3  -2   0  851.09   21.94
   3  -2   0  872.07   20.55
   3  -2   0  814.38   18.44
   3  -2   1    3.00    2.52
   3  -2   1    3.64    2.08
   3  -2   1    0.84    1.99
   3  -2   2  620.74   18.24
   3  -2   2  582.11   17.97
   3  -2   2  562.58   17.24
   3  -2   3   -0.34    2.08
   3  -2   3    3.48    2.39
   3  -2   4  184.38    9.83
   3  -2   4  184.80    5.74
   3  -2   4  175.04    5.73
   3  -2   4  182.69    9.83
   3  -2   5   98.29    7.39
   3  -2   5   95.98    4.67
   3  -2   5   99.64    4.83
   3  -2   5   93.06    7.30
   3  -2   6  937.27   27.32
   3  -2   6  924.65   21.98
   3  -2   6  897.01   22.03
   3  -2   6  972.10   28.32
   3  -2   7 1092.39   31.23
   3  -2   7 1091.04   26.28
   3  -2   7 1068.86   26.38
   3  -2   7 1078.87   31.89
   3  -2   8  753.72   25.31
   3  -2   8  730.66   21.25
   3  -2   8  723.66   21.28
   3  -2   8  754.00   26.09
   3  -2   9 1879.15   47.87
   3  -2   9 1857.05   43.20
   3  -2   9 1848.50   43.39
   3  -2   9 1860.01   49.01
   3  -2  10  738.20   26.67
   3  -2  10  713.39   23.31
   3  -2  10  702.26   23.34
   3  -2  11  500.04   22.18
   3  -2  11  538.26   20.54
   3  -2  11  479.03   19.67
   3  -2  12  336.90   18.42
   3  -2  12  330.36   16.67
   3  -2  13   64.81    8.34
   3  -2  13   57.89    7.30
   3  -2  14  136.58   11.51
   3  -2  14  149.94   12.98
   3  -2  15  272.45   18.08
   3  -1 -15  216.70   17.07
   3  -1 -14  392.69   22.27
   3  -1 -13   43.58    7.24
   3  -1 -12   14.43    4.89
   3  -1 -11    5.91    3.30
   3  -1 -10    2.32    2.59
   3  -1  -9  116.58    9.35
   3  -1  -8   21.22    3.78
   3  -1  -8   23.26    4.17
   3  -1  -7  125.52    8.09
   3  -1  -7  124.35    8.74
   3  -1  -6 1765.08   39.11
   3  -1  -6 1748.35   41.29
   3  -1  -6 1739.83   41.46
   3  -1  -5  807.95   20.74
   3  -1  -5  804.88   22.60
   3  -1  -5  801.67   22.69
   3  -1  -4  747.44   18.15
   3  -1  -4  721.67   19.91
   3  -1  -4  718.71   20.13
   3  -1  -3 4028.73   79.19
   3  -1  -3 4098.78   71.55
   3  -1  -3 4124.01   73.81
   3  -1  -3 4167.88   76.36
   3  -1  -3 4123.25   76.87
   3  -1  -2 1636.21   36.08
   3  -1  -2 1624.24   36.10
   3  -1  -2 1629.97   30.56
   3  -1  -2 1621.02   31.31
   3  -1  -2 1609.90   32.64
   3  -1  -2 1613.57   33.18
   3  -1  -1 2087.23   43.74
   3  -1  -1 2091.91   43.81
   3  -1  -1 2144.85   40.88
   3  -1  -1 2101.49   39.19
   3  -1  -1 2109.08   39.86
   3  -1   0  739.60   18.28
   3  -1   0  761.16   19.58
   3  -1   0  730.35   15.10
   3  -1   0  709.46   14.49
   3  -1   1  499.37   15.06
   3  -1   1  512.88   10.55
   3  -1   1  505.44   15.42
   3  -1   2  688.63   19.44
   3  -1   2  682.64   13.80
   3  -1   2  700.61   19.67
   3  -1   2  696.60   19.51
   3  -1   3   22.53    3.65
   3  -1   3   26.18    3.59
   3  -1   3   26.45    2.04
   3  -1   4   18.84    3.61
   3  -1   4   15.34    3.21
   3  -1   4   13.45    1.83
   3  -1   4   17.41    2.00
   3  -1   5   28.15    4.28
   3  -1   5   18.44    3.30
   3  -1   5   19.23    2.40
   3  -1   5   19.54    2.34
   3  -1   6    2.07    2.07
   3  -1   6    3.13    2.29
   3  -1   6    3.60    1.45
   3  -1   6    4.67    1.53
   3  -1   7  637.72   21.55
   3  -1   7  594.10   18.54
   3  -1   7  635.95   22.65
   3  -1   7  632.40   18.79
   3  -1   8   -0.40    2.40
   3  -1   8    0.25    1.86
   3  -1   8   -0.37    1.80
   3  -1   8    0.29    1.69
   3  -1   9  342.52   16.31
   3  -1   9  360.05   15.22
   3  -1   9  341.84   14.85
   3  -1   9  362.56   17.81
   3  -1  10  517.76   21.35
   3  -1  10  538.83   20.42
   3  -1  10  518.71   22.80
   3  -1  10  541.49   20.34
   3  -1  11  281.79   15.60
   3  -1  11  250.65   16.06
   3  -1  11  282.18   14.88
   3  -1  12  156.94   11.66
   3  -1  12  159.04   12.08
   3  -1  13  658.95   26.60
   3  -1  13  695.97   27.56
   3  -1  14  136.66   11.87
   3  -1  14  156.11   12.79
   3   0 -15  250.91   18.28
   3   0 -14  289.58   18.84
   3   0 -13  150.08   12.70
   3   0 -12  294.82   17.21
   3   0 -11  112.29    9.93
   3   0 -11  121.06    5.96
   3   0 -10   79.81    7.85
   3   0 -10   71.58    4.21
   3   0  -9   24.42    4.44
   3   0  -9   27.57    2.39
   3   0  -8  233.72    7.13
   3   0  -8  227.89   11.90
   3   0  -8  247.79   13.15
   3   0  -8  231.90   12.79
   3   0  -7    5.02    0.95
   3   0  -7    4.97    2.44
   3   0  -7    3.38    1.78
   3   0  -7    4.85    2.44
   3   0  -6  136.21    7.80
   3   0  -6  130.98    8.28
   3   0  -6  141.97    8.71
   3   0  -5  186.84    8.54
   3   0  -5  177.49    8.83
   3   0  -5  174.82    9.03
   3   0  -4   69.80    4.68
   3   0  -4   69.42    5.01
   3   0  -4   74.73    5.49
   3   0  -3 3775.52   67.27
   3   0  -3 3750.43   69.01
   3   0  -3 3734.31   72.83
   3   0  -3 3763.83   71.07
   3   0  -3 3792.64   69.71
   3   0  -2 5682.45   99.95
   3   0  -2 5783.80  100.11
   3   0  -2 5794.38  104.23
   3   0  -2 5312.60  103.16
   3   0  -2 5622.40  101.35
   3   0  -2 5689.43   99.53
   3   0  -1  181.61    7.32
   3   0  -1  184.89    8.38
   3   0  -1  197.09    8.44
   3   0  -1  191.38    6.87
   3   0  -1  187.06    5.37
   3   0   0 1429.10   31.04
   3   0   0 1417.93   28.27
   3   0   0 1452.22   31.18
   3   0   1 1003.49   24.33
   3   0   1  957.72   20.38
   3   0   1  995.05   23.61
   3   0   2 1611.07   35.22
   3   0   2 1482.65   30.13
   3   0   3  687.28   20.32
   3   0   3  653.75   16.25
   3   0   4  863.37   24.79
   3   0   4  840.86   20.65
   3   0   4  866.85   23.63
   3   0   5   60.40    6.01
   3   0   5   51.31    5.04
   3   0   5   44.10    4.07
   3   0   6  162.14   10.26
   3   0   6  165.27    9.44
   3   0   6  165.81    8.58
   3   0   6  166.77    8.41
   3   0   7   35.57    5.15
   3   0   7   42.74    5.07
   3   0   7   39.03    4.41
   3   0   7   45.25    4.69
   3   0   8  121.81    8.72
   3   0   8  108.70    7.94
   3   0   8  123.27    9.73
   3   0   8  119.06    8.13
   3   0   9  358.49   16.20
   3   0   9  356.66   15.95
   3   0   9  353.59   17.74
   3   0   9  356.74   15.78
   3   0  10  152.04   10.59
   3   0  10  149.76   10.63
   3   0  10  160.39   12.16
   3   0  10  159.66   10.74
   3   0  11  184.82   12.20
   3   0  11  176.53   13.26
   3   0  11  168.87   11.71
   3   0  12   33.13    5.59
   3   0  12   19.88    4.72
   3   0  12   32.99    5.73
   3   0  13    8.69    3.30
   3   0  13    4.64    3.69
   3   0  13    7.17    3.52
   3   0  14  536.91   25.31
   3   1 -15  562.25   28.12
   3   1 -14   72.13    9.40
   3   1 -13   10.13    3.79
   3   1 -12  368.14   19.54
   3   1 -12  379.93   13.25
   3   1 -11   11.92    3.82
   3   1 -11   15.18    2.42
   3   1 -10   75.91    7.88
   3   1 -10   87.40    5.26
   3   1  -9  827.33   26.75
   3   1  -9  819.83   19.98
   3   1  -8  160.84    9.99
   3   1  -8  165.18    6.79
   3   1  -8  171.87   10.84
   3   1  -7  101.66    7.49
   3   1  -7  102.61    7.86
   3   1  -6   99.51    6.94
   3   1  -6  106.34    7.55
   3   1  -5   31.74    3.87
   3   1  -5   29.94    3.90
   3   1  -4  722.82   19.36
   3   1  -4  726.24   20.31
   3   1  -4  756.53   21.07
   3   1  -3 1725.56   36.43
   3   1  -3 1767.65   37.43
   3   1  -3 1771.67   38.36
   3   1  -2  774.45   19.07
   3   1  -2  753.96   19.18
   3   1  -2  781.13   20.37
   3   1  -2  774.10   19.70
   3   1  -1  464.92   13.88
   3   1  -1  446.81   14.09
   3   1  -1  468.42   13.47
   3   1  -1  482.07   13.31
   3   1   0   77.86    5.54
   3   1   0   86.36    4.97
   3   1   0   74.02    4.50
   3   1   0   78.95    2.73
   3   1   1 1158.97   27.94
   3   1   1 1156.53   25.96
   3   1   1 1148.65   25.25
   3   1   1 1143.60   21.26
   3   1   2 1093.17   27.52
   3   1   2 1066.17   24.55
   3   1   3 1673.97   38.80
   3   1   3 1618.11   35.00
   3   1   4  431.30   16.31
   3   1   4  409.42   13.85
   3   1   5  875.01   26.31
   3   1   5  838.50   23.18
   3   1   6  456.02   18.27
   3   1   6  434.47   16.09
   3   1   7  312.19   15.46
   3   1   7  315.87   13.73
   3   1   7  331.50   14.28
   3   1   8   88.46    8.33
   3   1   8   91.26    7.32
   3   1   8   93.93    7.83
   3   1   8   84.77    7.27
   3   1   9   46.63    6.59
   3   1   9   47.64    5.67
   3   1   9   43.90    5.71
   3   1   9   42.32    5.62
   3   1  10    4.19    2.17
   3   1  10   11.15    3.54
   3   1  10    5.72    2.70
   3   1  11   -0.97    2.11
   3   1  11   -1.67    3.02
   3   1  11   -0.26    2.04
   3   1  12  156.20   10.94
   3   1  12  126.27   11.23
   3   1  12  109.68   11.11
   3   1  13   48.10    8.04
   3   1  13   34.71    6.40
   3   1  14  116.03   11.99
   3   1  14   94.47   10.70
   3   2 -15  135.85   13.29
   3   2 -14  343.67   20.68
   3   2 -13   97.13   10.32
   3   2 -12  453.39   22.06
   3   2 -12  488.77   16.53
   3   2 -11  351.18   18.09
   3   2 -11  356.11   13.27
   3   2 -10   85.94    8.34
   3   2 -10   91.73    6.06
   3   2  -9  628.64   23.00
   3   2  -8 1307.10   35.42
   3   2  -8 1358.77   36.54
   3   2  -7   56.22    5.87
   3   2  -7   67.09    6.34
   3   2  -6  790.57   23.21
   3   2  -6  800.70   23.90
   3   2  -5  681.70   20.27
   3   2  -5  707.40   21.07
   3   2  -4  711.99   19.98
   3   2  -4  680.54   20.20
   3   2  -4  717.16   20.10
   3   2  -3  740.24   20.16
   3   2  -3  718.51   19.72
   3   2  -3  755.31   20.51
   3   2  -2   64.95    4.77
   3   2  -2   56.76    4.24
   3   2  -2   64.61    4.91
   3   2  -1  505.88   13.43
   3   2  -1  482.71   14.78
   3   2  -1  495.60   12.41
   3   2   0   72.14    5.69
   3   2   0   67.03    4.11
   3   2   0   72.33    5.02
   3   2   0   66.77    3.49
   3   2   1   12.07    3.41
   3   2   1    9.86    2.17
   3   2   1   10.97    1.62
   3   2   2  378.42   14.50
   3   2   2  376.23   13.14
   3   2   2  387.32   10.79
   3   2   3   98.01    7.24
   3   2   3   98.72    6.48
   3   2   3   92.79    5.08
   3   2   4   76.36    6.82
   3   2   4   74.07    5.90
   3   2   4   76.08    5.05
   3   2   5  687.30   23.06
   3   2   5  677.54   21.29
   3   2   6  651.14   23.19
   3   2   6  661.97   21.88
   3   2   7  322.58   15.94
   3   2   7  312.87   14.75
   3   2   8  128.68   10.41
   3   2   8  133.10    9.84
   3   2   9 1095.47   35.53
   3   2   9 1148.99   34.58
   3   2  10   -2.25    3.69
   3   2  10    1.61    2.45
   3   2  11   66.99    8.55
   3   2  11   48.98    7.23
   3   2  12   46.43    7.53
   3   2  12   44.26    6.96
   3   2  13    6.54    3.69
   3   2  13   11.74    4.32
   3   2  14   -0.89    3.29
   3   2  14    3.02    3.26
   3   3 -15    4.92    5.08
   3   3 -14   28.73    6.35
   3   3 -13  280.62   17.85
   3   3 -12   95.64   10.05
   3   3 -12   91.27    7.08
   3   3 -11  360.75   18.54
   3   3 -11  338.07   13.94
   3   3 -10  928.17   30.86
   3   3  -9  106.66    8.99
   3   3  -8 1149.52   32.84
   3   3  -8 1146.07   33.23
   3   3  -7 1374.66   36.49
   3   3  -7 1467.82   37.56
   3   3  -6  231.09   11.56
   3   3  -6  225.29   11.67
   3   3  -5  619.26   19.89
   3   3  -5  618.42   20.23
   3   3  -5  627.13   18.97
   3   3  -4 1903.43   42.83
   3   3  -4 1913.71   43.22
   3   3  -4 1907.80   41.06
   3   3  -3  247.71   11.05
   3   3  -3  239.04    9.59
   3   3  -3  238.84   10.79
   3   3  -2   47.06    3.95
   3   3  -2   43.26    3.41
   3   3  -2   43.76    4.42
   3   3  -2   51.94    4.05
   3   3  -1  480.06   12.44
   3   3  -1  499.00   16.06
   3   3  -1  489.36   13.65
   3   3   0  506.76   12.64
   3   3   0  491.85   16.15
   3   3   0  486.01   13.50
   3   3   1   15.12    3.47
   3   3   1   12.20    2.61
   3   3   1    8.05    1.76
   3   3   2   68.39    6.38
   3   3   2   66.36    5.67
   3   3   2   76.40    4.78
   3   3   3  163.94    9.85
   3   3   3  166.78    9.37
   3   3   3  165.95    7.75
   3   3   4  132.74    9.36
   3   3   4  132.20    8.59
   3   3   4  124.18    7.13
   3   3   5  289.13   14.48
   3   3   5  303.77   14.00
   3   3   5  287.30   12.08
   3   3   6  771.08   26.32
   3   3   6  765.37   25.24
   3   3   7  466.09   20.36
   3   3   7  499.28   20.28
   3   3   8  612.53   24.44
   3   3   9  485.96   22.23
   3   3  10  275.81   16.80
   3   3  10  268.75   16.19
   3   3  11   77.07    9.33
   3   3  11   57.04    7.80
   3   3  12  247.43   17.04
   3   3  12  270.26   17.83
   3   3  13   42.89    7.75
   3   3  13   34.35    6.74
   3   3  14   45.20    8.33
   3   3  14   57.50    9.20
   3   4 -15   47.96    8.76
   3   4 -14   37.94    7.03
   3   4 -13    4.11    3.48
   3   4 -12  235.89   15.90
   3   4 -12  220.69   12.02
   3   4 -11   15.30    4.44
   3   4 -10  245.12   14.74
   3   4  -9  598.14   23.13
   3   4  -8   44.55    5.84
   3   4  -8   54.29    6.33
   3   4  -7 1039.57   30.63
   3   4  -7 1047.63   30.73
   3   4  -6 2204.30   51.04
   3   4  -6 2246.91   51.48
   3   4  -5  803.67   24.63
   3   4  -5  801.15   24.48
   3   4  -5  809.07   21.95
   3   4  -4 1897.80   43.45
   3   4  -4 1805.29   38.87
   3   4  -4 1789.47   42.72
   3   4  -3 3164.27   61.61
   3   4  -3 3259.89   66.46
   3   4  -2   85.33    4.23
   3   4  -2   83.54    6.57
   3   4  -2   82.88    5.75
   3   4  -1 2467.74   45.17
   3   4  -1 2524.24   53.41
   3   4  -1 2438.33   49.95
   3   4   0  209.53   10.51
   3   4   0  192.28    8.59
   3   4   1    2.94    1.73
   3   4   1    0.85    1.49
   3   4   2  196.14   11.25
   3   4   2  174.26   10.16
   3   4   2  194.56    8.95
   3   4   3    3.33    2.77
   3   4   3    1.15    1.71
   3   4   3    0.27    1.38
   3   4   4  144.34   10.08
   3   4   4  158.06   10.14
   3   4   4  143.78    8.37
   3   4   5   38.37    5.60
   3   4   5   43.00    5.70
   3   4   5   32.42    4.24
   3   4   6   77.10    7.97
   3   4   6   81.82    7.01
   3   4   7  844.51   29.60
   3   4   8  266.58   15.84
   3   4   9  153.73   12.45
   3   4  10  258.19   16.66
   3   4  11  408.32   21.87
   3   4  11  387.16   21.62
   3   4  12  193.82   15.35
   3   4  12  184.89   15.10
   3   4  13  271.46   19.25
   3   4  13  271.26   18.71
   3   5 -15  202.02   16.77
   3   5 -14   65.46    9.33
   3   5 -13   82.34    9.97
   3   5 -12   31.99    6.13
   3   5 -11    3.50    3.17
   3   5 -10   42.68    6.61
   3   5  -9  101.83    9.40
   3   5  -8  150.39   10.79
   3   5  -7   17.03    4.16
   3   5  -7   15.06    3.54
   3   5  -6  383.43   17.05
   3   5  -6  415.89   17.39
   3   5  -6  388.63   14.13
   3   5  -5 1384.61   37.05
   3   5  -5 1396.40   36.74
   3   5  -5 1380.47   31.74
   3   5  -4  295.37   14.01
   3   5  -4  279.27   10.33
   3   5  -4  295.96   13.80
   3   5  -3 3246.03   67.67
   3   5  -3 3121.90   64.85
   3   5  -2  374.72    9.26
   3   5  -2  366.74   15.34
   3   5  -2  375.34   14.09
   3   5  -1  287.06   13.35
   3   5  -1  261.30   11.33
   3   5   0  445.44   17.15
   3   5   0  406.05   14.75
   3   5   1  990.87   28.96
   3   5   1  960.55   25.75
   3   5   2  543.73   20.77
   3   5   2  558.78   20.65
   3   5   2  533.94   17.83
   3   5   3   58.57    6.78
   3   5   3   56.84    6.31
   3   5   3   54.36    5.26
   3   5   4  244.88   14.01
   3   5   4  249.62   13.92
   3   5   4  240.92   12.00
   3   5   5    9.46    3.67
   3   5   5   17.26    3.43
   3   5   6   19.20    4.45
   3   5   6   17.84    3.88
   3   5   7   48.25    6.92
   3   5   7   66.49    7.09
   3   5   8  393.85   20.21
   3   5   9  202.75   14.74
   3   5  10  107.84   11.25
   3   5  11  234.59   16.87
   3   5  11  263.23   18.14
   3   5  12   75.50    9.86
   3   5  12   77.19   10.12
   3   6 -15  308.13   21.32
   3   6 -14    2.56    3.33
   3   6 -13  186.24   15.29
   3   6 -12    7.53    4.02
   3   6 -11  530.28   24.57
   3   6 -10   19.23    4.93
   3   6  -9  186.65   13.08
   3   6  -8   -3.45    2.89
   3   6  -7   -2.71    2.77
   3   6  -7    1.22    1.56
   3   6  -6    9.16    3.35
   3   6  -6   10.74    2.21
   3   6  -6    7.50    2.96
   3   6  -5  185.75   11.81
   3   6  -5  165.76    7.76
   3   6  -5  181.32   11.32
   3   6  -5  195.61   11.20
   3   6  -4  832.16   20.53
   3   6  -4  865.58   27.35
   3   6  -4  852.73   25.86
   3   6  -3  285.46    8.20
   3   6  -3  287.34   14.28
   3   6  -3  289.58   13.30
   3   6  -2  712.16   23.97
   3   6  -2  689.98   22.01
   3   6  -1  191.56   11.52
   3   6  -1  188.84   10.34
   3   6   0  252.01   13.32
   3   6   0  228.41   11.46
   3   6   1  791.13   26.51
   3   6   1  775.44   23.76
   3   6   2 1398.44   38.13
   3   6   2 1227.93   33.45
   3   6   3   13.83    4.54
   3   6   3   16.00    3.48
   3   6   4  118.88   10.18
   3   6   4  136.88    9.50
   3   6   5  413.40   19.77
   3   6   5  387.93   17.40
   3   6   6   63.79    7.95
   3   6   6   85.18    8.07
   3   6   7   78.91    8.90
   3   6   7   91.42    8.66
   3   6   8   37.60    6.80
   3   6   8   24.40    5.18
   3   6   9   56.51    9.33
   3   6  10   70.87    9.28
   3   6  11   63.69    9.11
   3   6  12  350.29   21.70
   3   7 -14  168.95   15.25
   3   7 -13  618.11   29.46
   3   7 -12  276.41   18.38
   3   7 -11  706.82   29.66
   3   7 -10  273.66   17.04
   3   7  -9   32.07    5.87
   3   7  -8  535.09   18.11
   3   7  -8  517.52   22.90
   3   7  -7  206.70    9.57
   3   7  -7  203.82   13.57
   3   7  -6  444.60   13.93
   3   7  -6  431.46   19.89
   3   7  -6  427.75   19.00
   3   7  -5  411.74   12.41
   3   7  -5  432.36   19.49
   3   7  -5  397.47   17.66
   3   7  -4  318.03   15.29
   3   7  -3   26.59    4.54
   3   7  -2   17.26    3.78
   3   7  -1  392.02   16.63
   3   7   0  109.54    8.47
   3   7   1  215.56   12.00
   3   7   2  158.07   10.41
   3   7   3    1.93    2.81
   3   7   3    2.08    2.38
   3   7   4  123.39   10.93
   3   7   4  134.85   10.24
   3   7   5  394.15   20.14
   3   7   5  396.58   18.55
   3   7   6  624.20   26.59
   3   7   6  641.08   25.09
   3   7   7   -1.67    3.22
   3   7   7    2.06    2.34
   3   7   8  363.45   20.71
   3   7   8  330.24   19.06
   3   7   9   33.03    7.07
   3   7  10   32.40    6.51
   3   7  11    2.22    3.32
   3   8 -14  126.10   13.49
   3   8 -13  236.48   17.96
   3   8 -12  164.21   14.58
   3   8 -11  522.05   25.70
   3   8 -10  367.61   20.68
   3   8  -9  216.49   11.00
   3   8  -9  191.36   14.45
   3   8  -8  815.25   22.51
   3   8  -8  772.25   30.47
   3   8  -7  889.24   22.35
   3   8  -7  868.60   31.84
   3   8  -7  860.36   30.62
   3   8  -6   89.74    5.04
   3   8  -6  100.30    9.92
   3   8  -6   88.34    8.78
   3   8  -5  175.69   12.03
   3   8  -4  313.17    8.08
   3   8  -4  323.97   16.28
   3   8  -3   13.20    3.79
   3   8  -2  101.81    8.73
   3   8  -1    2.49    2.40
   3   8   0   30.31    5.02
   3   8   1   29.32    4.80
   3   8   2   71.73    7.59
   3   8   3  127.87   11.40
   3   8   3  132.55   10.54
   3   8   4  303.12   17.91
   3   8   4  304.79   16.62
   3   8   5  598.36   26.53
   3   8   5  573.87   24.21
   3   8   6  200.69   15.09
   3   8   6  184.65   13.49
   3   8   7  196.61   15.23
   3   8   7  187.00   13.94
   3   8   8  124.21   12.30
   3   8   8  123.82   11.76
   3   8   9   80.91   10.10
   3   8  10  212.73   16.80
   3   9 -13   -3.68    3.06
   3   9 -12  408.88   23.96
   3   9 -11  124.77   12.66
   3   9 -10  240.72   17.51
   3   9  -9  199.72   15.39
   3   9  -9  204.43   15.08
   3   9  -8  471.65   14.43
   3   9  -8  454.21   23.23
   3   9  -8  445.65   22.24
   3   9  -7  463.38   22.97
   3   9  -7  455.95   21.99
   3   9  -6 1139.64   36.99
   3   9  -5  505.13   12.90
   3   9  -5  515.37   22.63
   3   9  -4  525.85   22.73
   3   9  -3   76.45    8.20
   3   9  -2   54.62    6.98
   3   9  -1  115.43    9.98
   3   9   0   43.34    6.28
   3   9   1    6.26    2.91
   3   9   2   45.24    6.55
   3   9   3   62.69    8.70
   3   9   3   42.98    6.22
   3   9   4  126.64   12.04
   3   9   4  115.36   10.76
   3   9   5  174.25   14.45
   3   9   5  167.46   13.11
   3   9   6  418.39   23.08
   3   9   6  422.31   21.88
   3   9   7  359.31   21.76
   3   9   7  424.57   22.40
   3   9   8  418.51   24.04
   3   9   8  434.51   23.50
   3   9   9   97.32   11.51
   3   9   9   89.73   10.84
   3  10 -12   13.18    5.02
   3  10 -11    1.58    3.48
   3  10 -11    2.41    2.96
   3  10 -10   -1.02    3.41
   3  10 -10    4.00    3.59
   3  10  -9   33.38    6.63
   3  10  -9   33.42    6.97
   3  10  -8  104.28   11.56
   3  10  -8   93.34   10.58
   3  10  -7  153.36   12.95
   3  10  -6  295.32   17.82
   3  10  -5  685.68   28.01
   3  10  -4  211.85   14.74
   3  10  -3  279.42   16.90
   3  10  -2  888.07   31.96
   3  10  -1   38.24    6.38
   3  10   0  383.21   19.81
   3  10   1  170.89   13.11
   3  10   2    9.48    3.89
   3  10   3    8.11    4.45
   3  10   3    3.09    3.13
   3  10   4   13.80    5.77
   3  10   4    9.69    4.22
   3  10   5   82.61    9.94
   3  10   5   19.10    5.49
   3  10   6   10.75    5.28
   3  10   6   20.58    5.64
   3  10   7   94.91   11.28
   3  10   7   98.67   11.21
   3  10   8  121.79   12.73
   3  11 -11  141.44   14.41
   3  11 -11   98.75   12.64
   3  11 -10    8.25    4.15
   3  11 -10   -2.19    3.89
   3  11  -9    5.95    3.95
   3  11  -9    4.31    2.97
   3  11  -8   19.64    5.84
   3  11  -7   64.85    9.29
   3  11  -6    4.32    3.06
   3  11  -5   53.91    7.87
   3  11  -4  324.28   19.26
   3  11  -3  163.21   13.36
   3  11  -2  341.39   19.72
   3  11  -1  197.96   14.66
   3  11   0  118.65   11.43
   3  11   1  353.07   20.27
   3  11   2   61.44    8.45
   3  11   3  150.38   14.25
   3  11   3  107.87   11.33
   3  11   4   28.69    6.86
   3  11   4   24.79    5.98
   3  11   5   58.85    9.00
   3  11   5   55.24    8.47
   3  11   6   39.36    7.60
   3  12 -10   18.54    6.28
   3  12  -9   67.98    9.78
   3  12  -8  108.70   12.45
   3  12  -7  126.80   13.07
   3  12  -6    6.43    4.08
   3  12  -5    5.80    4.00
   3  12  -4   -1.57    3.89
   3  12  -3   80.05   10.14
   3  12  -2   59.80    9.15
   3  12  -1  143.68   13.26
   3  12   0  121.64   12.14
   3  12   1   94.31   10.88
   3  12   2   39.70    7.47
   3  12   3  242.61   17.80
   3  12   4   41.03    7.51
   3  13  -7  223.63   18.04
   3  13  -6    3.45    3.08
   3  13  -5    6.60    4.08
   3  13  -4   26.42    6.74
   3  13  -3   10.09    4.88
   3  13  -2   19.47    5.43
   3  13  -1    8.35    4.32
   3  13   0   56.84    9.40
   3  13   1   62.08    9.86
   3  13   2  143.64   14.38
   4 -15   0   15.69    5.24
   4 -15   1    4.80    3.96
   4 -15   4   15.23    5.48
   4 -15   5  169.41   15.08
   4 -14  -3  253.94   18.73
   4 -14  -2  307.72   20.35
   4 -14  -1  203.03   15.97
   4 -14   0  186.28   14.87
   4 -14   1   74.74    9.29
   4 -14   2    3.49    3.71
   4 -14   3    3.25    3.19
   4 -14   3   -0.10    3.72
   4 -14   4   72.26    9.55
   4 -14   5   16.47    5.14
   4 -14   6   24.29    6.27
   4 -13  -4  176.38   15.51
   4 -13  -3  107.14   11.66
   4 -13  -2  182.37   14.74
   4 -13  -1  332.78   19.84
   4 -13  -1  378.38   18.74
   4 -13   0  248.92   16.41
   4 -13   0  253.59   15.23
   4 -13   1  438.02   21.56
   4 -13   1  429.14   20.25
   4 -13   2  459.02   21.74
   4 -13   2  469.88   22.05
   4 -13   3  191.35   13.26
   4 -13   3  163.83   13.21
   4 -13   4  322.05   17.03
   4 -13   4  284.06   18.22
   4 -13   5  279.24   18.50
   4 -13   6  101.59   11.31
   4 -13   7    1.69    3.60
   4 -13   8   57.54    9.64
   4 -12  -6    2.41    3.22
   4 -12  -5    0.97    2.98
   4 -12  -5    2.66    2.64
   4 -12  -4  107.33   11.42
   4 -12  -4  122.14   10.71
   4 -12  -3  217.32   15.79
   4 -12  -3  221.60   14.34
   4 -12  -2   87.52    9.57
   4 -12  -2   92.95    9.22
   4 -12  -1  149.51   12.39
   4 -12  -1  180.75   11.18
   4 -12  -1  197.38   13.11
   4 -12   0  355.43   19.07
   4 -12   0  414.10   18.42
   4 -12   0  426.44   19.75
   4 -12   1  531.56   23.03
   4 -12   1  562.28   23.39
   4 -12   1  561.10   22.94
   4 -12   2  529.69   22.27
   4 -12   2  525.55   22.99
   4 -12   3  337.33   16.91
   4 -12   3  338.13   18.57
   4 -12   4  132.30   10.08
   4 -12   4  144.69   12.51
   4 -12   5  246.95   13.77
   4 -12   5  253.64   17.05
   4 -12   6  412.59   22.71
   4 -12   7  117.97   12.29
   4 -12   8  124.52   13.09
   4 -12   9  101.10   11.88
   4 -11  -8   87.67   10.34
   4 -11  -7   44.42    7.07
   4 -11  -6  192.27   15.71
   4 -11  -6  179.10   13.61
   4 -11  -5   14.94    5.23
   4 -11  -5   10.22    3.53
   4 -11  -4   67.23    8.81
   4 -11  -4   65.21    7.86
   4 -11  -3   51.23    7.55
   4 -11  -3   55.63    7.12
   4 -11  -2    0.28    2.83
   4 -11  -2    1.16    2.45
   4 -11  -1   65.23    7.70
   4 -11  -1   79.60    7.24
   4 -11  -1   76.58    8.25
   4 -11   0  199.85   13.06
   4 -11   0  206.25   12.36
   4 -11   0  210.92   13.34
   4 -11   1  605.39   23.15
   4 -11   1  556.40   23.01
   4 -11   1  572.60   22.75
   4 -11   2  644.98   23.56
   4 -11   2  652.73   25.31
   4 -11   2  615.58   24.73
   4 -11   3  150.50   10.34
   4 -11   3  143.06   11.64
   4 -11   4  506.50   19.56
   4 -11   4  491.40   22.96
   4 -11   5  449.43   17.89
   4 -11   5  413.60   21.52
   4 -11   6  472.98   18.35
   4 -11   6  479.49   24.11
   4 -11   7  845.69   34.11
   4 -11   8  350.32   21.51
   4 -11   9  190.00   16.24
   4 -11  10  247.11   19.05
   4 -10 -10   18.47    5.69
   4 -10  -9  174.75   13.49
   4 -10  -9  157.94   14.37
   4 -10  -8  109.65   10.28
   4 -10  -8  112.58   11.40
   4 -10  -7  133.59   10.71
   4 -10  -7  121.14   11.58
   4 -10  -6  216.99   16.04
   4 -10  -6  234.87   15.54
   4 -10  -5  188.83   14.17
   4 -10  -5  213.82   14.34
   4 -10  -4  162.92   12.80
   4 -10  -4  179.20   12.60
   4 -10  -3  137.11    9.24
   4 -10  -3  106.93   10.05
   4 -10  -3  115.37    9.84
   4 -10  -3  142.31   10.09
   4 -10  -2   40.61    4.84
   4 -10  -2   44.46    6.54
   4 -10  -2   43.08    6.02
   4 -10  -2   46.35    5.55
   4 -10  -1   51.60    5.33
   4 -10  -1   71.65    7.51
   4 -10  -1   64.61    6.34
   4 -10  -1   55.24    6.77
   4 -10  -1   72.70    6.57
   4 -10   0    5.65    1.97
   4 -10   0    9.75    3.20
   4 -10   0    6.85    2.67
   4 -10   0    8.83    3.20
   4 -10   1  145.77    8.64
   4 -10   1  135.74    9.65
   4 -10   1  143.42   10.80
   4 -10   1  137.22   10.17
   4 -10   2   78.53    6.42
   4 -10   2   73.72    6.90
   4 -10   2   94.03    8.86
   4 -10   2   80.92    8.10
   4 -10   3    0.01    1.82
   4 -10   3    3.52    2.19
   4 -10   3    1.05    2.28
   4 -10   4  204.40   11.08
   4 -10   4  218.77   11.32
   4 -10   4  225.76   14.59
   4 -10   5  723.58   23.94
   4 -10   5  732.65   22.73
   4 -10   5  760.60   29.35
   4 -10   6  290.44   14.71
   4 -10   6  330.99   13.74
   4 -10   6  307.77   18.37
   4 -10   7  160.69    9.23
   4 -10   7  161.16   13.82
   4 -10   8  650.70   29.54
   4 -10   9  285.16   19.45
   4 -10  10  395.95   23.73
   4  -9 -11  121.64   13.37
   4  -9 -11   98.30   11.11
   4  -9 -10   42.25    7.64
   4  -9 -10   44.06    7.32
   4  -9  -9    4.48    3.69
   4  -9  -9    4.82    3.13
   4  -9  -8  380.09   18.83
   4  -9  -8  416.05   22.57
   4  -9  -7  103.07    9.07
   4  -9  -7   98.26   10.38
   4  -9  -6   41.48    6.68
   4  -9  -5  395.98   20.34
   4  -9  -5  444.23   20.74
   4  -9  -4  346.44   17.99
   4  -9  -4  352.08   17.04
   4  -9  -4  367.90   18.24
   4  -9  -3  410.68   15.72
   4  -9  -3  377.30   18.18
   4  -9  -3  410.99   17.59
   4  -9  -3  357.37   17.76
   4  -9  -2  852.45   24.38
   4  -9  -2  853.12   28.32
   4  -9  -2  938.55   29.85
   4  -9  -2  875.55   27.04
   4  -9  -1  461.53   15.60
   4  -9  -1  455.54   18.64
   4  -9  -1  463.11   19.58
   4  -9  -1  473.69   17.88
   4  -9  -1  416.53   16.86
   4  -9   0  165.94    8.61
   4  -9   0  178.82   10.69
   4  -9   0  177.67   10.79
   4  -9   0  166.66   11.32
   4  -9   1   71.29    5.43
   4  -9   1   69.02    6.38
   4  -9   1   65.30    6.91
   4  -9   1   69.06    7.32
   4  -9   2   53.43    4.87
   4  -9   2   42.96    4.88
   4  -9   2   57.12    6.81
   4  -9   2   53.84    6.46
   4  -9   3  273.75   11.83
   4  -9   3  282.80   12.31
   4  -9   3  296.85   15.71
   4  -9   3  244.61   14.53
   4  -9   4  216.33   10.85
   4  -9   4  225.83   10.56
   4  -9   4  223.46   14.11
   4  -9   5    1.38    1.91
   4  -9   5    0.33    1.23
   4  -9   5   -1.75    2.87
   4  -9   6   94.07    7.76
   4  -9   6  105.86    6.84
   4  -9   6  102.98   10.23
   4  -9   7   20.65    3.13
   4  -9   7   13.63    4.17
   4  -9   7   14.52    3.58
   4  -9   8  182.79    9.31
   4  -9   8  178.61   14.46
   4  -9   9  331.74   20.54
   4  -9  10  238.86   17.81
   4  -9  11  382.26   23.28
   4  -8 -12   71.21    9.20
   4  -8 -11   -0.86    2.73
   4  -8 -10   14.15    3.85
   4  -8  -9   11.76    4.45
   4  -8  -9    8.22    2.82
   4  -8  -8   70.29    8.95
   4  -8  -8   67.73    7.32
   4  -8  -7  318.69   15.73
   4  -8  -7  321.15   18.46
   4  -8  -6  197.17   11.39
   4  -8  -6  212.89   14.15
   4  -8  -5  656.76   25.81
   4  -8  -5  698.87   26.38
   4  -8  -4  814.27   28.12
   4  -8  -4  793.87   27.08
   4  -8  -4  818.78   28.35
   4  -8  -3  148.01    8.32
   4  -8  -3  144.84   10.35
   4  -8  -3  145.59    9.99
   4  -8  -3  176.18   11.65
   4  -8  -2  520.24   16.20
   4  -8  -2  507.48   19.42
   4  -8  -2  503.22   19.03
   4  -8  -2  468.69   19.82
   4  -8  -1 1673.90   36.78
   4  -8  -1 1714.53   41.71
   4  -8  -1 1725.49   44.18
   4  -8  -1 1729.25   41.27
   4  -8  -1 1696.08   41.31
   4  -8   0  741.13   19.61
   4  -8   0  760.02   24.17
   4  -8   0  788.06   26.03
   4  -8   0  729.32   22.91
   4  -8   0  747.58   22.99
   4  -8   1 1065.83   25.23
   4  -8   1 1034.93   31.41
   4  -8   1 1033.47   30.51
   4  -8   1 1035.05   27.59
   4  -8   1 1039.74   31.99
   4  -8   2 1013.13   25.45
   4  -8   2 1091.66   32.37
   4  -8   2 1070.23   32.08
   4  -8   2 1085.46   27.49
   4  -8   2 1086.57   32.51
   4  -8   3  987.09   25.42
   4  -8   3 1018.43   25.55
   4  -8   3  971.49   31.05
   4  -8   3 1001.22   31.46
   4  -8   4  237.41   10.78
   4  -8   4  229.57    9.69
   4  -8   4  225.52   13.74
   4  -8   5  380.60   15.18
   4  -8   5  424.71   13.55
   4  -8   5  390.33   19.12
   4  -8   6  144.10    9.23
   4  -8   6  130.84    6.92
   4  -8   6  150.71   11.88
   4  -8   7  125.14    9.22
   4  -8   7  128.38    6.98
   4  -8   7  138.64   11.78
   4  -8   8  112.93    6.70
   4  -8   8  103.83   10.76
   4  -8   9    3.40    1.85
   4  -8   9    6.19    4.23
   4  -8  10   53.17    8.30
   4  -8  11   78.80   10.29
   4  -8  12  195.62   16.60
   4  -7 -13  116.92   12.15
   4  -7 -12   35.76    6.67
   4  -7 -11  120.68   11.28
   4  -7 -10   95.25    9.52
   4  -7  -9   47.63    6.39
   4  -7  -8   -1.23    2.38
   4  -7  -7   42.66    7.20
   4  -7  -7   30.40    4.56
   4  -7  -6  317.10   14.15
   4  -7  -6  345.89   18.19
   4  -7  -5   64.63    5.58
   4  -7  -5   56.57    6.94
   4  -7  -5   55.15    6.88
   4  -7  -4  115.95    9.06
   4  -7  -4  122.44    9.87
   4  -7  -4  119.38    9.25
   4  -7  -3  929.94   28.57
   4  -7  -3  982.52   30.38
   4  -7  -3  949.65   28.53
   4  -7  -2  908.63   22.53
   4  -7  -2  958.44   27.95
   4  -7  -2  912.45   28.91
   4  -7  -2  953.52   27.15
   4  -7  -2  983.08   30.32
   4  -7  -1  619.87   16.21
   4  -7  -1  650.41   21.23
   4  -7  -1  653.40   20.83
   4  -7  -1  615.19   22.36
   4  -7  -1  633.80   20.06
   4  -7  -1  643.93   23.01
   4  -7   0 2094.87   40.85
   4  -7   0 2075.18   47.90
   4  -7   0 2065.30   49.73
   4  -7   0 1957.52   46.48
   4  -7   0 2060.89   45.06
   4  -7   0 2143.50   50.11
   4  -7   1  548.75   14.45
   4  -7   1  520.48   20.12
   4  -7   1  520.35   19.41
   4  -7   1  531.94   16.38
   4  -7   1  506.33   19.59
   4  -7   2  236.99    8.98
   4  -7   2  231.42    9.39
   4  -7   2  242.81   13.10
   4  -7   2  224.12   12.50
   4  -7   3  267.90   10.39
   4  -7   3  272.38    9.79
   4  -7   3  282.09   14.55
   4  -7   3  267.88   14.22
   4  -7   4  244.36   10.49
   4  -7   4  233.61    8.64
   4  -7   4  224.01   13.43
   4  -7   5  429.20   15.72
   4  -7   5  448.77   12.76
   4  -7   5  433.13   19.82
   4  -7   6  789.79   24.40
   4  -7   6  836.59   19.83
   4  -7   6  788.73   29.02
   4  -7   7  117.94    8.78
   4  -7   7  119.10    6.12
   4  -7   7  124.03   10.93
   4  -7   8   50.29    4.13
   4  -7   8   50.76    7.52
   4  -7   9   29.88    3.38
   4  -7   9   32.41    6.47
   4  -7  10  290.86   18.73
   4  -7  11   85.39   10.46
   4  -7  12   37.75    7.23
   4  -7  13  167.85   15.55
   4  -6 -14  102.95   11.68
   4  -6 -13  384.51   22.03
   4  -6 -12  379.90   20.92
   4  -6 -11  113.42   10.64
   4  -6 -10  151.30   11.63
   4  -6  -9  114.39    9.44
   4  -6  -8   15.75    3.82
   4  -6  -7  482.72   18.24
   4  -6  -6   15.82    4.38
   4  -6  -6   14.32    3.11
   4  -6  -5    0.47    2.84
   4  -6  -5    2.14    1.55
   4  -6  -5   -1.23    1.99
   4  -6  -4    4.86    3.21
   4  -6  -4    0.73    1.12
   4  -6  -4    3.89    3.19
   4  -6  -4    3.88    2.28
   4  -6  -3  338.80   15.09
   4  -6  -3  277.65   14.62
   4  -6  -3  331.71   15.46
   4  -6  -2 1047.38   23.14
   4  -6  -2 1068.27   29.89
   4  -6  -2 1067.37   31.01
   4  -6  -2 1084.69   28.33
   4  -6  -2 1066.84   30.75
   4  -6  -1  293.26    8.39
   4  -6  -1  285.32   13.94
   4  -6  -1  281.19   12.88
   4  -6  -1  276.65   11.44
   4  -6  -1  297.11   13.75
   4  -6   0  763.45   16.49
   4  -6   0  741.59   24.32
   4  -6   0  769.57   23.39
   4  -6   0  730.46   22.63
   4  -6   0  753.61   20.09
   4  -6   0  756.37   23.52
   4  -6   1 2754.15   50.80
   4  -6   1 2704.96   59.58
   4  -6   1 2766.94   61.10
   4  -6   1 2776.13   53.39
   4  -6   1 2694.41   58.81
   4  -6   2  645.21   15.96
   4  -6   2  628.96   15.88
   4  -6   2  621.42   22.03
   4  -6   2  608.62   21.64
   4  -6   3  383.72   12.23
   4  -6   3  391.65   10.64
   4  -6   3  376.14   16.84
   4  -6   3  383.37   16.86
   4  -6   4 2047.14   43.26
   4  -6   4 2029.36   38.46
   4  -6   4 2055.10   50.44
   4  -6   5  288.30   12.10
   4  -6   5  287.93    8.31
   4  -6   5  287.36   15.33
   4  -6   6  296.05   13.44
   4  -6   6  330.24    9.53
   4  -6   6  332.13   17.07
   4  -6   7  797.45   25.66
   4  -6   7  836.21   19.43
   4  -6   7  774.99   29.06
   4  -6   8  124.98    9.54
   4  -6   8  129.30    6.45
   4  -6   8  136.24    6.62
   4  -6   8  136.63   11.65
   4  -6   9   16.71    2.69
   4  -6   9   12.99    2.35
   4  -6   9   21.88    5.02
   4  -6  10  169.83    8.77
   4  -6  10  165.44   13.78
   4  -6  11   27.56    6.21
   4  -6  12   -1.24    3.74
   4  -6  13   -1.88    3.70
   4  -5 -14   67.60    9.23
   4  -5 -13  118.67   11.79
   4  -5 -12  661.51   27.82
   4  -5 -11  383.79   19.60
   4  -5 -10  121.97   10.18
   4  -5  -9  790.21   26.77
   4  -5  -8  648.87   22.49
   4  -5  -7  154.49    9.33
   4  -5  -6  615.29   19.20
   4  -5  -5  205.42   12.54
   4  -5  -5  208.15   12.76
   4  -5  -5  208.05    9.23
   4  -5  -5  226.72   12.75
   4  -5  -4  319.60   15.50
   4  -5  -4  315.88   15.06
   4  -5  -4  321.89   10.76
   4  -5  -4  322.50   14.98
   4  -5  -3  211.84   11.62
   4  -5  -3  226.29   12.56
   4  -5  -3  233.47    7.75
   4  -5  -3  226.24   11.82
   4  -5  -2   56.38    5.73
   4  -5  -2   50.75    5.66
   4  -5  -2   47.22    2.62
   4  -5  -2   51.99    2.82
   4  -5  -2   51.28    5.22
   4  -5  -1  258.65   12.14
   4  -5  -1  255.95   12.75
   4  -5  -1  259.26   11.83
   4  -5   0  192.47   10.89
   4  -5   0  185.93   10.11
   4  -5   0  176.10    9.78
   4  -5   0  192.79    7.71
   4  -5   0  187.43    9.53
   4  -5   1   88.05    3.56
   4  -5   1   97.10    7.29
   4  -5   1   79.53    6.97
   4  -5   1   82.72    4.25
   4  -5   1   81.99    6.08
   4  -5   2  628.66   15.26
   4  -5   2  641.62   14.01
   4  -5   2  665.84   22.29
   4  -5   2  655.39   21.75
   4  -5   3  291.87   10.02
   4  -5   3  280.99    6.56
   4  -5   3  295.69   14.35
   4  -5   3  274.12   13.74
   4  -5   4  870.19   22.49
   4  -5   4  868.13   27.62
   4  -5   5 2263.29   47.66
   4  -5   5 2163.08   38.94
   4  -5   5 2175.40   38.88
   4  -5   5 2216.06   53.31
   4  -5   6  265.68    7.60
   4  -5   6  254.84    7.45
   4  -5   6  256.62   14.56
   4  -5   7  299.99    9.43
   4  -5   7  313.29    9.58
   4  -5   7  296.90   16.28
   4  -5   8 1006.92   23.71
   4  -5   8 1011.33   23.73
   4  -5   8 1005.58   33.92
   4  -5   9  701.96   19.38
   4  -5   9  682.82   19.19
   4  -5   9  684.66   27.89
   4  -5  10  253.29   11.15
   4  -5  10  254.65   16.62
   4  -5  11  367.55   14.76
   4  -5  11  373.02   21.17
   4  -5  12    8.27    3.87
   4  -5  13    4.82    3.51
   4  -5  14   58.06    9.13
   4  -4 -15   17.63    5.64
   4  -4 -14    4.73    3.95
   4  -4 -13   67.67    8.85
   4  -4 -12   24.43    5.31
   4  -4 -11  122.66   10.59
   4  -4 -10   20.54    4.33
   4  -4  -9   55.67    6.19
   4  -4  -8 1900.50   45.58
   4  -4  -7   57.72    5.55
   4  -4  -6  559.59   17.58
   4  -4  -6  568.39   21.52
   4  -4  -5  394.69   17.03
   4  -4  -5  339.16   11.92
   4  -4  -5  362.23   15.88
   4  -4  -4  884.92   27.48
   4  -4  -4  888.41   27.16
   4  -4  -4  859.59   20.28
   4  -4  -4  878.27   26.01
   4  -4  -3 1212.33   32.55
   4  -4  -3 1226.37   33.42
   4  -4  -3 1212.75   24.24
   4  -4  -3 1169.97   30.85
   4  -4  -2 1111.42   30.13
   4  -4  -2 1122.72   31.07
   4  -4  -2 1141.77   28.81
   4  -4  -1  361.45   14.51
   4  -4  -1  375.59   15.31
   4  -4  -1  361.35   13.22
   4  -4   0   13.37    2.86
   4  -4   0    8.72    2.93
   4  -4   0   11.25    2.34
   4  -4   1   83.45    6.98
   4  -4   1   77.25    6.45
   4  -4   1   68.26    4.91
   4  -4   2   76.20    6.61
   4  -4   2   70.31    6.44
   4  -4   3   79.76    7.12
   4  -4   3   77.83    6.95
   4  -4   4  130.68    9.41
   4  -4   5  206.71   12.25
   4  -4   6  437.62   10.74
   4  -4   6  423.51   10.67
   4  -4   6  443.24   19.02
   4  -4   7    1.33    0.91
   4  -4   7    1.60    1.05
   4  -4   7    0.46    2.75
   4  -4   8  350.75   11.71
   4  -4   8  340.08   11.60
   4  -4   8  355.33   18.12
   4  -4   9 1652.72   37.03
   4  -4   9 1627.16   36.92
   4  -4   9 1696.18   47.44
   4  -4  10  324.88   13.12
   4  -4  10  299.78   17.84
   4  -4  11  227.34   11.50
   4  -4  11  223.68   15.76
   4  -4  12  387.41   21.69
   4  -4  13  103.52   11.53
   4  -4  14   49.52    8.27
   4  -3 -15  118.67   12.67
   4  -3 -14   99.11   11.07
   4  -3 -13    2.29    2.97
   4  -3 -12   21.08    4.91
   4  -3 -11   -0.98    3.17
   4  -3 -10  183.40   12.08
   4  -3  -9   22.40    4.32
   4  -3  -8  500.92   18.51
   4  -3  -7  698.30   21.40
   4  -3  -7  725.19   25.08
   4  -3  -6  187.34    9.03
   4  -3  -6  208.43   11.59
   4  -3  -5 1054.46   30.76
   4  -3  -5 1035.25   24.53
   4  -3  -5 1014.30   28.90
   4  -3  -4 1024.72   29.71
   4  -3  -4 1026.79   29.50
   4  -3  -4 1000.23   22.32
   4  -3  -4 1014.03   27.39
   4  -3  -3 1387.01   35.45
   4  -3  -3 1422.42   36.13
   4  -3  -3 1399.55   26.94
   4  -3  -3 1358.65   32.82
   4  -3  -2 1328.14   33.43
   4  -3  -2 1197.67   33.00
   4  -3  -2 1359.23   30.59
   4  -3  -1 2561.97   55.53
   4  -3  -1 2664.80   56.35
   4  -3  -1 2592.92   51.47
   4  -3   0  873.77   24.79
   4  -3   0  847.83   24.30
   4  -3   0  837.00   20.40
   4  -3   1  932.90   26.36
   4  -3   1  952.73   24.94
   4  -3   1  922.59   21.38
   4  -3   2  888.60   25.95
   4  -3   2  901.98   26.12
   4  -3   2  922.28   25.41
   4  -3   3  803.91   24.52
   4  -3   3  798.90   24.68
   4  -3   3  741.03   23.41
   4  -3   4   69.75    6.74
   4  -3   4   65.20    6.54
   4  -3   5  213.45   12.18
   4  -3   5  209.43    5.83
   4  -3   5  211.11    5.77
   4  -3   5  216.65   12.27
   4  -3   6   24.65    4.57
   4  -3   6   21.34    3.82
   4  -3   6   25.12    2.27
   4  -3   6   21.04    2.08
   4  -3   7  150.80   10.84
   4  -3   7  142.98    6.65
   4  -3   7  157.15    6.90
   4  -3   7  157.85   11.33
   4  -3   8    3.27    2.98
   4  -3   8   -0.01    2.54
   4  -3   8    2.07    1.41
   4  -3   8    1.35    1.16
   4  -3   9  430.49   14.93
   4  -3   9  397.02   14.51
   4  -3   9  408.97   19.81
   4  -3  10  318.31   13.56
   4  -3  10  339.79   14.03
   4  -3  10  339.19   18.37
   4  -3  11  100.90    7.83
   4  -3  11  113.92   10.92
   4  -3  12  210.18   12.08
   4  -3  12  189.13   14.73
   4  -3  13  603.25   27.89
   4  -3  14   50.22    8.40
   4  -3  15  210.30   16.69
   4  -2 -15   56.21    8.91
   4  -2 -14  264.75   17.93
   4  -2 -13  214.53   15.34
   4  -2 -12   19.69    4.79
   4  -2 -11    4.34    2.67
   4  -2 -10   22.58    4.44
   4  -2  -9  270.94   13.75
   4  -2  -8    2.81    1.99
   4  -2  -7   11.22    2.54
   4  -2  -7   11.93    3.11
   4  -2  -6  615.83   18.13
   4  -2  -6  599.13   20.75
   4  -2  -5  143.62    9.69
   4  -2  -5  144.41    6.96
   4  -2  -5  131.83    8.26
   4  -2  -4  972.76   28.10
   4  -2  -4  951.36   21.67
   4  -2  -4  985.91   25.50
   4  -2  -3 3606.70   74.39
   4  -2  -3 3722.95   74.89
   4  -2  -3 3651.57   65.41
   4  -2  -3 3667.70   66.06
   4  -2  -3 3638.32   70.33
   4  -2  -3 3673.03   70.33
   4  -2  -2  974.62   27.16
   4  -2  -2 1014.98   27.57
   4  -2  -2 1016.25   22.65
   4  -2  -2 1017.66   23.53
   4  -2  -2  979.07   23.20
   4  -2  -1 2492.27   53.57
   4  -2  -1 2304.34   52.69
   4  -2  -1 2585.28   49.75
   4  -2  -1 2514.94   47.88
   4  -2  -1 2529.01   47.36
   4  -2   0 1568.03   36.77
   4  -2   0 1483.39   30.23
   4  -2   0 1617.30   34.70
   4  -2   0 1553.24   29.37
   4  -2   1  164.43    9.17
   4  -2   1  160.01    8.43
   4  -2   2   29.45    4.15
   4  -2   2   30.75    4.16
   4  -2   3  378.62   15.45
   4  -2   3  395.69   15.50
   4  -2   4  387.11   15.94
   4  -2   4  382.13    8.86
   4  -2   4  389.41    9.01
   4  -2   4  363.40   15.60
   4  -2   5  133.19    9.34
   4  -2   5  150.18    5.59
   4  -2   5  138.57    5.54
   4  -2   5  159.10   10.30
   4  -2   6  905.58   28.24
   4  -2   6  900.20   21.18
   4  -2   6  886.69   20.78
   4  -2   6  901.52   28.79
   4  -2   7    7.95    3.37
   4  -2   7   12.09    4.03
   4  -2   7   13.11    2.22
   4  -2   7   11.11    2.05
   4  -2   8   40.58    6.25
   4  -2   8   41.71    6.00
   4  -2   8   40.90    4.19
   4  -2   8   41.94    4.14
   4  -2   9   65.57    8.02
   4  -2   9   68.78    7.67
   4  -2   9   75.83    6.14
   4  -2   9   75.70    6.15
   4  -2  10  365.24   18.72
   4  -2  10  334.55   14.75
   4  -2  10  367.12   15.17
   4  -2  10  337.28   19.04
   4  -2  11  183.97   11.14
   4  -2  11  191.90   13.74
   4  -2  12   88.95    8.10
   4  -2  12   73.66    9.17
   4  -2  13  371.85   20.89
   4  -2  14  169.15   14.37
   4  -1 -15  639.14   30.01
   4  -1 -14  158.00   13.77
   4  -1 -13  367.82   20.19
   4  -1 -12  527.91   23.48
   4  -1 -11  105.76    9.61
   4  -1 -10   91.18    8.36
   4  -1  -9  263.94   13.59
   4  -1  -8   64.39    6.14
   4  -1  -8   79.48    7.60
   4  -1  -8   89.27    7.97
   4  -1  -7  109.95    7.37
   4  -1  -7  106.34    8.14
   4  -1  -7  114.35    8.54
   4  -1  -6   15.72    2.73
   4  -1  -6   16.79    3.42
   4  -1  -6   19.06    3.61
   4  -1  -5  227.21   11.90
   4  -1  -5  193.68    8.52
   4  -1  -5  196.80    5.03
   4  -1  -5  187.68    9.67
   4  -1  -5  193.70    9.95
   4  -1  -4  282.53   12.98
   4  -1  -4  262.18    7.53
   4  -1  -4  270.10    9.37
   4  -1  -4  264.74   10.70
   4  -1  -4  270.90   11.24
   4  -1  -3 2269.07   50.04
   4  -1  -3 2250.53   50.10
   4  -1  -3 2268.92   43.28
   4  -1  -3 2262.81   43.30
   4  -1  -3 2262.29   45.56
   4  -1  -3 2284.01   46.57
   4  -1  -2  819.78   24.29
   4  -1  -2  875.37   24.31
   4  -1  -2  860.22   20.45
   4  -1  -2  873.21   19.86
   4  -1  -2  862.12   20.85
   4  -1  -1  699.30   20.91
   4  -1  -1  651.80   20.13
   4  -1  -1  723.06   18.58
   4  -1  -1  690.96   15.31
   4  -1  -1  681.28   16.58
   4  -1   0 2015.01   41.72
   4  -1   0 1925.48   42.83
   4  -1   0 1962.95   36.85
   4  -1   0 1916.22   34.69
   4  -1   1 3885.16   75.49
   4  -1   1 3851.23   68.12
   4  -1   1 3877.92   76.01
   4  -1   2 1443.10   34.45
   4  -1   2 1386.98   26.62
   4  -1   2 1373.56   33.94
   4  -1   3 2754.52   58.46
   4  -1   3 2682.63   49.27
   4  -1   4  158.34    9.91
   4  -1   4  157.02    9.64
   4  -1   4  154.21    6.16
   4  -1   5  281.11   13.46
   4  -1   5  261.82    9.36
   4  -1   5  272.41   13.85
   4  -1   5  261.57    9.13
   4  -1   6   17.47    4.01
   4  -1   6   16.07    3.77
   4  -1   6   15.70    2.47
   4  -1   6   18.89    2.55
   4  -1   7  469.76   19.05
   4  -1   7  443.91   15.11
   4  -1   7  453.53   19.95
   4  -1   7  445.53   15.02
   4  -1   8    7.06    3.19
   4  -1   8    2.62    2.48
   4  -1   8    6.31    2.20
   4  -1   8    4.88    1.95
   4  -1   9   27.00    5.61
   4  -1   9   32.99    5.51
   4  -1   9   29.77    4.48
   4  -1   9   35.46    4.54
   4  -1  10    3.45    3.22
   4  -1  10   13.08    3.95
   4  -1  10    7.75    2.70
   4  -1  10    3.20    2.03
   4  -1  11   57.99    7.57
   4  -1  11   57.77    8.27
   4  -1  11   57.95    6.52
   4  -1  12   92.61   10.63
   4  -1  12  112.09    9.52
   4  -1  12  108.78   10.53
   4  -1  13  142.05   12.26
   4   0 -15  197.94   16.10
   4   0 -14  176.58   14.61
   4   0 -13  429.53   22.03
   4   0 -12  657.98   26.78
   4   0 -11 1119.63   34.97
   4   0 -11 1082.64   21.07
   4   0 -10  566.90   22.27
   4   0 -10  569.60   11.95
   4   0  -9 1133.96   32.49
   4   0  -9 1122.73   21.17
   4   0  -8  574.83   20.17
   4   0  -8  585.64   21.56
   4   0  -8  572.03   11.94
   4   0  -8  578.24   21.91
   4   0  -7  124.87    8.27
   4   0  -7  141.82    9.32
   4   0  -7  151.84    9.86
   4   0  -6  357.14    9.10
   4   0  -6  367.24   13.66
   4   0  -6  339.75   14.09
   4   0  -6  370.61   15.13
   4   0  -5  408.62   16.44
   4   0  -5  394.84   13.44
   4   0  -5  392.15   10.38
   4   0  -5  385.20   14.09
   4   0  -5  398.44   15.00
   4   0  -4  116.57    8.03
   4   0  -4  113.27    6.12
   4   0  -4  103.11    4.96
   4   0  -4  104.62    6.22
   4   0  -4  103.50    6.78
   4   0  -3   27.43    4.33
   4   0  -3   21.46    3.72
   4   0  -3   19.58    2.37
   4   0  -3   22.63    2.65
   4   0  -3   20.73    2.43
   4   0  -3   17.43    2.77
   4   0  -2   31.94    3.34
   4   0  -2   38.81    4.53
   4   0  -2   36.23    4.43
   4   0  -2   40.91    3.62
   4   0  -2   39.79    2.87
   4   0  -1  418.25   13.54
   4   0  -1  412.64   14.96
   4   0  -1  409.72   14.30
   4   0  -1  401.32   11.99
   4   0  -1  409.83    9.43
   4   0   0  876.65   23.17
   4   0   0  862.84   19.94
   4   0   0  895.89   23.47
   4   0   1  520.61   17.14
   4   0   1  508.72   13.40
   4   0   1  545.34   16.92
   4   0   2 2145.01   47.18
   4   0   2 2054.44   40.80
   4   0   2 2144.20   46.11
   4   0   3 1966.80   44.60
   4   0   3 1816.30   37.46
   4   0   4  232.70   12.32
   4   0   4  223.03    8.89
   4   0   5 2657.06   59.76
   4   0   5 2591.32   52.67
   4   0   6 1528.66   41.21
   4   0   6 1511.15   35.22
   4   0   7  208.59   12.02
   4   0   7  199.81   10.16
   4   0   7  196.37   12.82
   4   0   7  190.00    9.82
   4   0   8 2498.01   58.31
   4   0   8 2500.74   55.09
   4   0   8 2432.54   60.84
   4   0   8 2456.64   54.48
   4   0   9  117.49    9.45
   4   0   9  104.41    8.28
   4   0   9  100.41    8.02
   4   0   9   99.05    9.76
   4   0  10  152.44   11.29
   4   0  10  148.91   12.59
   4   0  10  145.27   10.24
   4   0  11  112.44   10.00
   4   0  11  127.82   12.03
   4   0  11  109.95    9.30
   4   0  12    3.23    4.33
   4   0  12    4.92    3.11
   4   0  13   56.83    8.85
   4   1 -15   -1.07    4.02
   4   1 -14   28.85    6.15
   4   1 -13  234.29   16.09
   4   1 -12   -2.12    3.41
   4   1 -11   36.29    3.09
   4   1 -11   20.98    4.75
   4   1 -10  243.08   13.82
   4   1 -10  213.91    7.93
   4   1  -9  361.68   16.53
   4   1  -9  373.77   10.96
   4   1  -8  466.50   18.16
   4   1  -8  495.59   19.31
   4   1  -8  471.40   19.62
   4   1  -7 1271.48   33.23
   4   1  -7 1310.70   35.25
   4   1  -6    1.33    2.08
   4   1  -6   -0.33    1.73
   4   1  -6    4.30    2.40
   4   1  -5  262.84   11.05
   4   1  -5  251.09   11.78
   4   1  -5  270.39   12.81
   4   1  -4 3172.61   62.38
   4   1  -4 3096.39   63.84
   4   1  -4 3208.50   65.64
   4   1  -3  147.45    7.22
   4   1  -3  149.92    7.56
   4   1  -3  138.91    7.65
   4   1  -3  170.57    9.12
   4   1  -3  158.77    8.57
   4   1  -2  151.27    7.69
   4   1  -2  152.16    7.61
   4   1  -2  153.67    8.56
   4   1  -2  147.12    8.06
   4   1  -1    5.39    2.29
   4   1  -1    3.11    1.59
   4   1  -1    8.07    2.42
   4   1   0    3.75    2.41
   4   1   0    6.53    1.82
   4   1   0    6.57    2.18
   4   1   1  227.70   10.98
   4   1   1  216.19    8.71
   4   1   1  226.89    9.86
   4   1   2   35.34    4.62
   4   1   2   28.32    3.11
   4   1   3  378.24   15.68
   4   1   3  357.06   12.48
   4   1   4  102.58    8.33
   4   1   4  103.58    6.57
   4   1   5  346.91   16.29
   4   1   5  358.33   13.66
   4   1   6  768.12   26.94
   4   1   6  801.01   23.65
   4   1   7   -1.26    2.71
   4   1   7    1.67    1.63
   4   1   8 1578.85   44.83
   4   1   8 1519.96   39.89
   4   1   8 1554.91   39.89
   4   1   9  784.00   26.34
   4   1   9  720.45   28.75
   4   1   9  757.07   25.65
   4   1  10  335.68   19.18
   4   1  10  307.57   16.05
   4   1  11  142.71   12.95
   4   1  11  167.24   12.09
   4   1  12  229.23   17.00
   4   1  12  240.26   15.35
   4   1  13    5.25    4.06
   4   1  13   15.48    4.95
   4   2 -15   24.43    5.93
   4   2 -14   89.79   10.65
   4   2 -13   27.18    5.54
   4   2 -12  173.78   13.26
   4   2 -11   57.12    7.35
   4   2 -11   47.26    4.24
   4   2 -10  398.10   18.75
   4   2 -10  414.31   13.55
   4   2  -9  289.32   14.89
   4   2  -8   67.19    6.69
   4   2  -8   62.87    6.97
   4   2  -7  547.23   19.38
   4   2  -7  522.91   20.04
   4   2  -6    7.68    2.93
   4   2  -6    8.83    2.59
   4   2  -6    7.07    2.58
   4   2  -5  924.75   25.62
   4   2  -5  949.51   26.73
   4   2  -5  944.03   26.78
   4   2  -4 2627.53   54.96
   4   2  -4 2658.57   55.91
   4   2  -4 2611.55   55.94
   4   2  -3 1089.53   27.62
   4   2  -3 1088.95   28.08
   4   2  -3 1099.55   27.29
   4   2  -3 1072.32   28.17
   4   2  -2  515.89   16.77
   4   2  -2  535.36   17.22
   4   2  -2  518.25   15.96
   4   2  -2  504.18   16.38
   4   2  -1  839.39   23.78
   4   2  -1  862.96   21.83
   4   2  -1  889.44   23.07
   4   2  -1  853.51   18.79
   4   2   0  184.18    9.85
   4   2   0  170.50    7.97
   4   2   0  186.33    8.78
   4   2   0  171.32    5.70
   4   2   1  127.47    8.52
   4   2   1  117.80    6.68
   4   2   1  121.39    7.08
   4   2   1  122.04    4.60
   4   2   2   12.46    2.98
   4   2   2   11.89    2.40
   4   2   2   14.03    1.66
   4   2   3  334.85   15.14
   4   2   3  316.68   12.85
   4   2   4   48.53    6.03
   4   2   4   42.73    4.63
   4   2   5   42.27    5.99
   4   2   5   43.87    5.05
   4   2   6    4.78    2.97
   4   2   6    0.18    1.44
   4   2   7  272.09   15.80
   4   2   7  286.70   14.27
   4   2   8  647.99   26.55
   4   2   8  692.39   24.65
   4   2   9   44.18    6.83
   4   2   9   49.43    6.49
   4   2  10  374.67   20.89
   4   2  10  382.58   18.91
   4   2  11  217.46   16.21
   4   2  11  242.04   15.42
   4   2  12   69.91    9.64
   4   2  12   65.58    8.44
   4   2  13  556.10   28.20
   4   2  13  523.40   25.43
   4   3 -15   33.35    7.09
   4   3 -14  182.27   15.21
   4   3 -13  241.90   16.87
   4   3 -12   70.37    8.57
   4   3 -12   65.05    5.71
   4   3 -11   -1.31    3.15
   4   3 -10   -3.05    2.93
   4   3  -9  506.02   20.86
   4   3  -8  125.77    9.44
   4   3  -7  649.07   22.70
   4   3  -7  708.58   24.06
   4   3  -7  700.70   23.28
   4   3  -6  701.44   22.79
   4   3  -6  694.46   23.31
   4   3  -6  696.30   22.42
   4   3  -5 2061.28   47.28
   4   3  -5 2031.54   47.63
   4   3  -5 2070.11   46.55
   4   3  -4 2133.84   48.26
   4   3  -4 2152.69   47.33
   4   3  -4 2166.89   48.59
   4   3  -3  253.08   11.22
   4   3  -3  259.20   10.48
   4   3  -3  245.04   11.68
   4   3  -2 3073.19   59.16
   4   3  -2 3003.16   62.72
   4   3  -2 3027.31   58.34
   4   3  -1  786.26   19.68
   4   3  -1  772.89   22.64
   4   3  -1  788.88   19.06
   4   3   0 1567.80   38.65
   4   3   0 1580.22   33.16
   4   3   0 1575.34   36.93
   4   3   0 1500.65   31.71
   4   3   1 1151.97   32.12
   4   3   1 1232.83   30.55
   4   3   1 1150.61   25.43
   4   3   2  114.88    8.76
   4   3   2  111.71    7.58
   4   3   2  118.68    5.86
   4   3   3   73.05    7.18
   4   3   3   69.72    6.16
   4   3   3   69.69    4.76
   4   3   4  336.95   16.31
   4   3   4  350.29   15.08
   4   3   4  342.31   12.29
   4   3   5    8.46    3.35
   4   3   5   10.58    2.80
   4   3   6   13.99    3.74
   4   3   6    9.44    2.92
   4   3   7    2.72    2.45
   4   3   8  267.61   16.48
   4   3   9   12.73    4.35
   4   3  10  145.41   12.99
   4   3  10  147.22   12.13
   4   3  11  323.36   20.21
   4   3  11  309.77   18.53
   4   3  12  217.60   16.88
   4   3  12  146.73   13.06
   4   3  13  378.48   22.15
   4   4 -15  396.39   23.58
   4   4 -14  120.57   12.64
   4   4 -13  172.97   14.24
   4   4 -12  552.42   25.39
   4   4 -11   40.47    6.48
   4   4 -10   81.24    8.45
   4   4  -9   16.07    3.99
   4   4  -8  217.54   13.01
   4   4  -7    0.77    1.77
   4   4  -7    1.34    2.42
   4   4  -7    0.76    2.36
   4   4  -6   69.46    6.81
   4   4  -6   73.99    7.10
   4   4  -6   67.98    6.05
   4   4  -5  732.67   23.93
   4   4  -5  716.53   23.66
   4   4  -5  682.35   21.24
   4   4  -4 1631.99   40.94
   4   4  -4 1621.79   37.85
   4   4  -4 1688.98   41.24
   4   4  -3  166.44    8.70
   4   4  -3  161.94    7.63
   4   4  -3  158.58    9.76
   4   4  -3  178.77    8.77
   4   4  -2 2772.16   53.71
   4   4  -2 2879.71   60.65
   4   4  -2 2764.13   55.95
   4   4  -1  498.62   13.64
   4   4  -1  526.37   18.61
   4   4  -1  499.34   15.28
   4   4   0 2075.82   49.85
   4   4   0 2177.16   48.79
   4   4   0 2099.86   43.63
   4   4   1 2829.03   62.90
   4   4   1 2851.45   60.92
   4   4   1 2761.44   55.31
   4   4   2 1092.14   32.28
   4   4   2 1057.08   30.29
   4   4   2 1067.89   26.11
   4   4   3  133.18   10.07
   4   4   3  136.34    9.46
   4   4   3  142.40    7.69
   4   4   4  383.00   18.19
   4   4   4  383.64   17.00
   4   4   4  374.44   14.04
   4   4   5  194.35   13.59
   4   4   5  147.03   10.54
   4   4   5  131.31    8.34
   4   4   6  106.42    9.94
   4   4   7   30.88    5.75
   4   4   8   21.58    5.46
   4   4   9   32.71    6.30
   4   4  10   23.76    6.35
   4   4  11   41.73    7.68
   4   4  11   49.29    7.78
   4   4  12  242.50   18.19
   4   4  12  235.03   17.17
   4   5 -15  164.09   15.27
   4   5 -14  455.06   24.94
   4   5 -13   80.79    9.98
   4   5 -12  861.57   33.28
   4   5 -11 1021.16   35.72
   4   5 -10   52.31    7.45
   4   5  -9  362.41   18.39
   4   5  -8  107.08    9.54
   4   5  -8   86.08    7.51
   4   5  -7   17.21    3.87
   4   5  -7   18.38    3.25
   4   5  -6  261.43   14.36
   4   5  -6  284.13   12.50
   4   5  -5   14.25    3.99
   4   5  -5   15.84    3.04
   4   5  -5   13.80    3.26
   4   5  -4   38.62    4.11
   4   5  -4   44.36    5.51
   4   5  -4   34.69    4.55
   4   5  -3  340.54   11.04
   4   5  -3  354.80   15.77
   4   5  -3  345.72   13.77
   4   5  -2  125.99    5.45
   4   5  -2  115.93    8.67
   4   5  -2  118.78    7.54
   4   5  -1 1072.52   22.44
   4   5  -1 1093.38   31.11
   4   5  -1 1042.95   27.28
   4   5   0  713.58   23.68
   4   5   0  656.48   19.79
   4   5   1 1224.29   35.68
   4   5   1 1287.69   34.95
   4   5   1 1189.22   30.12
   4   5   2  885.09   29.28
   4   5   2  920.87   28.50
   4   5   2  823.25   23.78
   4   5   3  746.50   26.98
   4   5   3  744.84   26.01
   4   5   3  737.63   22.26
   4   5   4  322.14   17.23
   4   5   4  303.64   13.45
   4   5   5 1650.62   47.08
   4   5   5 1687.99   41.48
   4   5   6  884.24   32.44
   4   5   6  916.52   28.06
   4   5   7  301.27   18.09
   4   5   8  385.34   21.29
   4   5   9   58.20   10.01
   4   5  10    2.19    3.81
   4   5  11   15.68    4.88
   4   5  11   13.16    5.28
   4   6 -14  122.21   12.97
   4   6 -13  105.54   11.69
   4   6 -12   63.51    8.97
   4   6 -11  192.17   14.55
   4   6 -10  149.71   12.57
   4   6  -9   57.22    6.32
   4   6  -9   57.61    7.62
   4   6  -8  448.74   17.60
   4   6  -8  451.54   20.97
   4   6  -7  500.36   17.93
   4   6  -7  523.11   22.30
   4   6  -6   31.35    4.05
   4   6  -6   28.58    5.13
   4   6  -5  331.99   12.82
   4   6  -5  328.85   15.14
   4   6  -4  638.97   17.18
   4   6  -4  626.26   21.60
   4   6  -3    0.55    0.85
   4   6  -3   -0.11    1.84
   4   6  -3    2.03    1.93
   4   6  -2    1.16    0.71
   4   6  -2    4.60    2.88
   4   6  -2    1.88    2.10
   4   6  -1   11.49    3.23
   4   6  -1   11.83    2.79
   4   6   0  347.36   14.37
   4   6   1   95.28    9.02
   4   6   1  104.90    7.57
   4   6   2    5.31    3.13
   4   6   2   11.97    3.25
   4   6   3  370.15   18.96
   4   6   3  365.94   15.53
   4   6   4  178.82   13.19
   4   6   4  170.27   10.58
   4   6   5  271.51   16.80
   4   6   5  257.95   13.66
   4   6   6  401.77   21.10
   4   6   6  378.24   17.55
   4   6   7  127.89   12.10
   4   6   7   87.93    8.47
   4   6   8  251.13   17.47
   4   6   9  681.59   30.74
   4   6  10  152.38   14.31
   4   7 -14   -1.53    3.05
   4   7 -13   59.16    8.89
   4   7 -12  440.57   23.98
   4   7 -11   93.80   10.59
   4   7 -10  341.61   16.31
   4   7 -10  333.59   19.65
   4   7  -9  126.99    9.09
   4   7  -9  131.24   11.77
   4   7  -8  239.15   11.93
   4   7  -8  244.25   15.72
   4   7  -7  181.06    9.56
   4   7  -7  153.66   12.30
   4   7  -6  226.82   10.33
   4   7  -6  237.20   14.93
   4   7  -6  226.56   13.46
   4   7  -5  276.56   14.48
   4   7  -4 1208.33   25.51
   4   7  -4 1104.95   33.17
   4   7  -3  120.63    3.75
   4   7  -3  134.01    9.49
   4   7  -2  422.21   17.50
   4   7  -1   27.39    4.59
   4   7   0   89.33    7.56
   4   7   1   23.68    4.14
   4   7   2   50.93    7.39
   4   7   2   29.12    4.53
   4   7   3   29.68    5.59
   4   7   3   22.04    3.91
   4   7   4  365.40   20.03
   4   7   4  371.69   17.26
   4   7   5   65.76    8.58
   4   7   5   70.05    7.54
   4   7   6   60.18    8.57
   4   7   6   71.93    7.88
   4   7   7  184.83   15.23
   4   7   7  211.85   13.90
   4   7   8  120.56   12.49
   4   7   9   95.14   11.17
   4   8 -13    1.04    3.56
   4   8 -12   11.95    5.30
   4   8 -11  165.76   14.61
   4   8 -10   73.25    9.56
   4   8  -9  666.90   22.08
   4   8  -9  701.16   29.69
   4   8  -8  488.07   17.10
   4   8  -8  514.50   24.50
   4   8  -8  469.23   22.31
   4   8  -7 1267.04   30.63
   4   8  -7 1204.24   40.30
   4   8  -7 1260.12   38.81
   4   8  -6  894.12   30.75
   4   8  -5 1226.24   26.76
   4   8  -5 1135.39   35.79
   4   8  -4  384.70    8.59
   4   8  -4  428.92   18.93
   4   8  -3  447.39   19.41
   4   8  -2  987.89   31.01
   4   8  -1  942.81   30.07
   4   8   0  540.73   21.43
   4   8   1  610.87   23.12
   4   8   2    1.84    3.31
   4   8   2    3.44    2.75
   4   8   3   66.38    8.73
   4   8   3   57.71    6.98
   4   8   4  112.81   11.54
   4   8   4  103.62    9.42
   4   8   5   93.63   10.81
   4   8   5   90.91    9.04
   4   8   6   -1.72    3.96
   4   8   6    3.04    2.90
   4   8   7   64.84    9.17
   4   8   7   69.58    8.65
   4   8   8   96.94   11.49
   4   8   8   91.88    9.89
   4   9 -13   26.99    7.09
   4   9 -12  256.24   19.15
   4   9 -11    6.80    4.60
   4   9 -10   39.56    7.30
   4   9  -9    2.92    3.51
   4   9  -9    5.94    3.63
   4   9  -8   83.28    9.99
   4   9  -8   80.00    9.30
   4   9  -7   28.94    5.64
   4   9  -6  232.91   15.09
   4   9  -5  473.42   10.84
   4   9  -5  473.06   21.73
   4   9  -4  526.22   22.75
   4   9  -3  853.48   30.00
   4   9  -2  786.55   28.35
   4   9  -1  700.73   26.37
   4   9   0  607.88   24.23
   4   9   1  314.03   16.88
   4   9   2   59.35    8.61
   4   9   2   56.55    7.31
   4   9   3  240.27   17.38
   4   9   3  208.45   13.99
   4   9   4  191.27   15.68
   4   9   4  191.76   13.70
   4   9   5  138.20   13.56
   4   9   5  142.26   11.98
   4   9   6   -0.99    3.76
   4   9   6   -0.69    2.62
   4   9   7   24.27    6.24
   4   9   7   25.21    5.60
   4  10 -11  139.91   14.21
   4  10 -11  122.72   13.14
   4  10 -10   -0.15    3.55
   4  10 -10    1.56    3.51
   4  10  -9  122.86   12.99
   4  10  -9  121.45   12.19
   4  10  -8   -0.67    3.25
   4  10  -7   11.92    4.98
   4  10  -6    8.68    3.82
   4  10  -5   19.32    5.11
   4  10  -4  199.95   14.35
   4  10  -3   67.89    8.91
   4  10  -2  316.73   17.86
   4  10  -1  271.31   16.39
   4  10   0  494.80   22.77
   4  10   1  302.38   17.52
   4  10   2  237.04   17.83
   4  10   2  241.71   15.80
   4  10   3  360.31   22.33
   4  10   3  374.51   20.14
   4  10   4  112.80   12.42
   4  10   4  104.75   10.90
   4  10   5  229.55   18.03
   4  10   5  216.39   15.80
   4  10   6  141.91   12.87
   4  11 -11  123.62   13.48
   4  11 -10  195.78   17.08
   4  11 -10  166.87   15.41
   4  11  -9  196.18   16.21
   4  11  -8  130.62   13.04
   4  11  -7  197.82   15.64
   4  11  -6   34.80    6.84
   4  11  -5    6.86    4.22
   4  11  -4   65.35    8.70
   4  11  -3    5.24    3.51
   4  11  -2   52.83    7.85
   4  11  -1   46.48    7.59
   4  11   0   70.38    8.95
   4  11   1  130.77   12.11
   4  11   2  100.37   12.06
   4  11   2  107.52   11.15
   4  11   3  190.96   16.67
   4  11   3  202.30   15.43
   4  11   4  160.21   13.92
   4  11   5  127.44   12.57
   4  12  -9  395.12   24.07
   4  12  -8  193.73   16.45
   4  12  -7  191.39   16.15
   4  12  -6   66.80    9.56
   4  12  -5  106.71   11.75
   4  12  -4  193.16   15.62
   4  12  -3  276.69   18.82
   4  12  -2    8.27    3.84
   4  12  -1    8.55    3.80
   4  12   0    0.96    3.45
   4  12   1   49.52    8.11
   4  12   2    4.65    3.70
   4  12   3   42.79    7.72
   4  13  -7  450.06   26.19
   4  13  -6  250.97   18.97
   4  13  -5  396.00   23.84
   4  13  -4  272.14   19.61
   4  13  -3  288.23   20.02
   4  13  -2  215.59   17.03
   4  13  -1  238.58   18.06
   4  13   0   64.77    9.41
   4  13   1   22.78    6.03
   5 -14  -3   36.41    7.58
   5 -14  -2   -0.45    3.63
   5 -14  -1   83.40    9.98
   5 -14   3   92.32   10.57
   5 -14   4   12.91    5.05
   5 -14   5  164.50   14.96
   5 -13  -4    8.72    4.41
   5 -13  -3    7.05    4.04
   5 -13  -3    3.14    3.05
   5 -13  -2    2.93    3.09
   5 -13  -2   -1.80    2.52
   5 -13  -1   17.52    4.70
   5 -13  -1   14.68    4.70
   5 -13   0   58.97    7.99
   5 -13   0   57.05    7.82
   5 -13   1  189.78   13.40
   5 -13   1  191.24   13.69
   5 -13   1  187.72   14.37
   5 -13   2   78.90    9.09
   5 -13   3  287.54   18.19
   5 -13   4  171.51   14.35
   5 -13   5   73.68    9.67
   5 -13   6  370.60   22.74
   5 -12  -6  136.68   12.88
   5 -12  -5   94.66   10.39
   5 -12  -4   80.55    9.84
   5 -12  -4   82.90    9.63
   5 -12  -3   99.68   10.47
   5 -12  -3  107.50   10.83
   5 -12  -2    7.54    3.71
   5 -12  -2    6.03    3.80
   5 -12  -1   -0.69    2.74
   5 -12  -1    8.98    3.44
   5 -12   0   -1.50    1.98
   5 -12   0   -0.46    2.05
   5 -12   0   -1.13    2.74
   5 -12   1  136.91   10.74
   5 -12   1  153.12   12.04
   5 -12   1  145.54   12.18
   5 -12   2  121.27    9.68
   5 -12   2  121.80   11.12
   5 -12   2  126.84   11.54
   5 -12   3   12.23    3.03
   5 -12   3   12.12    4.09
   5 -12   4  356.42   20.55
   5 -12   5  183.88   15.08
   5 -12   6   89.34   11.00
   5 -12   7  393.77   23.64
   5 -12   8  136.78   14.24
   5 -11  -9   81.65   10.94
   5 -11  -8  446.33   24.50
   5 -11  -7   84.57   10.25
   5 -11  -6  208.63   15.52
   5 -11  -5  205.99   15.19
   5 -11  -4  305.07   18.45
   5 -11  -4  343.50   19.24
   5 -11  -3  160.38   12.77
   5 -11  -3  156.57   12.65
   5 -11  -2  210.32   14.10
   5 -11  -2  215.87   14.80
   5 -11  -1   88.66    8.72
   5 -11  -1   71.93    8.70
   5 -11   0    3.16    2.18
   5 -11   0    2.59    2.69
   5 -11   0   -0.19    2.75
   5 -11   1   99.88    8.42
   5 -11   1   93.51    9.38
   5 -11   1   92.94    9.59
   5 -11   2   23.47    4.07
   5 -11   2   14.65    4.47
   5 -11   2   27.01    5.49
   5 -11   3    0.86    1.79
   5 -11   3    2.59    2.53
   5 -11   4   50.36    5.30
   5 -11   4   33.29    6.67
   5 -11   5  468.70   24.02
   5 -11   6  124.72   12.75
   5 -11   7   42.44    7.37
   5 -11   8  823.46   35.36
   5 -11   9  195.69   16.88
   5 -10 -10   -1.28    3.35
   5 -10  -9   -1.84    3.62
   5 -10  -8   84.27   10.56
   5 -10  -7   91.83   10.69
   5 -10  -6   51.55    7.87
   5 -10  -5  316.68   18.55
   5 -10  -4  290.99   17.35
   5 -10  -3  178.77   12.71
   5 -10  -3  199.81   14.00
   5 -10  -2  182.11   12.27
   5 -10  -2  177.45   12.98
   5 -10  -1  680.13   24.81
   5 -10  -1  698.21   27.42
   5 -10  -1  756.72   25.52
   5 -10   0  200.18   11.77
   5 -10   0  195.72   12.61
   5 -10   0  183.86   13.08
   5 -10   1  141.44    9.36
   5 -10   1  145.10   11.08
   5 -10   1  137.13   11.30
   5 -10   2  384.25   15.57
   5 -10   2  407.58   19.83
   5 -10   2  398.73   19.90
   5 -10   3   23.89    3.54
   5 -10   3   14.53    4.69
   5 -10   3   13.42    3.91
   5 -10   4    4.09    1.87
   5 -10   4    0.60    2.49
   5 -10   5    1.45    1.17
   5 -10   5   -1.49    2.93
   5 -10   6   29.57    6.52
   5 -10   7   -0.12    3.64
   5 -10   8   32.37    6.72
   5 -10   9  155.61   14.70
   5  -9 -11  216.97   18.29
   5  -9 -10   91.88   11.56
   5  -9  -9   25.59    6.40
   5  -9  -8    7.38    4.20
   5  -9  -8   13.83    3.89
   5  -9  -7   77.90    7.19
   5  -9  -7   66.16    9.15
   5  -9  -6   13.20    4.13
   5  -9  -6    2.75    1.76
   5  -9  -5    2.39    2.85
   5  -9  -5    5.39    2.23
   5  -9  -4   48.25    4.72
   5  -9  -4   51.78    7.22
   5  -9  -3   47.78    4.42
   5  -9  -3   52.41    6.46
   5  -9  -3   48.19    7.00
   5  -9  -2  220.30    9.04
   5  -9  -2  205.09   12.33
   5  -9  -2  208.77   13.83
   5  -9  -2  207.43   12.60
   5  -9  -1  226.72    8.79
   5  -9  -1  223.49   12.18
   5  -9  -1  211.43   13.98
   5  -9  -1  260.61   13.66
   5  -9   0  943.55   22.06
   5  -9   0  907.19   27.02
   5  -9   0  933.71   31.79
   5  -9   0  943.16   30.13
   5  -9   1  156.88    7.13
   5  -9   1  181.07    9.71
   5  -9   1  169.49   11.69
   5  -9   1  162.11   11.96
   5  -9   2   73.11    5.03
   5  -9   2   74.13    5.81
   5  -9   2   77.98    8.60
   5  -9   2   69.87    7.88
   5  -9   3  216.25    9.38
   5  -9   3  206.65    9.37
   5  -9   3  199.03   13.77
   5  -9   3  192.28   13.43
   5  -9   4  129.47    7.67
   5  -9   4  137.77    7.04
   5  -9   4  134.05   11.53
   5  -9   5   81.46    6.57
   5  -9   5   81.01    4.95
   5  -9   5   95.79   10.19
   5  -9   6  261.66   17.13
   5  -9   7    5.27    3.27
   5  -9   8   44.91    8.15
   5  -9   9   69.47    9.99
   5  -9  10   26.28    6.85
   5  -8 -11  184.04   16.36
   5  -8 -10  217.22   14.20
   5  -8 -10  210.47   17.08
   5  -8  -9  152.49   11.08
   5  -8  -9  147.26   14.03
   5  -8  -8   48.51    8.01
   5  -8  -8   46.62    5.82
   5  -8  -7  206.51   11.58
   5  -8  -7  221.05   15.89
   5  -8  -6   -1.21    2.98
   5  -8  -6    2.13    1.71
   5  -8  -5   78.90    6.01
   5  -8  -5   79.89    9.10
   5  -8  -4    0.23    2.51
   5  -8  -4    0.21    1.27
   5  -8  -3    9.56    1.99
   5  -8  -3    9.06    3.07
   5  -8  -3    9.80    3.57
   5  -8  -3   15.24    2.22
   5  -8  -2  145.26    6.27
   5  -8  -2  137.16    9.34
   5  -8  -2  137.38   10.85
   5  -8  -2  151.62   10.58
   5  -8  -1    3.82    1.06
   5  -8  -1    0.90    1.82
   5  -8  -1    8.16    3.71
   5  -8  -1    1.82    1.86
   5  -8   0  261.89    8.02
   5  -8   0  257.47   14.90
   5  -8   0  257.95   13.84
   5  -8   0  245.63   11.35
   5  -8   1  601.70   14.72
   5  -8   1  567.13   22.43
   5  -8   1  566.60   23.32
   5  -8   1  610.79   18.27
   5  -8   1  577.50   22.44
   5  -8   2   40.38    3.29
   5  -8   2   40.77    3.83
   5  -8   2   43.40    6.15
   5  -8   2   35.73    5.83
   5  -8   3 1058.72   24.90
   5  -8   3 1039.11   24.05
   5  -8   3  999.60   33.59
   5  -8   3 1012.80   33.34
   5  -8   4  674.13   19.44
   5  -8   4  676.34   16.49
   5  -8   4  671.27   26.46
   5  -8   5  359.73   14.08
   5  -8   5  360.50    9.82
   5  -8   5  349.67   19.06
   5  -8   6  249.53   12.32
   5  -8   6  246.84    7.09
   5  -8   6  242.71   16.27
   5  -8   7  215.97   15.64
   5  -8   7  206.08   11.91
   5  -8   8   47.81    7.99
   5  -8   9   81.94   10.44
   5  -8  10   49.50    8.76
   5  -8  11    8.33    3.87
   5  -7 -12  590.74   26.36
   5  -7 -11  176.36   13.17
   5  -7 -10  153.44   11.55
   5  -7  -9  538.62   26.58
   5  -7  -9  494.58   20.62
   5  -7  -8  108.44   11.40
   5  -7  -8  104.59    8.32
   5  -7  -7  137.53   12.35
   5  -7  -7  118.52    8.28
   5  -7  -6  452.35   22.15
   5  -7  -6  457.92   16.12
   5  -7  -5   94.77    9.45
   5  -7  -5   81.22    5.64
   5  -7  -4    4.31    3.31
   5  -7  -4    3.27    1.40
   5  -7  -3   44.83    5.96
   5  -7  -3   58.34    7.31
   5  -7  -3   55.85    3.68
   5  -7  -3   49.83    3.37
   5  -7  -2  104.40    8.62
   5  -7  -2  108.97    9.33
   5  -7  -2   96.53    3.97
   5  -7  -2  100.85    4.08
   5  -7  -2   92.94    8.32
   5  -7  -1  231.85   13.69
   5  -7  -1  211.44   12.11
   5  -7  -1  214.26    5.41
   5  -7  -1  215.38    5.42
   5  -7  -1  222.03   12.63
   5  -7   0  328.05   16.58
   5  -7   0  335.50   15.51
   5  -7   1  781.81   16.11
   5  -7   1  783.14   26.29
   5  -7   1  731.13   26.52
   5  -7   1  761.32   19.86
   5  -7   1  709.18   24.28
   5  -7   2  190.66    6.89
   5  -7   2  188.90    7.35
   5  -7   2  184.36   12.01
   5  -7   2  177.64   12.13
   5  -7   3 1271.61   28.45
   5  -7   3 1300.18   25.96
   5  -7   3 1253.94   37.69
   5  -7   3 1319.09   38.66
   5  -7   4  207.94   13.65
   5  -7   4  205.92    9.20
   5  -7   5  856.56   30.96
   5  -7   5  891.81   24.51
   5  -7   6  452.40   21.86
   5  -7   7  717.80   29.33
   5  -7   8  657.25   28.65
   5  -7   9  448.31   23.86
   5  -7  10  161.23   14.60
   5  -7  11  153.27   14.44
   5  -7  12   17.73    5.50
   5  -6 -14   74.13    9.93
   5  -6 -13   -3.56    3.59
   5  -6 -12  139.68   12.17
   5  -6 -11   76.31    8.54
   5  -6 -10   87.66    8.42
   5  -6  -9  416.38   18.07
   5  -6  -8  462.00   23.26
   5  -6  -8  476.83   18.33
   5  -6  -7  418.51   21.49
   5  -6  -7  421.07   15.93
   5  -6  -6   81.67    9.12
   5  -6  -6   90.87    6.26
   5  -6  -5  406.08   19.83
   5  -6  -5  431.19   13.67
   5  -6  -4  432.63   19.22
   5  -6  -4  467.32   20.63
   5  -6  -4  448.24   12.57
   5  -6  -4  425.43   18.90
   5  -6  -3   52.85    6.27
   5  -6  -3   39.72    5.96
   5  -6  -3   49.24    2.84
   5  -6  -3   53.90    2.88
   5  -6  -3   59.29    6.39
   5  -6  -2  826.72   27.06
   5  -6  -2  871.11   28.67
   5  -6  -2  849.15   26.72
   5  -6  -1   -1.84    3.11
   5  -6  -1    0.34    1.95
   5  -6  -1    1.38    1.57
   5  -6   0   -1.32    2.38
   5  -6   0    2.68    1.59
   5  -6   1  100.22    8.76
   5  -6   1  109.29    8.85
   5  -6   1  114.43    7.87
   5  -6   2   46.45    6.02
   5  -6   2   70.13    7.38
   5  -6   3 1279.56   37.14
   5  -6   3 1281.59   37.58
   5  -6   4  108.38    9.43
   5  -6   5  816.01   29.36
   5  -6   6  389.14   19.71
   5  -6   7   26.88    5.60
   5  -6   8  870.40   33.06
   5  -6   9  465.17   23.79
   5  -6  10  375.37   21.96
   5  -6  11  201.51   16.28
   5  -6  12  260.66   19.03
   5  -5 -14   26.44    6.21
   5  -5 -13    9.25    4.47
   5  -5 -12   13.06    4.24
   5  -5 -11   54.68    7.14
   5  -5 -10  104.53    9.07
   5  -5  -9  299.84   14.77
   5  -5  -8   91.95    7.42
   5  -5  -7  963.18   26.39
   5  -5  -6    4.10    3.49
   5  -5  -6    1.48    1.29
   5  -5  -5   27.50    5.23
   5  -5  -5   21.24    2.62
   5  -5  -5   23.61    4.28
   5  -5  -4 1422.60   39.40
   5  -5  -4 1406.27   40.16
   5  -5  -4 1404.70   28.65
   5  -5  -4 1429.42   37.95
   5  -5  -3  451.61   18.93
   5  -5  -3  455.23   19.52
   5  -5  -3  446.97    9.61
   5  -5  -3  465.47    9.60
   5  -5  -3  463.14   17.89
   5  -5  -2  147.28   10.00
   5  -5  -2  156.71   10.72
   5  -5  -2  142.16    8.99
   5  -5  -1 1851.64   46.70
   5  -5  -1 1896.82   45.77
   5  -5  -1 1825.58   42.64
   5  -5   0   33.21    5.02
   5  -5   0   25.48    3.69
   5  -5   1  102.51    8.59
   5  -5   1   89.55    6.34
   5  -5   2  670.81   23.82
   5  -5   2  694.30   24.43
   5  -5   3  100.89    8.80
   5  -5   3  115.51    9.48
   5  -5   4   52.32    6.60
   5  -5   5   28.88    5.16
   5  -5   6   59.83    7.52
   5  -5   7   18.14    4.65
   5  -5   8  257.17    6.92
   5  -5   8  276.07   17.05
   5  -5   9  668.89   28.51
   5  -5  10  322.21   19.81
   5  -5  11  235.30   17.19
   5  -5  12  419.49   24.10
   5  -5  13  328.56   21.55
   5  -4 -15   22.66    5.90
   5  -4 -14  410.31   22.73
   5  -4 -13   92.96   10.01
   5  -4 -12   28.77    5.57
   5  -4 -11  118.95   10.19
   5  -4 -10   86.15    8.10
   5  -4  -9   61.35    6.47
   5  -4  -8  126.65    8.52
   5  -4  -7  179.73    9.37
   5  -4  -6    5.94    3.55
   5  -4  -6    1.44    1.11
   5  -4  -6    4.77    2.80
   5  -4  -5  125.72   10.04
   5  -4  -5  152.65   11.12
   5  -4  -5  134.11    6.42
   5  -4  -5  136.76    9.46
   5  -4  -4   29.59    5.36
   5  -4  -4   23.82    4.48
   5  -4  -4   27.29    2.32
   5  -4  -4   26.49    4.01
   5  -4  -3  442.29   18.27
   5  -4  -3  394.53   17.97
   5  -4  -3  437.15   16.14
   5  -4  -2  404.91   17.07
   5  -4  -2  422.59   17.79
   5  -4  -2  383.15   14.43
   5  -4  -1  604.56   21.78
   5  -4  -1  570.00   20.79
   5  -4  -1  579.29   17.77
   5  -4   0 1581.85   40.92
   5  -4   0 1577.99   35.15
   5  -4   1   28.24    4.59
   5  -4   1   30.64    3.26
   5  -4   2  157.48   10.50
   5  -4   2  152.57   10.32
   5  -4   3 1153.27   33.61
   5  -4   3 1131.94   33.61
   5  -4   4   68.35    7.42
   5  -4   5   52.25    6.70
   5  -4   6  266.49   15.60
   5  -4   7   10.15    3.59
   5  -4   8  130.71    5.47
   5  -4   8  125.08    5.30
   5  -4   8  128.28   11.38
   5  -4   9   28.91    2.87
   5  -4   9   22.02    5.52
   5  -4  10   51.46    7.97
   5  -4  11  108.65   11.39
   5  -4  12  115.34   12.39
   5  -4  13  224.75   17.44
   5  -3 -15  112.86   12.18
   5  -3 -14  220.71   16.24
   5  -3 -13  415.04   21.62
   5  -3 -12  108.34   10.17
   5  -3 -11  104.17    9.39
   5  -3 -10  265.85   14.30
   5  -3  -9   73.46    7.01
   5  -3  -8   64.45    5.98
   5  -3  -7   17.79    3.04
   5  -3  -7   17.18    3.88
   5  -3  -6    1.22    1.23
   5  -3  -6    1.45    1.78
   5  -3  -5  123.89    9.51
   5  -3  -5  108.07    9.36
   5  -3  -5  107.40    5.68
   5  -3  -5  106.83    8.00
   5  -3  -4  405.65   17.62
   5  -3  -4  426.13   18.27
   5  -3  -4  397.59   10.84
   5  -3  -4  399.21   15.26
   5  -3  -3   83.13    7.37
   5  -3  -3   83.55    7.73
   5  -3  -3   78.25    2.97
   5  -3  -3   74.75    5.78
   5  -3  -2 1328.78   35.79
   5  -3  -2 1294.43   35.77
   5  -3  -2 1350.06   31.04
   5  -3  -1   58.00    6.21
   5  -3  -1   57.41    6.16
   5  -3  -1   59.90    4.97
   5  -3  -1   61.60    4.43
   5  -3   0  573.88   20.72
   5  -3   0  581.79   15.49
   5  -3   0  568.84   18.34
   5  -3   1 1194.95   32.76
   5  -3   1 1111.72   30.12
   5  -3   2  390.71   16.82
   5  -3   2  392.92   16.06
   5  -3   3 1082.81   31.98
   5  -3   3 1066.07   31.00
   5  -3   4 1117.33   33.33
   5  -3   4 1125.55   33.03
   5  -3   5   95.04    8.63
   5  -3   5   92.06    8.52
   5  -3   6  133.90   10.53
   5  -3   6  113.27    3.69
   5  -3   6  116.71    3.69
   5  -3   6  118.90    9.99
   5  -3   7  340.90   17.85
   5  -3   7  347.78    9.82
   5  -3   7  347.08    9.90
   5  -3   7  315.56   17.60
   5  -3   8   -4.29    3.75
   5  -3   8    0.82    0.89
   5  -3   8    0.47    0.92
   5  -3   8    3.80    3.41
   5  -3   9   39.95    6.84
   5  -3   9   35.62    3.66
   5  -3   9   35.74    6.50
   5  -3  10   40.88    6.95
   5  -3  11    5.44    3.39
   5  -3  12  352.20   21.07
   5  -3  13    2.84    4.43
   5  -3  14  300.93   20.58
   5  -2 -15  247.37   18.04
   5  -2 -14  182.77   14.65
   5  -2 -13  141.26   12.11
   5  -2 -12  629.79   25.86
   5  -2 -11  255.38   14.86
   5  -2 -10  414.71   18.32
   5  -2  -9  558.47   20.59
   5  -2  -8   18.51    3.43
   5  -2  -7  148.82    8.54
   5  -2  -7  170.18   10.95
   5  -2  -6  251.64   14.29
   5  -2  -6  252.17   10.41
   5  -2  -6  236.56   12.26
   5  -2  -5    6.72    3.33
   5  -2  -5    3.89    2.53
   5  -2  -5    1.82    1.01
   5  -2  -5    2.06    1.77
   5  -2  -5    2.79    1.57
   5  -2  -4   48.23    5.97
   5  -2  -4   48.88    5.84
   5  -2  -4   47.90    3.36
   5  -2  -4   46.37    4.54
   5  -2  -4   54.72    3.50
   5  -2  -4   48.12    4.72
   5  -2  -3   19.36    3.89
   5  -2  -3   11.96    3.64
   5  -2  -3   15.13    2.32
   5  -2  -3   19.75    1.91
   5  -2  -3   13.11    2.43
   5  -2  -3   16.40    2.70
   5  -2  -2  230.71   12.15
   5  -2  -2  236.12   12.48
   5  -2  -2  229.35    8.89
   5  -2  -2  239.92    9.66
   5  -2  -2  212.57    8.80
   5  -2  -1 1325.51   35.14
   5  -2  -1 1303.90   34.51
   5  -2  -1 1339.25   31.25
   5  -2  -1 1304.82   27.60
   5  -2  -1 1301.33   27.83
   5  -2   0  540.39   19.62
   5  -2   0  555.31   13.23
   5  -2   0  579.69   18.26
   5  -2   0  560.37   13.30
   5  -2   1 1234.62   33.38
   5  -2   1 1226.50   31.86
   5  -2   1 1236.81   23.18
   5  -2   2 2693.48   60.11
   5  -2   2 2748.28   59.46
   5  -2   3  403.04   17.20
   5  -2   3  430.44   17.47
   5  -2   4  731.04   24.99
   5  -2   5  488.41   20.37
   5  -2   5  504.30   11.63
   5  -2   5  492.28   11.61
   5  -2   5  468.97   20.14
   5  -2   6  592.55   23.37
   5  -2   6  611.20   15.21
   5  -2   6  615.19   15.08
   5  -2   6  595.98   23.98
   5  -2   7  655.65   25.47
   5  -2   7  665.11   17.49
   5  -2   7  687.46   17.85
   5  -2   7  668.46   26.40
   5  -2   8  930.79   32.83
   5  -2   8 1034.83   25.52
   5  -2   8 1037.02   25.31
   5  -2   8  976.71   34.67
   5  -2   9   88.42    9.82
   5  -2   9   87.34    6.24
   5  -2   9   66.51    7.95
   5  -2  10   65.07    8.97
   5  -2  10   72.69    6.21
   5  -2  10   71.87    8.77
   5  -2  11   53.27    8.06
   5  -2  11   50.18    8.15
   5  -2  12   -2.23    3.51
   5  -2  13   34.19    6.85
   5  -2  14    7.77    4.16
   5  -1 -15   -0.23    3.05
   5  -1 -14  105.82   11.15
   5  -1 -13   92.18   10.01
   5  -1 -12   40.31    6.34
   5  -1 -11  597.39   23.94
   5  -1 -10  480.79   20.12
   5  -1  -9  877.00   27.40
   5  -1  -8  471.32   17.68
   5  -1  -8  461.84   19.51
   5  -1  -7  382.24   14.75
   5  -1  -7  410.74   17.11
   5  -1  -7  392.98   17.13
   5  -1  -6  135.54   10.10
   5  -1  -6  118.02    7.15
   5  -1  -6  124.41    8.46
   5  -1  -6  123.54    4.08
   5  -1  -6  113.06    8.51
   5  -1  -5  431.28   18.00
   5  -1  -5  369.47   12.64
   5  -1  -5  390.55   10.52
   5  -1  -5  372.34   14.41
   5  -1  -5  380.15   15.19
   5  -1  -4  603.78   21.45
   5  -1  -4  572.61   20.96
   5  -1  -4  536.71   14.67
   5  -1  -4  567.88   15.55
   5  -1  -4  564.79   17.25
   5  -1  -4  575.03   18.34
   5  -1  -3  157.62   10.07
   5  -1  -3  164.95   10.23
   5  -1  -3  162.63    7.42
   5  -1  -3  161.70    7.45
   5  -1  -3  156.98    8.11
   5  -1  -2  503.95   18.60
   5  -1  -2  471.97   17.76
   5  -1  -2  485.91   15.13
   5  -1  -2  470.01   12.92
   5  -1  -2  469.01   14.43
   5  -1  -1   49.46    4.78
   5  -1  -1   53.14    5.61
   5  -1  -1   48.92    5.42
   5  -1  -1   51.35    3.78
   5  -1  -1   42.89    2.71
   5  -1   0   19.12    3.66
   5  -1   0   19.63    3.38
   5  -1   0   15.78    1.94
   5  -1   1   -0.40    2.06
   5  -1   1    6.20    2.77
   5  -1   1    1.90    0.90
   5  -1   2 1484.33   37.76
   5  -1   2 1485.14   29.00
   5  -1   2 1465.13   37.60
   5  -1   3  954.89   28.49
   5  -1   3  916.70   19.76
   5  -1   4  206.31   12.37
   5  -1   4  199.99    7.18
   5  -1   5  810.84   19.76
   5  -1   5  818.10   27.88
   5  -1   5  828.91   19.67
   5  -1   6   19.49    4.16
   5  -1   6   25.25    3.02
   5  -1   6   23.64    2.76
   5  -1   7  151.64    7.98
   5  -1   7  154.41    7.92
   5  -1   7  141.67   11.54
   5  -1   8  443.14   15.85
   5  -1   8  431.23   21.62
   5  -1   8  464.66   15.92
   5  -1   9  337.80   19.51
   5  -1   9  365.66   14.72
   5  -1  10   96.65   10.87
   5  -1  10   95.10    7.61
   5  -1  11  158.88   14.21
   5  -1  12  231.06   17.71
   5   0 -15   39.93    7.56
   5   0 -14    0.71    3.17
   5   0 -13    6.97    3.86
   5   0 -12   19.65    4.88
   5   0 -11   -2.40    2.84
   5   0 -10  778.25   27.02
   5   0  -9  374.76   16.66
   5   0  -8  560.14   20.19
   5   0  -8  576.92   12.06
   5   0  -8  594.86   22.01
   5   0  -7  414.38   18.71
   5   0  -7  397.53   15.35
   5   0  -7  383.95   10.00
   5   0  -7  367.40   15.91
   5   0  -7  395.21   17.19
   5   0  -6   42.50    5.68
   5   0  -6   48.42    4.78
   5   0  -6   46.04    3.23
   5   0  -6   35.63    4.74
   5   0  -6   41.64    4.73
   5   0  -5  417.06   17.69
   5   0  -5  410.64   14.24
   5   0  -5  415.72   12.29
   5   0  -5  436.03   15.15
   5   0  -5  436.15   16.55
   5   0  -4 2873.75   61.96
   5   0  -4 2604.51   60.42
   5   0  -4 2794.51   55.31
   5   0  -4 2776.19   54.06
   5   0  -4 2739.09   55.27
   5   0  -4 2782.37   57.95
   5   0  -3  235.86    9.66
   5   0  -3  231.04   11.82
   5   0  -3  230.95   12.20
   5   0  -3  221.22   10.07
   5   0  -3  215.66    8.44
   5   0  -2   51.51    4.72
   5   0  -2   54.39    5.58
   5   0  -2   61.03    6.07
   5   0  -2   49.37    4.30
   5   0  -2   48.13    3.17
   5   0  -1  828.14   22.96
   5   0  -1  751.15   23.30
   5   0  -1  802.70   20.48
   5   0  -1  808.21   15.82
   5   0   0    0.57    2.08
   5   0   0    3.41    1.32
   5   0   0    1.68    2.06
   5   0   1  209.88   11.02
   5   0   1  196.62    7.80
   5   0   1  189.43   10.27
   5   0   2   60.08    6.25
   5   0   2   55.99    3.97
   5   0   2   66.23    6.14
   5   0   3    5.57    2.89
   5   0   3    3.80    1.35
   5   0   4  386.70   17.62
   5   0   4  387.46   12.62
   5   0   5    7.58    2.96
   5   0   5    6.75    1.76
   5   0   6  376.74   18.64
   5   0   6  401.78   14.35
   5   0   7  313.94   13.17
   5   0   7  331.36   17.88
   5   0   7  317.28   13.04
   5   0   8  621.33   21.00
   5   0   8  659.20   21.12
   5   0   8  617.73   26.53
   5   0   9  404.21   16.71
   5   0   9  387.73   21.10
   5   0  10  130.49   12.54
   5   0  10  119.38    9.15
   5   0  11  100.45   11.28
   5   0  12  156.13   14.66
   5   1 -15   -0.44    2.79
   5   1 -14   70.18    9.41
   5   1 -13   27.91    5.98
   5   1 -12    1.01    2.47
   5   1 -11    0.27    0.62
   5   1 -11    1.87    3.07
   5   1 -10   55.97    6.78
   5   1 -10   61.03    3.60
   5   1  -9  103.94    8.65
   5   1  -8  175.28   10.74
   5   1  -8  198.31   11.74
   5   1  -7   34.05    5.46
   5   1  -7   31.92    4.41
   5   1  -7   42.08    5.50
   5   1  -7   59.50    6.38
   5   1  -6  485.26   19.64
   5   1  -6  474.53   14.18
   5   1  -6  487.46   17.16
   5   1  -6  467.32   16.94
   5   1  -6  461.40   18.23
   5   1  -5 1303.62   30.07
   5   1  -5 1319.22   32.52
   5   1  -5 1291.96   34.09
   5   1  -5 1413.94   36.74
   5   1  -4  563.80   17.80
   5   1  -4  545.28   16.87
   5   1  -4  596.98   19.38
   5   1  -4  561.74   20.39
   5   1  -4  589.96   20.19
   5   1  -3  150.35    8.20
   5   1  -3  164.83    9.89
   5   1  -3  155.79    9.32
   5   1  -3  154.70    8.62
   5   1  -2  845.88   23.70
   5   1  -2  900.25   26.29
   5   1  -2  855.14   24.58
   5   1  -2  878.71   23.35
   5   1  -2  840.17   18.83
   5   1  -1  354.80   14.02
   5   1  -1  309.72   13.03
   5   1  -1  332.11   12.22
   5   1  -1  328.53    7.78
   5   1  -1  316.69    7.63
   5   1   0 1787.58   41.96
   5   1   0 1735.36   37.97
   5   1   0 1722.34   40.24
   5   1   1   97.05    7.73
   5   1   1   90.04    5.77
   5   1   1   94.48    6.96
   5   1   2  226.17   12.41
   5   1   2  220.99    9.52
   5   1   3   86.77    7.93
   5   1   3  104.38    6.44
   5   1   4    1.89    2.26
   5   1   4    6.41    1.95
   5   1   5   41.70    6.16
   5   1   5   36.37    4.25
   5   1   6   93.31    9.27
   5   1   6  102.59    7.42
   5   1   7  410.05   20.57
   5   1   7  385.38   16.06
   5   1   8    3.53    2.92
   5   1   8    9.58    3.11
   5   1   8   18.67    3.67
   5   1   9  107.91   11.29
   5   1   9  108.26    8.77
   5   1  10  282.44   18.82
   5   1  10  267.97   14.86
   5   1  11  316.09   20.66
   5   1  11  346.40   17.77
   5   1  12  546.70   28.37
   5   2 -15  192.33   16.07
   5   2 -14  662.24   29.74
   5   2 -13  235.19   16.25
   5   2 -12  428.42   21.38
   5   2 -11   91.71    9.36
   5   2 -11   94.03    5.67
   5   2 -10   55.94    6.97
   5   2  -9   99.55    8.75
   5   2  -8    1.50    2.06
   5   2  -7    1.90    2.28
   5   2  -7    1.33    2.00
   5   2  -7    0.44    2.29
   5   2  -6   41.24    5.39
   5   2  -6   43.49    5.21
   5   2  -6   48.91    5.71
   5   2  -5  394.75   15.64
   5   2  -5  404.37   16.88
   5   2  -5  410.04   16.58
   5   2  -4   24.97    3.89
   5   2  -4   28.57    4.31
   5   2  -4   30.24    3.84
   5   2  -4   26.55    3.91
   5   2  -4   31.24    4.39
   5   2  -3   43.51    4.91
   5   2  -3   33.93    4.28
   5   2  -3   43.64    4.88
   5   2  -3   45.56    5.19
   5   2  -2  794.46   23.82
   5   2  -2  806.35   22.88
   5   2  -2  808.11   23.22
   5   2  -1  885.67   26.02
   5   2  -1  905.98   24.21
   5   2  -1  877.09   24.25
   5   2  -1  870.51   18.80
   5   2   0  866.31   25.89
   5   2   0  848.78   23.17
   5   2   0  836.93   23.18
   5   2   0  808.63   16.41
   5   2   1 1176.40   32.72
   5   2   1 1175.39   29.44
   5   2   1 1145.40   29.10
   5   2   1 1131.79   21.29
   5   2   2  212.41   12.37
   5   2   2  204.18   10.02
   5   2   3   60.99    6.84
   5   2   3   53.41    5.10
   5   2   4  797.02   28.19
   5   2   4  834.10   24.47
   5   2   5   25.29    5.23
   5   2   5   32.40    4.33
   5   2   6    9.40    3.49
   5   2   6    4.50    2.32
   5   2   7  111.62   10.70
   5   2   7  137.00    9.76
   5   2   8   11.44    3.79
   5   2   9   -0.95    3.24
   5   2   9    1.14    1.85
   5   2  10   -0.27    2.88
   5   2  10   -1.66    2.04
   5   2  11   93.76   11.24
   5   2  11   96.16    9.63
   5   3 -15  195.75   16.34
   5   3 -14  292.16   19.33
   5   3 -13  187.68   14.79
   5   3 -12  562.53   25.46
   5   3 -11  856.25   31.25
   5   3 -10  207.46   13.62
   5   3  -9  174.06   11.98
   5   3  -8  178.94   11.86
   5   3  -8  157.04   10.82
   5   3  -7    1.73    2.34
   5   3  -7   -0.20    2.19
   5   3  -6    0.30    2.04
   5   3  -6   -1.29    2.37
   5   3  -6    2.12    1.72
   5   3  -5    6.47    2.63
   5   3  -5    6.79    2.79
   5   3  -5    2.78    2.04
   5   3  -4  342.26   14.89
   5   3  -4  346.87   14.14
   5   3  -4  348.35   15.21
   5   3  -3   37.58    4.62
   5   3  -3   34.62    4.20
   5   3  -3   32.79    4.40
   5   3  -2   14.98    3.72
   5   3  -2    9.44    2.33
   5   3  -2   12.04    3.08
   5   3  -2    9.39    1.89
   5   3  -1  806.32   25.74
   5   3  -1  821.68   22.31
   5   3  -1  856.85   24.83
   5   3  -1  818.69   19.54
   5   3   0 1158.07   32.93
   5   3   0 1168.42   28.27
   5   3   0 1150.26   30.67
   5   3   0 1125.33   24.37
   5   3   1  755.75   25.91
   5   3   1  795.76   23.92
   5   3   1  777.62   17.96
   5   3   2  797.68   26.95
   5   3   2  760.21   23.70
   5   3   2  773.62   18.25
   5   3   3  568.41   23.07
   5   3   3  617.74   21.05
   5   3   3  620.32   16.18
   5   3   4  173.71   12.45
   5   3   4  168.24   10.37
   5   3   5  572.63   24.28
   5   3   5  586.27   21.61
   5   3   6   94.81    9.78
   5   3   6   99.86    8.66
   5   3   7  552.96   25.28
   5   3   8    9.73    4.02
   5   3   9   67.28    9.75
   5   3  10    3.11    3.16
   5   3  10    2.81    2.70
   5   3  11   -4.99    3.77
   5   3  11   -3.73    3.91
   5   4 -15   10.62    4.56
   5   4 -14  349.87   21.51
   5   4 -13  117.46   11.99
   5   4 -12  484.33   23.70
   5   4 -11  634.16   26.59
   5   4 -10  771.70   28.97
   5   4  -9  202.20   13.48
   5   4  -8  436.79   19.79
   5   4  -8  456.84   19.37
   5   4  -7  293.81   15.29
   5   4  -7  262.39   13.85
   5   4  -6  313.92   15.66
   5   4  -6  336.76   15.23
   5   4  -5  201.70   12.03
   5   4  -5  199.72   11.34
   5   4  -5  207.42   12.24
   5   4  -4   39.63    4.49
   5   4  -4   40.36    5.39
   5   4  -4   44.26    5.57
   5   4  -3    1.20    1.76
   5   4  -3    1.27    2.35
   5   4  -3    1.56    1.53
   5   4  -2    1.32    1.22
   5   4  -2    0.89    2.01
   5   4  -2    2.28    1.26
   5   4  -1   -0.08    2.58
   5   4  -1    0.13    1.21
   5   4  -1    1.31    1.83
   5   4  -1    1.56    1.09
   5   4   0  325.22   16.19
   5   4   0  368.72   12.60
   5   4   0  358.23   15.66
   5   4   0  347.29   11.76
   5   4   1  293.20   15.63
   5   4   1  297.03   14.22
   5   4   1  303.46   10.75
   5   4   2  503.64   21.46
   5   4   2  513.89   19.79
   5   4   2  521.84   15.45
   5   4   3  685.34   26.13
   5   4   3  676.52   23.54
   5   4   3  634.62   18.40
   5   4   4  430.45   20.80
   5   4   4  465.32   19.33
   5   4   4  447.43   15.16
   5   4   5  260.46   16.34
   5   4   6  389.93   20.79
   5   4   7  315.10   19.17
   5   4   8   17.24    5.10
   5   4   9  274.34   18.97
   5   4  10   92.97   11.18
   5   4  11   11.15    4.51
   5   5 -15    4.81    3.76
   5   5 -14    1.92    3.36
   5   5 -13  140.15   13.40
   5   5 -12   41.07    7.46
   5   5 -11  122.72   11.73
   5   5 -10  444.42   21.73
   5   5  -9  415.79   18.74
   5   5  -9  387.54   19.81
   5   5  -8  398.35   17.74
   5   5  -8  419.21   19.93
   5   5  -7  298.48   14.48
   5   5  -7  312.62   16.63
   5   5  -6  638.70   21.94
   5   5  -6  657.70   24.84
   5   5  -5  232.19   11.84
   5   5  -5  230.54   11.08
   5   5  -4  460.10   15.54
   5   5  -4  452.84   16.89
   5   5  -3  352.31   12.38
   5   5  -3  357.87   16.66
   5   5  -3  341.35   13.87
   5   5  -2   18.83    2.60
   5   5  -2   26.12    4.52
   5   5  -2   23.40    3.56
   5   5  -1  107.42    9.47
   5   5  -1  116.66    6.01
   5   5  -1  112.05    8.90
   5   5  -1  104.62    6.85
   5   5   0   34.46    5.75
   5   5   0   33.52    4.93
   5   5   0   27.16    3.36
   5   5   1   30.77    5.62
   5   5   1   36.39    5.55
   5   5   1   33.99    3.85
   5   5   2    2.50    2.95
   5   5   2    2.22    1.57
   5   5   3   99.27    9.84
   5   5   3  104.70    7.07
   5   5   4  255.55   16.34
   5   5   4  270.27   12.25
   5   5   5  451.32   22.63
   5   5   5  460.07   17.29
   5   5   6  234.15   16.54
   5   5   7  398.42   22.38
   5   5   8  238.23   17.36
   5   5   9  224.04   17.47
   5   6 -14    2.85    3.01
   5   6 -13   41.01    7.83
   5   6 -12   41.33    7.41
   5   6 -11    3.74    3.91
   5   6 -10    3.44    3.31
   5   6  -9  263.45   14.42
   5   6  -9  289.73   17.42
   5   6  -8  249.93   13.36
   5   6  -8  253.15   15.92
   5   6  -7  174.10   10.51
   5   6  -7  153.38   12.03
   5   6  -6  318.91   14.17
   5   6  -5  925.73   27.05
   5   6  -5 1032.36   26.31
   5   6  -5  930.81   28.86
   5   6  -4   52.59    4.39
   5   6  -4   44.68    5.33
   5   6  -3 1726.71   35.42
   5   6  -3 1614.90   40.78
   5   6  -2   22.29    2.33
   5   6  -2   19.09    3.55
   5   6  -1  625.02   20.45
   5   6   0  491.35   21.83
   5   6   0  431.62   16.36
   5   6   1   10.16    3.92
   5   6   1    9.31    2.35
   5   6   2   19.25    5.07
   5   6   2   23.79    3.73
   5   6   3    1.07    2.68
   5   6   3   -0.39    1.74
   5   6   4   88.06   10.06
   5   6   4   74.43    6.83
   5   6   5   64.59    8.86
   5   6   5   84.91    7.47
   5   6   6    8.56    3.93
   5   6   6   16.91    3.69
   5   6   7   45.06    7.76
   5   6   8  157.37   14.56
   5   7 -14  254.61   19.46
   5   7 -13  551.25   28.42
   5   7 -12  172.55   15.27
   5   7 -11    7.40    5.39
   5   7 -10    4.76    3.22
   5   7  -9   22.04    4.14
   5   7  -9   23.66    5.65
   5   7  -8   15.70    3.55
   5   7  -8   13.72    4.25
   5   7  -7   10.69    2.70
   5   7  -7    8.69    4.28
   5   7  -7   10.48    3.50
   5   7  -6   -1.36    1.96
   5   7  -6    2.76    2.57
   5   7  -5  130.74    7.21
   5   7  -5  127.60    9.84
   5   7  -4   43.12    3.46
   5   7  -4   30.25    4.74
   5   7  -3   20.74    1.97
   5   7  -3   15.39    3.47
   5   7  -2  919.05   28.11
   5   7  -1  491.69   18.94
   5   7   0  532.88   24.33
   5   7   0  537.94   19.91
   5   7   1  108.15   10.87
   5   7   1  116.16    8.61
   5   7   2   54.86    7.93
   5   7   2   70.81    6.70
   5   7   3  129.16   12.22
   5   7   3  128.85    9.42
   5   7   4  335.98   20.16
   5   7   4  338.32   16.15
   5   7   5   -5.20    4.30
   5   7   5   -0.44    1.66
   5   7   6   29.65    7.06
   5   7   6    6.95    2.95
   5   7   7    0.21    3.02
   5   8 -13  464.79   26.53
   5   8 -12  255.92   18.87
   5   8 -11  185.77   15.73
   5   8 -10  158.31   14.37
   5   8  -9  118.98   12.11
   5   8  -8   32.39    6.85
   5   8  -8   25.50    5.27
   5   8  -7   62.74    7.71
   5   8  -6   79.83    5.82
   5   8  -6   77.02    8.31
   5   8  -5   48.72    3.72
   5   8  -5   45.58    6.46
   5   8  -4  222.36    6.12
   5   8  -4  242.60   14.09
   5   8  -3   77.51    7.86
   5   8  -2   27.94    4.86
   5   8  -1  779.96   26.57
   5   8   0  403.11   17.95
   5   8   1   61.43    8.78
   5   8   1   68.93    7.17
   5   8   2  570.42   27.16
   5   8   2  571.38   22.32
   5   8   3  305.47   19.56
   5   8   3  256.61   14.58
   5   8   4  186.92   15.58
   5   8   4  196.89   12.89
   5   8   5   79.07   10.28
   5   8   5   84.48    8.55
   5   8   6   89.94   11.21
   5   9 -12  132.28   14.17
   5   9 -11  183.35   16.08
   5   9 -10  184.02   15.95
   5   9 -10  167.25   14.30
   5   9  -9  128.10   12.98
   5   9  -9  123.38   11.99
   5   9  -8   29.33    5.91
   5   9  -7  177.82   13.54
   5   9  -6   74.65    8.66
   5   9  -5   11.93    4.03
   5   9  -4   11.48    3.59
   5   9  -3  129.12   10.84
   5   9  -2  193.92   12.95
   5   9  -1  196.85   13.11
   5   9   0  391.81   18.83
   5   9   1  233.71   17.17
   5   9   1  215.46   13.84
   5   9   2  321.06   20.86
   5   9   2  369.08   18.35
   5   9   3  614.18   29.72
   5   9   3  577.37   24.27
   5   9   4  183.97   15.94
   5   9   4  188.26   13.42
   5  10 -11  122.34   12.86
   5  10 -10  432.30   25.57
   5  10 -10  415.86   23.86
   5  10  -9  265.71   18.25
   5  10  -8  230.43   16.63
   5  10  -7  207.34   15.53
   5  10  -6   78.50    9.55
   5  10  -5   54.23    7.79
   5  10  -4  193.69   14.24
   5  10  -3  116.92   10.74
   5  10  -2    0.22    2.85
   5  10  -1   11.52    3.50
   5  10   0    4.43    3.07
   5  10   1  116.44   12.81
   5  10   1   93.80    9.73
   5  10   2   94.15   11.75
   5  10   2   86.18    9.34
   5  10   3  173.58   13.40
   5  11 -10   91.53   11.61
   5  11  -9  143.35   13.95
   5  11  -8  251.51   18.20
   5  11  -7   62.56    9.08
   5  11  -6  127.04   12.32
   5  11  -5   88.64   10.16
   5  11  -4  342.20   19.94
   5  11  -3   91.34   10.18
   5  11  -2  136.56   12.13
   5  11  -1   86.73    9.81
   5  11   0   10.21    3.98
   5  11   1    0.79    3.29
   5  11   2    5.98    3.59
   5  12  -9   39.46    7.98
   5  12  -8   20.79    6.04
   5  12  -7  117.81   12.50
   5  12  -6   23.26    6.14
   5  12  -5  199.45   16.04
   5  12  -4  119.15   12.22
   5  12  -3   93.79   10.85
   5  12  -2  236.47   17.08
   5  12  -1  164.68   14.22
   5  12   0   65.13    9.14
   5  13  -6  146.04   14.60
   5  13  -5   46.59    8.30
   5  13  -4  182.84   15.92
   5  13  -3   57.08    9.12
   5  13  -2  116.28   12.51
   6 -14   3  154.37   14.27
   6 -14   4   46.21    8.44
   6 -13  -4   71.72    9.72
   6 -13  -3  139.05   13.31
   6 -13  -2  109.53   11.70
   6 -13  -1   41.97    7.37
   6 -13   0  184.07   15.09
   6 -13   1   52.85    8.42
   6 -13   2   25.43    6.54
   6 -13   3    1.70    3.47
   6 -13   4    6.33    4.34
   6 -13   5   67.09   10.12
   6 -12  -6   79.65   10.43
   6 -12  -5  341.19   21.23
   6 -12  -4  273.52   18.50
   6 -12  -3  114.13   11.86
   6 -12  -2  269.20   18.04
   6 -12  -1  223.48   14.25
   6 -12  -1  212.04   15.75
   6 -12   0   73.86    9.29
   6 -12   1  354.29   20.59
   6 -12   2  130.43   12.23
   6 -12   2  137.16   12.76
   6 -12   3   -4.23    4.27
   6 -12   4    6.81    3.79
   6 -12   5   64.89    9.46
   6 -12   6   33.15    7.32
   6 -11  -8   19.44    5.79
   6 -11  -7  128.41   13.14
   6 -11  -6   64.58    9.39
   6 -11  -5  102.92   11.44
   6 -11  -4  194.96   15.26
   6 -11  -3  189.38   14.92
   6 -11  -2  148.08   12.97
   6 -11  -1  682.72   29.12
   6 -11   0  397.54   17.61
   6 -11   0  408.03   21.83
   6 -11   1   87.79    7.48
   6 -11   1   68.64    8.86
   6 -11   2  695.56   28.90
   6 -11   2  681.09   29.48
   6 -11   3  156.74   13.47
   6 -11   4  262.11   18.05
   6 -11   5  158.68   14.14
   6 -11   6  162.67   14.66
   6 -11   7    5.21    3.35
   6 -10  -9   31.53    7.03
   6 -10  -8  102.44   11.92
   6 -10  -7   35.29    7.08
   6 -10  -6   20.75    6.06
   6 -10  -5   58.43    8.65
   6 -10  -4   18.84    4.91
   6 -10  -3   69.57    8.99
   6 -10  -2  125.06   11.63
   6 -10  -1  190.68   14.35
   6 -10   0  488.53   23.58
   6 -10   1  146.06   11.81
   6 -10   1  136.37   12.03
   6 -10   2  106.40    6.99
   6 -10   2   77.09    8.91
   6 -10   2   94.26   10.23
   6 -10   3  979.13   35.52
   6 -10   3  992.74   36.40
   6 -10   4  257.08   17.27
   6 -10   5  166.73   14.42
   6 -10   6  127.32   13.03
   6 -10   7   63.27    9.44
   6 -10   8   44.56    8.53
   6  -9 -10  172.70   16.22
   6  -9  -9  319.82   21.46
   6  -9  -8  120.84   12.79
   6  -9  -7  125.45   12.78
   6  -9  -6  177.06   14.65
   6  -9  -5   24.60    5.98
   6  -9  -4   66.34    8.74
   6  -9  -3  107.30   10.83
   6  -9  -2   10.22    4.24
   6  -9  -1   35.16    6.23
   6  -9   0   17.43    4.42
   6  -9   1   52.61    7.59
   6  -9   2  290.96   17.21
   6  -9   2  330.61   18.74
   6  -9   3  278.57   17.13
   6  -9   3  281.03   17.62
   6  -9   4  643.29   27.75
   6  -9   5  283.48   18.40
   6  -9   6  405.17   22.67
   6  -9   7  381.65   22.67
   6  -9   8  203.41   16.63
   6  -9   9   25.98    6.64
   6  -8 -10  170.81   15.85
   6  -8  -9  388.29   23.65
   6  -8  -8  661.98   30.45
   6  -8  -7  708.47   30.96
   6  -8  -6  758.94   31.55
   6  -8  -5  406.18   21.33
   6  -8  -5  353.30   11.60
   6  -8  -4  187.70   14.20
   6  -8  -4  199.11    6.68
   6  -8  -3   17.52    4.98
   6  -8  -2  473.75   22.46
   6  -8  -1   28.48    5.69
   6  -8   0  282.45   16.68
   6  -8   1  418.32   20.83
   6  -8   2   89.80    9.44
   6  -8   2   75.95    8.77
   6  -8   3  115.68   10.65
   6  -8   3  104.24   10.36
   6  -8   4   32.97    6.23
   6  -8   5  385.80   21.01
   6  -8   6  346.40   20.48
   6  -8   7  166.44   14.42
   6  -8   8  393.25   22.95
   6  -8   9  293.38   20.35
   6  -8  10  244.39   18.98
   6  -7 -11    1.17    4.22
   6  -7 -10  357.04   22.98
   6  -7  -9   69.87   10.49
   6  -7  -8  192.78   15.59
   6  -7  -8  188.90   10.51
   6  -7  -7  543.09   26.64
   6  -7  -7  577.82   18.42
   6  -7  -6   64.28    8.76
   6  -7  -6   70.29    5.08
   6  -7  -5  397.46   20.98
   6  -7  -5  398.47   11.66
   6  -7  -4  692.83   28.11
   6  -7  -4  718.78   14.54
   6  -7  -4  709.81   14.61
   6  -7  -3  543.98   23.96
   6  -7  -2  168.36   12.75
   6  -7  -2  189.59   12.03
   6  -7  -1  277.62   16.26
   6  -7  -1  293.19   14.76
   6  -7   0    0.40    2.80
   6  -7   0    9.53    2.98
   6  -7   1  162.50   12.35
   6  -7   1  163.91   10.34
   6  -7   2   88.49    9.11
   6  -7   2   74.50    8.37
   6  -7   3   10.75    3.87
   6  -7   3    8.50    3.53
   6  -7   4  204.59   14.43
   6  -7   5   28.48    6.03
   6  -7   6   62.38    8.67
   6  -7   7  153.83   13.59
   6  -7   8  310.01   19.90
   6  -7   9  542.89   27.49
   6  -7  10  276.71   19.67
   6  -6 -11   58.83    7.04
   6  -6 -10  117.84   15.67
   6  -6 -10    7.05    2.94
   6  -6  -9  164.20   14.55
   6  -6  -9  135.44    9.36
   6  -6  -8   45.93    7.85
   6  -6  -8   43.36    4.92
   6  -6  -7  362.54   20.63
   6  -6  -7  352.59   13.38
   6  -6  -6  285.82   17.79
   6  -6  -6  267.82   10.14
   6  -6  -5  103.07   10.29
   6  -6  -5  117.82    5.38
   6  -6  -4  769.10   29.31
   6  -6  -3  541.90   23.27
   6  -6  -3  516.78   20.52
   6  -6  -2  282.03   16.12
   6  -6  -2  310.36   14.69
   6  -6  -1  819.68   29.25
   6  -6  -1  816.79   25.52
   6  -6   0  500.42   21.68
   6  -6   0  452.15   17.37
   6  -6   1  359.20   18.19
   6  -6   1  346.27   14.47
   6  -6   2  469.59   21.22
   6  -6   3  361.60   18.46
   6  -6   3  356.58   18.55
   6  -6   4    0.36    2.68
   6  -6   5   16.34    4.78
   6  -6   6   44.58    7.41
   6  -6   7   95.88   10.62
   6  -6   8  148.93   13.56
   6  -6   9   32.73    7.19
   6  -6  10  219.61   17.46
   6  -6  11  179.34   15.86
   6  -5 -12  124.65   10.80
   6  -5 -11   43.54    6.30
   6  -5 -10  444.20   18.86
   6  -5  -9  167.93   14.59
   6  -5  -9  173.49   10.50
   6  -5  -8   35.15    6.98
   6  -5  -8   26.56    3.86
   6  -5  -7  173.74   14.43
   6  -5  -7  200.00    9.47
   6  -5  -6  145.53   12.28
   6  -5  -6  140.05    6.89
   6  -5  -5  254.33   15.81
   6  -5  -5  260.51    8.23
   6  -5  -5  261.58   14.27
   6  -5  -4    0.54    2.54
   6  -5  -4   -1.20    1.68
   6  -5  -3  261.35   15.41
   6  -5  -3  263.97   13.14
   6  -5  -2  738.24   27.11
   6  -5  -2  724.63   22.94
   6  -5  -1  249.35   14.60
   6  -5  -1  254.24   11.80
   6  -5   0  747.70   26.98
   6  -5   0  712.22   21.30
   6  -5   1  274.99   15.58
   6  -5   2 1185.53   36.53
   6  -5   3  645.38   25.56
   6  -5   4 1118.84   36.07
   6  -5   5   82.05    9.15
   6  -5   6  168.92   13.19
   6  -5   7   80.20    9.54
   6  -5   8   12.41    4.84
   6  -5   9   40.77    7.38
   6  -5  10   20.49    5.73
   6  -5  11   35.35    7.10
   6  -4 -14   85.39   10.19
   6  -4 -13  132.42   11.90
   6  -4 -12  105.74    9.91
   6  -4 -11  196.33   12.82
   6  -4 -10  176.25   11.35
   6  -4  -9  830.85   25.86
   6  -4  -8  176.22   14.05
   6  -4  -8  179.43    9.80
   6  -4  -7   48.30    7.44
   6  -4  -7   43.24    4.30
   6  -4  -6  467.74   21.91
   6  -4  -6  464.19   14.10
   6  -4  -6  429.40   19.04
   6  -4  -5   52.60    7.28
   6  -4  -5   44.93    3.21
   6  -4  -5   35.51    5.02
   6  -4  -4   -2.23    2.66
   6  -4  -4    3.30    2.16
   6  -4  -3  193.98   12.82
   6  -4  -3  204.09   10.62
   6  -4  -2  146.74   10.65
   6  -4  -2  154.89   11.14
   6  -4  -2  133.32    8.04
   6  -4  -1  181.27   12.05
   6  -4  -1  204.65   12.53
   6  -4  -1  177.80    8.88
   6  -4   0    6.68    3.42
   6  -4   0    3.65    1.28
   6  -4   1  412.49   18.87
   6  -4   2 1252.08   37.18
   6  -4   2 1257.45   35.37
   6  -4   3  601.39   24.00
   6  -4   3  586.77   22.57
   6  -4   4  849.47   29.27
   6  -4   5  849.92   30.85
   6  -4   5  886.74   30.82
   6  -4   6  134.52   11.55
   6  -4   7  647.82   27.55
   6  -4   8  296.98   18.34
   6  -4   9   19.01    5.94
   6  -4  10  168.45   14.56
   6  -4  11   92.63   11.24
   6  -4  12    2.50    3.15
   6  -3 -15   63.78    9.11
   6  -3 -14  152.89   13.37
   6  -3 -13   75.45    8.96
   6  -3 -12   56.85    7.28
   6  -3 -11  615.99   24.02
   6  -3 -10  675.63   24.11
   6  -3  -9  234.99   12.34
   6  -3  -8 1105.19   29.70
   6  -3  -7  367.17   19.56
   6  -3  -7  366.15   13.65
   6  -3  -6  301.48   17.43
   6  -3  -6  319.61   11.42
   6  -3  -6  310.34   15.03
   6  -3  -5  980.39   32.27
   6  -3  -5  928.04   21.52
   6  -3  -5  925.74   27.62
   6  -3  -4    8.46    3.90
   6  -3  -4    5.21    2.19
   6  -3  -3   45.54    6.24
   6  -3  -3   54.56    6.53
   6  -3  -3   56.13    5.06
   6  -3  -2  341.39   16.59
   6  -3  -2  344.24   16.76
   6  -3  -2  359.07   13.44
   6  -3  -2  343.68   12.47
   6  -3  -1    6.36    3.29
   6  -3  -1    6.63    2.88
   6  -3  -1    6.87    2.40
   6  -3  -1    6.86    1.77
   6  -3   0    9.32    3.31
   6  -3   0    7.51    2.66
   6  -3   0    9.28    1.59
   6  -3   1   21.01    4.50
   6  -3   1   23.78    4.26
   6  -3   2  839.60   28.79
   6  -3   2  966.71   29.06
   6  -3   3  594.08   23.29
   6  -3   3  505.16   20.90
   6  -3   4   56.03    6.83
   6  -3   5  342.36   17.97
   6  -3   6  816.57   30.53
   6  -3   7  672.79   27.85
   6  -3   7  689.19   28.46
   6  -3   8  551.49   25.32
   6  -3   8  554.55   26.09
   6  -3   9  652.21   28.59
   6  -3   9  623.47   28.88
   6  -3  10   66.46    9.29
   6  -3  11  575.93   28.07
   6  -2 -15   11.44    4.88
   6  -2 -14   38.89    7.01
   6  -2 -13   23.36    5.06
   6  -2 -12   20.21    4.90
   6  -2 -11  122.52   10.08
   6  -2 -10 1108.25   33.12
   6  -2  -9    7.13    2.72
   6  -2  -8  659.75   21.38
   6  -2  -7  226.57   10.57
   6  -2  -7  216.35   12.64
   6  -2  -6  587.61   24.51
   6  -2  -6  578.71   17.25
   6  -2  -6  567.51   20.53
   6  -2  -6  577.76   21.25
   6  -2  -5  365.23   18.36
   6  -2  -5  393.65   12.48
   6  -2  -5  388.84   11.39
   6  -2  -5  366.96   15.15
   6  -2  -5  397.52   16.03
   6  -2  -4 1473.46   40.63
   6  -2  -4 1448.87   31.77
   6  -2  -4 1442.19   34.51
   6  -2  -4 1401.41   35.15
   6  -2  -3   47.11    6.16
   6  -2  -3   51.61    6.11
   6  -2  -3   37.36    3.86
   6  -2  -3   44.57    4.23
   6  -2  -3   49.95    4.68
   6  -2  -2  155.93   10.65
   6  -2  -2  143.77   10.44
   6  -2  -2  125.00    7.62
   6  -2  -2  124.02    6.29
   6  -2  -2  118.82    6.67
   6  -2  -1  124.90    9.46
   6  -2  -1  123.42    8.04
   6  -2  -1  118.40    5.97
   6  -2  -1  116.93    5.28
   6  -2   0   25.69    4.62
   6  -2   0   24.65    4.09
   6  -2   0   22.74    2.29
   6  -2   1   17.66    4.16
   6  -2   1   19.57    3.94
   6  -2   1   19.83    1.67
   6  -2   2  105.08    8.89
   6  -2   2  115.17    8.95
   6  -2   3  128.04   10.12
   6  -2   3  143.18   10.40
   6  -2   4  349.75   17.43
   6  -2   5    8.98    3.44
   6  -2   6  475.31   11.35
   6  -2   6  479.47   11.30
   6  -2   6  429.67   21.26
   6  -2   7 1030.79   22.58
   6  -2   7 1022.09   36.11
   6  -2   8  183.06   14.55
   6  -2   9  281.21   18.80
   6  -2  10  398.54   23.11
   6  -2  11   46.43    8.44
   6  -1 -15   15.74    5.25
   6  -1 -14   42.26    7.33
   6  -1 -13    3.51    3.16
   6  -1 -12    1.97    2.85
   6  -1 -11    6.03    3.25
   6  -1 -10  120.59    9.52
   6  -1  -9  278.93   13.96
   6  -1  -8  348.32   14.91
   6  -1  -7  508.83   17.50
   6  -1  -7  476.44   19.10
   6  -1  -7  503.76   11.06
   6  -1  -6  569.05   23.03
   6  -1  -6  520.38   16.90
   6  -1  -6  514.67   18.76
   6  -1  -6  512.23   13.46
   6  -1  -6  531.42   19.97
   6  -1  -5 1134.61   34.66
   6  -1  -5 1139.47   27.44
   6  -1  -5 1135.87   25.80
   6  -1  -5 1108.14   29.39
   6  -1  -5 1108.50   30.91
   6  -1  -4  276.47   14.74
   6  -1  -4  266.71   14.44
   6  -1  -4  248.10   10.08
   6  -1  -4  241.18   10.50
   6  -1  -4  250.41   11.70
   6  -1  -3 1019.49   31.32
   6  -1  -3  991.86   30.64
   6  -1  -3 1004.75   25.87
   6  -1  -3 1012.66   24.15
   6  -1  -3  982.38   26.23
   6  -1  -2   34.04    5.03
   6  -1  -2   33.46    4.92
   6  -1  -2   32.33    4.16
   6  -1  -2   34.26    2.81
   6  -1  -2   31.68    3.52
   6  -1  -1  834.63   24.49
   6  -1  -1  850.69   26.78
   6  -1  -1  845.28   21.02
   6  -1  -1  811.29   16.67
   6  -1   0  739.40   23.98
   6  -1   0  794.79   19.19
   6  -1   0  784.04   25.64
   6  -1   1  569.27   20.78
   6  -1   1  574.29   14.52
   6  -1   1  524.78   20.46
   6  -1   2  297.13   14.93
   6  -1   2  298.29    9.00
   6  -1   2  296.87   14.91
   6  -1   3    0.87    2.49
   6  -1   3    1.45    0.81
   6  -1   4   78.14    8.24
   6  -1   4   72.58    4.05
   6  -1   5  555.29   14.57
   6  -1   5  546.88   23.35
   6  -1   5  519.27   14.19
   6  -1   6    0.58    2.70
   6  -1   6    1.65    0.99
   6  -1   6    1.31    1.03
   6  -1   7  584.95   16.94
   6  -1   7  554.35   25.33
   6  -1   8  136.85   12.60
   6  -1   8  158.81    8.31
   6  -1   9   49.03    8.02
   6  -1  10  210.31   16.65
   6  -1  11  614.76   30.40
   6   0 -15  177.85   15.20
   6   0 -14  139.32   12.83
   6   0 -13  298.81   18.13
   6   0 -12  118.35   10.75
   6   0 -11  118.62   10.11
   6   0 -10  222.03   13.35
   6   0  -9   28.15    4.71
   6   0  -8   21.38    3.85
   6   0  -8   17.23    1.76
   6   0  -8   25.82    4.56
   6   0  -7    2.08    1.17
   6   0  -7    2.78    2.41
   6   0  -7   -0.37    2.01
   6   0  -6  516.04   21.82
   6   0  -6  488.17   17.19
   6   0  -6  505.02   14.63
   6   0  -6  484.00   17.77
   6   0  -6  521.78   19.78
   6   0  -5 1071.17   33.26
   6   0  -5 1067.04   32.83
   6   0  -5 1045.95   27.38
   6   0  -5 1063.77   25.95
   6   0  -5 1057.24   27.70
   6   0  -5 1102.09   30.46
   6   0  -4   66.37    7.24
   6   0  -4   65.82    7.08
   6   0  -4   70.35    5.41
   6   0  -4   70.11    5.14
   6   0  -4   70.14    6.13
   6   0  -3 1026.03   26.96
   6   0  -3 1085.11   31.95
   6   0  -3 1015.83   30.38
   6   0  -3  986.63   26.92
   6   0  -3 1002.00   23.48
   6   0  -2  953.08   26.74
   6   0  -2  976.37   30.19
   6   0  -2  908.83   28.30
   6   0  -2  952.68   25.18
   6   0  -2  985.32   20.64
   6   0  -1  526.99   18.82
   6   0  -1  507.47   15.94
   6   0  -1  533.54   19.72
   6   0   0 1216.37   33.52
   6   0   0 1224.69   28.59
   6   0   0 1294.04   34.45
   6   0   1 1337.33   36.70
   6   0   1 1340.03   30.08
   6   0   1 1382.83   36.47
   6   0   2  416.78   18.37
   6   0   2  427.77   13.12
   6   0   2  388.25   17.12
   6   0   3 1585.51   43.54
   6   0   3 1620.05   34.71
   6   0   4  782.71   28.18
   6   0   4  777.35   20.43
   6   0   5  374.04   19.16
   6   0   5  380.39   13.27
   6   0   6   71.70    8.64
   6   0   6   58.91    5.05
   6   0   7  131.31    7.94
   6   0   7  103.62   10.69
   6   0   8    7.83    3.54
   6   0   8    5.52    2.33
   6   0   9    5.05    3.49
   6   0  10    0.46    2.93
   6   1 -15  223.11   17.15
   6   1 -14  112.05   11.64
   6   1 -13    7.42    4.00
   6   1 -12  194.91   13.96
   6   1 -11  133.25   11.00
   6   1 -10   96.11    9.03
   6   1 -10   99.95    4.60
   6   1  -9  591.72   22.64
   6   1  -9  626.30   16.01
   6   1  -8   81.01    7.39
   6   1  -8   65.92    4.56
   6   1  -8   64.98    6.87
   6   1  -7    5.96    1.93
   6   1  -7    7.52    2.66
   6   1  -7    7.85    2.47
   6   1  -6   20.85    4.88
   6   1  -6   18.81    2.82
   6   1  -6   17.15    3.58
   6   1  -6   15.06    3.62
   6   1  -6   21.41    4.00
   6   1  -5   82.13    6.63
   6   1  -5   88.31    6.21
   6   1  -5   93.44    8.53
   6   1  -5   79.87    7.95
   6   1  -5   88.06    7.53
   6   1  -5   86.96    6.25
   6   1  -4    2.03    2.30
   6   1  -4    3.88    2.24
   6   1  -4    5.87    2.13
   6   1  -4    4.29    1.62
   6   1  -4    2.95    1.93
   6   1  -3   11.44    3.13
   6   1  -3    4.87    2.13
   6   1  -3    9.24    2.41
   6   1  -3   12.66    1.92
   6   1  -3   15.02    2.90
   6   1  -2  387.10   15.75
   6   1  -2  388.51   16.22
   6   1  -2  395.01   14.80
   6   1  -2  395.25   10.33
   6   1  -1  471.13   18.16
   6   1  -1  471.44   15.96
   6   1  -1  458.52   17.80
   6   1   0  642.17   22.57
   6   1   0  621.26   18.87
   6   1   0  634.42   21.48
   6   1   1 1142.32   33.51
   6   1   1 1110.01   28.02
   6   1   1 1156.64   31.79
   6   1   2  198.63   12.50
   6   1   2  198.60    9.41
   6   1   3 1061.01   33.71
   6   1   3 1065.82   27.24
   6   1   4  726.01   27.50
   6   1   4  728.38   21.39
   6   1   5  178.66   13.09
   6   1   5  179.57    9.61
   6   1   6  407.90   21.17
   6   1   6  420.81   16.17
   6   1   7  253.53   16.97
   6   1   8  245.02   17.26
   6   1   8  237.26   12.63
   6   1   9   74.92   10.06
   6   1  10   45.82    7.96
   6   2 -15   45.42    8.17
   6   2 -14  112.98   11.69
   6   2 -13  331.39   19.72
   6   2 -12  221.89   15.32
   6   2 -11  773.75   29.28
   6   2 -10  277.51   15.66
   6   2  -9  140.24   10.52
   6   2  -8  175.20    8.96
   6   2  -8  191.16   12.01
   6   2  -7  117.24    7.45
   6   2  -7  111.74    8.82
   6   2  -6  321.20   13.29
   6   2  -6  328.69   15.07
   6   2  -6  335.53   16.10
   6   2  -6  342.87   16.45
   6   2  -5   88.77    6.83
   6   2  -5   76.76    7.62
   6   2  -5   74.54    7.41
   6   2  -5   82.87    7.43
   6   2  -4    6.21    2.57
   6   2  -4    6.58    2.77
   6   2  -4    2.33    1.87
   6   2  -4    3.03    2.00
   6   2  -3   12.81    3.39
   6   2  -3   13.68    3.29
   6   2  -3   14.40    3.24
   6   2  -3   11.25    3.11
   6   2  -2   70.17    6.71
   6   2  -2   67.18    6.27
   6   2  -2   58.79    5.72
   6   2  -2   63.03    3.76
   6   2  -1  209.21   11.91
   6   2  -1  211.92   11.07
   6   2  -1  196.16   10.39
   6   2  -1  200.76    5.56
   6   2  -1  203.82    5.64
   6   2   0  182.35   11.59
   6   2   0  183.92    9.93
   6   2   0  183.16   10.21
   6   2   1  227.45   13.50
   6   2   1  203.39   10.40
   6   2   1  196.79   10.95
   6   2   2  293.17   15.93
   6   2   2  291.96   12.81
   6   2   3 1151.38   36.38
   6   2   3 1134.18   30.44
   6   2   4  135.83   11.50
   6   2   4  144.91    9.12
   6   2   5  364.19   19.62
   6   2   5  353.65   15.37
   6   2   6 1410.46   43.92
   6   2   6 1284.11   35.63
   6   2   7  115.30   11.51
   6   2   8  266.18   18.30
   6   2   9  108.32   12.09
   6   2   9   99.04    8.97
   6   2  10   72.29   10.14
   6   3 -15  102.21   12.02
   6   3 -14    2.72    3.96
   6   3 -13  224.83   16.31
   6   3 -12  179.71   14.01
   6   3 -11  250.26   15.86
   6   3 -10  789.59   29.25
   6   3  -9  798.69   28.62
   6   3  -8  108.81    9.44
   6   3  -7 1803.37   46.60
   6   3  -6  982.27   30.32
   6   3  -6  988.01   31.22
   6   3  -6  969.89   30.31
   6   3  -5  125.96    8.87
   6   3  -5  121.26    9.39
   6   3  -5  117.89    9.27
   6   3  -5  133.36    9.47
   6   3  -4  196.30   11.35
   6   3  -4  206.74   12.17
   6   3  -4  208.55   11.39
   6   3  -4  205.49   11.98
   6   3  -3   75.38    7.14
   6   3  -3   79.92    6.68
   6   3  -3   67.33    6.54
   6   3  -3   70.38    5.05
   6   3  -2   13.88    3.79
   6   3  -2    8.22    2.28
   6   3  -2    8.81    2.58
   6   3  -2   13.85    2.24
   6   3  -1   99.81    8.74
   6   3  -1   88.62    6.86
   6   3  -1   97.91    7.70
   6   3  -1  100.67    4.79
   6   3   0    2.55    2.52
   6   3   0    0.97    1.52
   6   3   0    1.87    2.00
   6   3   0    0.78    0.58
   6   3   1  104.49    9.35
   6   3   1  103.42    7.89
   6   3   1  106.53    3.96
   6   3   2   49.58    6.73
   6   3   2   65.07    6.26
   6   3   3  431.93   20.90
   6   3   3  426.99   17.51
   6   3   4  293.50   17.40
   6   3   4  274.65   13.96
   6   3   5  193.05   14.61
   6   3   5  208.33   12.33
   6   3   6 1094.43   38.98
   6   3   7  108.71   11.43
   6   3   8  244.61   17.91
   6   3   9  151.38   14.36
   6   4 -15    3.92    4.13
   6   4 -14   49.60    8.47
   6   4 -13   45.69    7.72
   6   4 -12   96.29   10.70
   6   4 -11   27.70    5.80
   6   4 -10  142.95   11.94
   6   4  -9  642.24   26.05
   6   4  -8  260.77   15.43
   6   4  -7  750.01   27.22
   6   4  -6 1145.11   33.23
   6   4  -6 1155.66   34.14
   6   4  -6 1147.28   34.82
   6   4  -5  345.98   16.24
   6   4  -5  348.78   15.48
   6   4  -4  533.77   19.10
   6   4  -4  530.64   20.87
   6   4  -4  546.74   17.96
   6   4  -3  395.78   17.91
   6   4  -3  395.10   15.29
   6   4  -3  407.35   17.95
   6   4  -3  392.92   14.04
   6   4  -2  267.25   14.75
   6   4  -2  283.76   12.17
   6   4  -2  288.52   14.54
   6   4  -2  268.65   10.61
   6   4  -1  456.32   20.19
   6   4  -1  486.91   16.45
   6   4  -1  468.68   19.07
   6   4  -1  455.37   13.88
   6   4   0  190.08   13.05
   6   4   0  195.95    9.90
   6   4   0  215.95   12.38
   6   4   0  196.95    7.88
   6   4   1  346.29   17.87
   6   4   1  319.77   15.42
   6   4   1  320.75   10.38
   6   4   2   37.84    6.52
   6   4   2   26.33    4.42
   6   4   2   27.55    2.85
   6   4   3    6.99    3.46
   6   4   4  209.27   15.32
   6   4   5  275.53   17.96
   6   4   6  164.99   14.28
   6   4   7   55.53    8.66
   6   4   8  404.27   23.75
   6   5 -14   69.20    9.75
   6   5 -13   71.23    9.68
   6   5 -12  155.02   13.84
   6   5 -11    5.86    3.62
   6   5 -10   44.18    7.10
   6   5  -9   19.21    5.41
   6   5  -8  122.73   10.92
   6   5  -7  244.86   13.88
   6   5  -7  239.54   15.08
   6   5  -6  433.89   18.52
   6   5  -6  420.99   17.44
   6   5  -5  447.64   18.60
   6   5  -5  458.93   17.27
   6   5  -5  425.71   17.18
   6   5  -4  848.38   24.30
   6   5  -4  808.48   24.50
   6   5  -3  316.34   12.65
   6   5  -3  280.52   15.75
   6   5  -3  310.57   12.99
   6   5  -2 1299.21   30.78
   6   5  -2 1227.12   37.88
   6   5  -2 1257.37   31.17
   6   5  -1  778.54   21.31
   6   5  -1  761.32   28.40
   6   5  -1  756.31   21.23
   6   5   0  416.05   20.37
   6   5   0  426.82   14.22
   6   5   1  317.18   18.00
   6   5   1  306.42   11.59
   6   5   2  705.16   28.85
   6   5   2  730.98   20.24
   6   5   3  197.73   16.38
   6   5   3  173.98    8.70
   6   5   4  579.36   27.08
   6   5   4  619.43   18.98
   6   5   5   16.78    5.31
   6   5   6   24.38    6.66
   6   5   7   12.18    5.85
   6   6 -14  126.75   13.49
   6   6 -13   98.14   11.78
   6   6 -12   66.38    9.16
   6   6 -11  118.87   11.95
   6   6 -10    0.60    3.28
   6   6  -9  300.59   18.57
   6   6  -8    2.49    2.97
   6   6  -7   61.86    6.77
   6   6  -7   67.58    6.97
   6   6  -6    3.28    2.03
   6   6  -6   -1.28    2.38
   6   6  -6    0.36    2.16
   6   6  -5   36.99    4.37
   6   6  -5   38.95    5.38
   6   6  -4   65.94    5.37
   6   6  -4   74.94    6.85
   6   6  -3   22.05    3.05
   6   6  -3   21.87    3.72
   6   6  -2  552.29   15.86
   6   6  -2  509.83   23.25
   6   6  -2  526.02   18.62
   6   6  -1  764.90   29.38
   6   6  -1  714.35   22.12
   6   6   0  364.78   19.96
   6   6   0  371.77   14.47
   6   6   1  249.57   16.59
   6   6   1  226.80   10.91
   6   6   2  271.57   17.55
   6   6   2  271.26   12.15
   6   6   3  634.82   28.56
   6   6   3  627.87   20.28
   6   6   4  122.77   12.44
   6   6   5   98.05   11.49
   6   6   6  108.48   12.31
   6   7 -13  332.39   22.11
   6   7 -12  135.40   13.56
   6   7 -11  327.69   21.08
   6   7 -10  159.53   14.22
   6   7  -9   83.24   10.27
   6   7  -7   72.11    7.13
   6   7  -7   63.23    6.36
   6   7  -7   72.42    7.96
   6   7  -6    0.66    1.39
   6   7  -6    1.19    2.27
   6   7  -5    2.94    1.71
   6   7  -5    0.13    2.30
   6   7  -4   44.21    4.00
   6   7  -4   33.40    5.07
   6   7  -3   33.24    3.09
   6   7  -3   34.75    5.07
   6   7  -2   24.61    4.14
   6   7  -1  170.19   13.71
   6   7  -1  160.55   10.04
   6   7   0  101.28   10.63
   6   7   0   86.51    7.23
   6   7   1  125.78   12.16
   6   7   1  124.27    8.68
   6   7   2  343.90   20.79
   6   7   2  303.69   14.21
   6   7   3  681.03   30.73
   6   7   4  355.44   21.94
   6   7   5  128.47   13.46
   6   8 -12  237.66   18.87
   6   8 -11  310.40   21.02
   6   8 -10 1049.13   40.49
   6   8  -9  657.54   28.07
   6   8  -8  437.23   17.88
   6   8  -8  402.51   20.91
   6   8  -7  973.23   27.19
   6   8  -7  853.23   31.65
   6   8  -6  369.99   18.71
   6   8  -5   26.10    4.98
   6   8  -4  323.67   16.68
   6   8  -3   16.15    3.80
   6   8  -2   35.00    5.25
   6   8  -1   15.51    5.26
   6   8  -1   15.04    3.26
   6   8   0   33.99    7.00
   6   8   0   36.17    5.05
   6   8   1  125.90   12.87
   6   8   1  116.05    9.13
   6   8   2  197.60   16.29
   6   8   2  185.25   11.63
   6   8   3  289.39   20.09
   6   8   4  236.83   18.30
   6   9 -11  120.86   13.50
   6   9 -11  119.13   12.60
   6   9 -10  140.20   13.45
   6   9  -9  300.10   19.04
   6   9  -8  262.50   17.20
   6   9  -7  217.69   15.18
   6   9  -6  536.32   23.99
   6   9  -5  179.82   13.21
   6   9  -4  456.18   21.25
   6   9  -3  200.28   13.36
   6   9  -2   99.12    9.25
   6   9  -1   42.28    7.87
   6   9  -1   33.66    5.28
   6   9   0    2.15    3.53
   6   9   0    1.93    2.46
   6   9   1   14.25    5.63
   6   9   2   19.63    5.63
   6  10 -11    6.61    4.58
   6  10 -10   13.10    4.94
   6  10  -9  126.44   12.74
   6  10  -8  150.95   13.52
   6  10  -7  207.74   15.54
   6  10  -6   67.85    8.80
   6  10  -5  324.97   18.79
   6  10  -4  207.82   14.60
   6  10  -3  216.64   14.72
   6  10  -2  400.65   20.26
   6  10  -1  212.88   17.42
   6  10  -1  194.97   13.61
   6  11 -10   12.74    5.19
   6  11  -9   42.44    7.85
   6  11  -8   24.56    6.25
   6  11  -7   47.11    8.09
   6  11  -6   96.84   10.87
   6  11  -5   52.23    8.19
   6  11  -4  126.87   12.06
   6  11  -3  106.98   10.74
   6  11  -2  259.19   16.95
   6  12  -8   20.84    6.42
   6  12  -7    5.04    4.00
   6  12  -6    8.88    4.69
   6  12  -5   23.75    6.01
   6  12  -4   74.86    9.83
   7 -13  -3  123.24   13.39
   7 -13  -2   49.54    8.46
   7 -13  -1  148.22   14.46
   7 -13   0  102.41   12.02
   7 -13   1  128.86   13.52
   7 -12  -5   -2.38    3.75
   7 -12  -4    8.60    4.75
   7 -12  -3  131.58   13.30
   7 -12  -2   94.70   11.36
   7 -12  -1  124.27   12.81
   7 -12   0  149.80   14.27
   7 -12   1   76.50   10.27
   7 -12   2   81.76   10.76
   7 -12   3  286.39   19.48
   7 -12   4  223.52   17.61
   7 -11  -6   70.78   10.15
   7 -11  -5    1.18    3.50
   7 -11  -4   95.15   11.30
   7 -11  -3    8.32    4.66
   7 -11  -2  127.28   12.98
   7 -11  -1   89.57   10.86
   7 -11   0   76.12   10.07
   7 -11   1   17.77    5.08
   7 -11   2  108.16   11.84
   7 -11   3  121.65   12.44
   7 -11   4  456.47   25.26
   7 -11   5  261.88   19.18
   7 -10  -7  228.61   18.25
   7 -10  -6  399.03   23.73
   7 -10  -5  172.35   15.14
   7 -10  -4   54.77    8.95
   7 -10  -3  201.69   15.90
   7 -10  -2   53.88    8.22
   7 -10  -1    5.14    4.29
   7 -10   0   85.14   10.18
   7 -10   1    0.09    3.29
   7 -10   2  192.97   15.47
   7 -10   3  195.12   15.43
   7 -10   3  181.90   15.39
   7 -10   4   85.65   10.65
   7 -10   5  480.31   26.09
   7 -10   6  184.18   16.15
   7  -9  -8  131.97   13.96
   7  -9  -7  136.68   13.74
   7  -9  -6   95.02   11.48
   7  -9  -5  116.52   12.33
   7  -9  -4  173.56   14.83
   7  -9  -3  127.21   12.48
   7  -9  -2  239.89   16.94
   7  -9  -1  278.98   18.32
   7  -9   0   34.62    6.65
   7  -9   1  443.24   23.49
   7  -9   2   -0.64    3.15
   7  -9   3   37.59    6.91
   7  -9   4   39.98    7.72
   7  -9   5    5.71    4.01
   7  -9   6  495.03   26.43
   7  -9   7    5.22    3.76
   7  -8  -9    0.94    3.87
   7  -8  -8   76.41   10.78
   7  -8  -7  285.47   19.97
   7  -8  -6  227.34   17.20
   7  -8  -5  223.51   16.66
   7  -8  -4  646.96   29.02
   7  -8  -3  379.90   21.28
   7  -8  -2  102.63   10.85
   7  -8  -1  167.28   13.80
   7  -8   0  244.99   16.78
   7  -8   1   80.88    9.55
   7  -8   2  394.96   21.62
   7  -8   3   59.24    8.53
   7  -8   4   14.42    5.15
   7  -8   5    8.00    4.31
   7  -8   6   29.27    6.39
   7  -8   7  103.51   11.81
   7  -8   8   28.83    6.23
   7  -7 -10   14.33    6.02
   7  -7  -9    3.99    4.41
   7  -7  -8    8.58    5.07
   7  -7  -7    6.41    3.82
   7  -7  -6    4.99    4.41
   7  -7  -5  160.07   13.99
   7  -7  -4  342.98   19.94
   7  -7  -3  530.71   25.14
   7  -7  -2 1255.74   41.20
   7  -7  -1  184.50   14.09
   7  -7  -1  198.20   12.02
   7  -7   0  215.08   15.20
   7  -7   0  188.65   11.42
   7  -7   1  682.44   28.52
   7  -7   2  147.30   12.72
   7  -7   3  445.09   23.05
   7  -7   5   27.54    6.51
   7  -7   6  182.21   15.35
   7  -7   7    5.44    3.85
   7  -7   8   52.18    8.47
   7  -7   9   -1.19    4.09
   7  -6 -10  246.92   19.22
   7  -6  -9  561.82   28.87
   7  -6  -8   51.97    8.72
   7  -6  -7   80.07   10.34
   7  -6  -6    1.90    3.63
   7  -6  -5   15.71    4.95
   7  -6  -4   16.60    5.09
   7  -6  -3   16.92    4.79
   7  -6  -3   16.75    3.70
   7  -6  -2  184.03   14.16
   7  -6  -2  266.80   13.99
   7  -6  -1   79.46    9.04
   7  -6  -1   76.91    6.89
   7  -6   0    1.02    3.13
   7  -6   0    5.98    2.23
   7  -6   1  698.71   28.39
   7  -6   2  211.48   14.77
   7  -6   3  558.40   25.60
   7  -6   6   46.23    7.95
   7  -6   7  226.86   17.03
   7  -6   8   47.34    8.11
   7  -6   9   12.66    4.89
   7  -5 -11  300.61   21.56
   7  -5 -10   61.02    9.87
   7  -5  -9  532.91   27.83
   7  -5  -8  402.92   23.48
   7  -5  -8  420.37   14.91
   7  -5  -7  145.25   13.68
   7  -5  -7  158.39    7.49
   7  -5  -6  504.43   24.48
   7  -5  -6  460.57   11.98
   7  -5  -5  203.38   15.14
   7  -5  -4   97.04   10.14
   7  -5  -4   90.37    7.86
   7  -5  -3   41.34    6.54
   7  -5  -3   45.59    5.27
   7  -5  -2   32.19    6.00
   7  -5  -2   28.43    4.11
   7  -5  -1    5.20    3.38
   7  -5  -1    4.98    1.82
   7  -5   0   -2.19    3.17
   7  -5   0    0.63    1.50
   7  -5   1  117.18   10.76
   7  -5   2   39.56    6.48
   7  -5   3  648.16   27.47
   7  -5   8  335.98   21.14
   7  -5   9  195.16   16.58
   7  -5  10  160.89   15.06
   7  -4 -11  198.15   12.53
   7  -4 -10  164.44   15.81
   7  -4 -10  169.87   10.80
   7  -4  -9   23.80    6.13
   7  -4  -9   30.80    4.34
   7  -4  -8  166.49   14.43
   7  -4  -8  180.54    9.34
   7  -4  -7  433.41   23.24
   7  -4  -7  475.83   14.83
   7  -4  -6  550.49   25.65
   7  -4  -6  547.42   14.53
   7  -4  -5  273.25   17.27
   7  -4  -5  309.60   14.93
   7  -4  -4  557.94   24.54
   7  -4  -4  549.76   19.91
   7  -4  -3   72.60    8.42
   7  -4  -3   68.59    6.05
   7  -4  -2  310.59   17.25
   7  -4  -2  300.74   12.49
   7  -4  -1  240.64   14.91
   7  -4  -1  219.99    9.78
   7  -4   0  143.12   11.56
   7  -4   0  140.58    7.05
   7  -4   1    8.65    4.02
   7  -4   1   10.96    3.34
   7  -4   2  257.35   15.79
   7  -4   2  248.64   14.38
   7  -4   3  113.60   10.68
   7  -4   3  145.12   11.25
   7  -4   4   46.76    6.69
   7  -4   5    9.73    4.13
   7  -4   6 1159.45   39.71
   7  -3 -12   60.07    7.42
   7  -3 -11   -1.57    2.17
   7  -3 -10   55.59    6.11
   7  -3  -9  387.03   22.91
   7  -3  -9  391.08   16.05
   7  -3  -8   40.48    7.69
   7  -3  -8   37.27    4.42
   7  -3  -7  942.01   35.44
   7  -3  -7  982.47   25.13
   7  -3  -6  669.02   27.84
   7  -3  -6  662.10   17.67
   7  -3  -6  630.04   22.90
   7  -3  -5  467.42   22.19
   7  -3  -5  453.71   17.81
   7  -3  -4  563.76   24.51
   7  -3  -4  590.91   19.64
   7  -3  -3  854.02   30.64
   7  -3  -3  890.39   24.51
   7  -3  -3  837.23   23.58
   7  -3  -2   -0.91    2.72
   7  -3  -2   11.10    3.00
   7  -3  -2    3.75    1.66
   7  -3  -1  373.40   18.46
   7  -3  -1  361.55   11.53
   7  -3  -1  340.21   15.22
   7  -3   0  300.98   16.54
   7  -3   0  286.23   14.30
   7  -3   1  114.23   10.12
   7  -3   1  123.66    9.60
   7  -3   2   26.08    5.23
   7  -3   2   32.56    5.30
   7  -3   3  112.27   10.20
   7  -3   3  111.71    9.85
   7  -3   4   59.02    7.78
   7  -3   5   12.81    4.33
   7  -3   6  119.00   11.50
   7  -3   7  275.42   18.37
   7  -3   8   62.95    9.02
   7  -3   9  284.09   19.79
   7  -2 -14   47.31    7.42
   7  -2 -13   93.20    9.88
   7  -2 -12    8.11    3.14
   7  -2 -11    9.22    3.33
   7  -2 -10   48.28    6.01
   7  -2  -9  181.16   10.79
   7  -2  -8   21.73    6.03
   7  -2  -8   20.81    3.46
   7  -2  -7    6.13    4.22
   7  -2  -7    9.85    2.42
   7  -2  -7   10.10    2.83
   7  -2  -6  458.19   22.17
   7  -2  -6  468.44   15.08
   7  -2  -6  460.44   18.23
   7  -2  -6  446.80   18.86
   7  -2  -5  340.75   18.46
   7  -2  -5  363.03   14.89
   7  -2  -5  372.49   12.62
   7  -2  -5  351.80   15.55
   7  -2  -4  738.67   27.76
   7  -2  -4  736.16   20.89
   7  -2  -4  721.12   21.32
   7  -2  -4  684.58   22.18
   7  -2  -3  772.44   28.18
   7  -2  -3  768.25   20.96
   7  -2  -3  797.60   23.22
   7  -2  -3  798.98   22.82
   7  -2  -2 1181.30   36.81
   7  -2  -2 1240.19   32.79
   7  -2  -2 1237.81   27.35
   7  -2  -2 1255.83   29.75
   7  -2  -1   55.05    6.83
   7  -2  -1   62.63    3.32
   7  -2  -1   76.87    6.87
   7  -2  -1   60.83    4.49
   7  -2   0  598.46   23.74
   7  -2   0  555.45   21.17
   7  -2   0  587.18   15.05
   7  -2   1 1106.37   35.06
   7  -2   1 1125.87   33.81
   7  -2   1 1150.13   22.94
   7  -2   2   40.37    5.76
   7  -2   2   50.08    6.57
   7  -2   3  165.09   12.21
   7  -2   4  267.33   16.23
   7  -2   5   53.24    7.50
   7  -2   6   20.46    5.60
   7  -2   7    1.24    3.35
   7  -2   8  252.31   18.03
   7  -2   9   10.16    4.55
   7  -1 -15  200.11   15.93
   7  -1 -14  130.26   12.28
   7  -1 -13   88.87    9.68
   7  -1 -12  403.68   20.10
   7  -1 -11  219.80   13.74
   7  -1 -10  279.70   14.88
   7  -1  -9  436.77   17.97
   7  -1  -8   81.55    9.86
   7  -1  -8   83.54    6.97
   7  -1  -7   10.57    4.63
   7  -1  -7   11.06    1.76
   7  -1  -7    7.24    2.35
   7  -1  -7    3.84    1.98
   7  -1  -6   11.68    4.07
   7  -1  -6    8.93    1.94
   7  -1  -6   11.64    2.73
   7  -1  -6    6.67    2.89
   7  -1  -6    8.10    2.32
   7  -1  -5   12.87    4.07
   7  -1  -5   15.22    2.72
   7  -1  -5   16.30    3.51
   7  -1  -5    7.70    2.25
   7  -1  -4   19.53    4.53
   7  -1  -4   26.76    3.72
   7  -1  -4   25.95    3.90
   7  -1  -4   28.94    3.59
   7  -1  -3   10.74    3.46
   7  -1  -3    8.21    2.42
   7  -1  -3   11.44    2.68
   7  -1  -3    7.55    1.80
   7  -1  -2   77.13    7.96
   7  -1  -2   80.24    6.90
   7  -1  -2   76.51    5.74
   7  -1  -2   71.72    3.83
   7  -1  -1  154.97   11.17
   7  -1  -1  148.28    9.91
   7  -1  -1  170.47    8.18
   7  -1   0  105.09    8.53
   7  -1   0   96.38    5.63
   7  -1   0   94.36    8.80
   7  -1   1  551.67   21.81
   7  -1   1  547.28   14.72
   7  -1   1  521.41   21.83
   7  -1   2  567.95   23.34
   7  -1   2  607.71   15.08
   7  -1   2  607.63   24.01
   7  -1   3  112.81   10.06
   7  -1   3  102.55    4.76
   7  -1   4  428.62   11.42
   7  -1   4  400.96   20.37
   7  -1   5  155.70   12.84
   7  -1   5  162.78    6.36
   7  -1   6    5.33    3.94
   7  -1   7   78.52    9.84
   7  -1   8   23.37    6.43
   7  -1   9   37.71    7.24
   7   0 -15  100.92   11.30
   7   0 -14  114.24   11.60
   7   0 -13   76.11    9.33
   7   0 -12  191.06   13.68
   7   0 -11  374.71   18.68
   7   0 -10   40.97    5.92
   7   0  -9  738.18   25.26
   7   0  -9  725.14   15.15
   7   0  -8  236.63   15.95
   7   0  -8  228.96   12.42
   7   0  -8  221.59    8.20
   7   0  -7  367.57   19.90
   7   0  -7  409.50   16.33
   7   0  -7  382.41   12.72
   7   0  -7  374.61   16.41
   7   0  -6  374.31   19.16
   7   0  -6  366.19   14.77
   7   0  -6  358.72   13.13
   7   0  -6  362.35   15.03
   7   0  -5  260.08   15.77
   7   0  -5  290.97   12.15
   7   0  -5  264.13   11.69
   7   0  -5  269.24   13.63
   7   0  -4    0.27    2.78
   7   0  -4    1.00    1.85
   7   0  -4    1.09    1.12
   7   0  -4    1.46    1.53
   7   0  -3    3.32    2.37
   7   0  -3    7.15    2.88
   7   0  -3    8.67    1.71
   7   0  -3    4.63    1.90
   7   0  -2    9.93    3.28
   7   0  -2   12.99    3.31
   7   0  -2   13.38    1.31
   7   0  -2   15.09    2.69
   7   0  -1  136.71    9.80
   7   0  -1  148.69    8.16
   7   0  -1  139.03   10.36
   7   0   0  174.28   11.56
   7   0   0  187.40    8.87
   7   0   0  185.30   11.98
   7   0   1   11.27    3.70
   7   0   1   13.37    2.42
   7   0   1   10.92    3.53
   7   0   2   96.60    9.16
   7   0   2   89.48    5.61
   7   0   2   76.52    8.06
   7   0   3  523.88   23.30
   7   0   3  543.72   15.98
   7   0   4   99.43   10.10
   7   0   4   85.14    5.60
   7   0   5  736.12   29.90
   7   0   6 1011.24   37.29
   7   0   7   58.91    8.80
   7   0   8  167.10   14.87
   7   0   9   70.28    9.93
   7   1 -15   -0.27    3.39
   7   1 -14   81.79    9.91
   7   1 -13  113.56   11.35
   7   1 -12   95.71    9.79
   7   1 -11  300.32   16.90
   7   1 -10  157.17   11.50
   7   1  -9  180.62   11.93
   7   1  -9  190.53    8.07
   7   1  -8  186.14   14.02
   7   1  -8  174.34   11.29
   7   1  -8  185.45    8.67
   7   1  -8  177.82   11.48
   7   1  -7  962.23   33.22
   7   1  -7  941.58   28.69
   7   1  -7  910.43   24.73
   7   1  -7  936.51   28.20
   7   1  -6  845.56   30.02
   7   1  -6  850.75   26.02
   7   1  -6  835.65   23.92
   7   1  -6  813.46   24.52
   7   1  -5   87.49    6.88
   7   1  -5   80.86    8.36
   7   1  -5   81.83    7.45
   7   1  -5   86.53    6.29
   7   1  -4  261.23   12.80
   7   1  -4  260.75   14.62
   7   1  -4  262.50   13.25
   7   1  -4  280.01   10.69
   7   1  -3   57.99    6.17
   7   1  -3   69.92    7.33
   7   1  -3   62.60    6.07
   7   1  -3   68.15    4.26
   7   1  -2  147.94   10.22
   7   1  -2  157.79   10.82
   7   1  -2  172.72    9.81
   7   1  -2  152.72    4.59
   7   1  -2  158.51    4.61
   7   1  -1   39.54    5.47
   7   1  -1   51.32    6.32
   7   1  -1   39.80    4.55
   7   1   0   32.80    5.38
   7   1   0   28.24    3.77
   7   1   0   30.39    5.16
   7   1   1   21.97    4.95
   7   1   1   16.60    2.85
   7   1   1   16.68    4.26
   7   1   2  127.55   10.92
   7   1   2  134.18    7.95
   7   1   3  184.29   13.59
   7   1   3  191.35    9.68
   7   1   4  125.94   11.51
   7   1   4  132.33    8.05
   7   1   5  226.41   15.97
   7   1   6 1064.85   38.82
   7   1   7  268.25   18.52
   7   1   8  131.60   13.19
   7   2 -15   -1.66    2.97
   7   2 -14   35.26    6.83
   7   2 -13   -1.72    3.68
   7   2 -12   67.10    8.51
   7   2 -11   13.07    3.89
   7   2 -10  265.33   15.68
   7   2 -10  260.18   10.73
   7   2  -9   31.92    3.79
   7   2  -9   23.73    4.94
   7   2  -8  112.29   10.63
   7   2  -8  114.27    9.52
   7   2  -8  122.09    7.79
   7   2  -8   94.04    8.39
   7   2  -7  704.20   27.51
   7   2  -7  707.14   24.97
   7   2  -7  731.19   22.47
   7   2  -7  687.08   23.34
   7   2  -6  904.68   30.92
   7   2  -6  915.45   26.92
   7   2  -6  918.72   26.34
   7   2  -5   32.27    5.36
   7   2  -5   32.89    4.65
   7   2  -5   28.74    3.67
   7   2  -4  498.69   19.53
   7   2  -4  532.67   21.28
   7   2  -4  537.41   20.49
   7   2  -4  527.53   15.96
   7   2  -3  204.16   12.19
   7   2  -3  205.60   12.32
   7   2  -3  227.43   12.34
   7   2  -3  230.17    8.40
   7   2  -3  215.45    8.29
   7   2  -2   91.11    8.35
   7   2  -2   99.37    8.31
   7   2  -2   99.83    7.82
   7   2  -2   97.59    3.92
   7   2  -2   95.75    3.97
   7   2  -1  307.94   16.07
   7   2  -1  315.61   14.18
   7   2  -1  331.51   15.45
   7   2   0   82.89    8.49
   7   2   0   84.95    7.02
   7   2   0   72.38    7.12
   7   2   1    5.15    2.97
   7   2   1    6.33    2.50
   7   2   1    6.63    2.91
   7   2   2   -1.50    3.25
   7   2   2    3.81    2.03
   7   2   3    3.85    3.38
   7   2   3    8.53    2.82
   7   2   4   68.55    8.99
   7   2   4   72.44    6.63
   7   2   5  170.09   14.14
   7   2   6  186.63   15.30
   7   2   7  261.65   18.68
   7   2   8  177.88   15.85
   7   3 -15   16.56    5.73
   7   3 -14    6.46    4.49
   7   3 -13   71.11    9.39
   7   3 -12   15.07    4.87
   7   3 -11   12.57    4.13
   7   3 -10    5.27    2.29
   7   3 -10    0.14    3.25
   7   3  -9   98.25    7.52
   7   3  -9   99.04    9.69
   7   3  -8  106.73   10.14
   7   3  -8   94.38    7.63
   7   3  -8   95.73    9.12
   7   3  -7  456.95   21.02
   7   3  -7  467.22   18.24
   7   3  -7  440.18   19.84
   7   3  -6  225.88   13.74
   7   3  -6  238.97   12.89
   7   3  -5  454.81   19.44
   7   3  -5  431.88   18.40
   7   3  -4  437.12   18.45
   7   3  -4  433.50   18.79
   7   3  -4  433.61   14.79
   7   3  -3  411.49   18.53
   7   3  -3  379.88   16.81
   7   3  -3  391.35   17.60
   7   3  -3  423.29   13.14
   7   3  -2  660.66   24.95
   7   3  -2  637.15   22.54
   7   3  -2  668.62   23.46
   7   3  -2  669.69   16.17
   7   3  -1   83.98    8.59
   7   3  -1   96.05    7.84
   7   3  -1   92.67    7.90
   7   3  -1   98.09    3.27
   7   3  -1   95.20    3.25
   7   3   0  286.11   16.37
   7   3   0  278.72   14.11
   7   3   0  302.53   14.30
   7   3   1  114.43   10.43
   7   3   1  135.10    9.54
   7   3   2  148.43   12.43
   7   3   2  142.99    9.92
   7   3   3    6.15    3.76
   7   3   3    5.64    1.92
   7   3   4   14.73    4.68
   7   3   5   30.47    6.71
   7   3   6    3.59    3.27
   7   3   7   87.27   10.99
   7   4 -14  241.20   18.05
   7   4 -13   92.31   11.18
   7   4 -12  195.52   15.49
   7   4 -11  138.22   12.64
   7   4 -10   44.53    7.26
   7   4  -9   99.76   10.49
   7   4  -8    3.00    2.92
   7   4  -8    9.95    3.85
   7   4  -7   15.63    3.81
   7   4  -7   21.69    4.43
   7   4  -6   52.17    6.54
   7   4  -6   56.96    6.80
   7   4  -5    0.73    2.16
   7   4  -5    3.72    2.68
   7   4  -4  372.54   16.07
   7   4  -4  325.20   16.84
   7   4  -4  335.71   13.37
   7   4  -3   99.65    7.81
   7   4  -3   85.57    8.78
   7   4  -3   93.59    6.10
   7   4  -2  431.61   16.85
   7   4  -2  411.20   19.86
   7   4  -2  400.77   12.75
   7   4  -1  373.33   15.35
   7   4  -1  358.31   18.68
   7   4  -1  347.32   10.56
   7   4   0   82.08    9.16
   7   4   0   64.35    3.35
   7   4   1  248.86   16.25
   7   4   2  462.68   23.10
   7   4   3   84.64   10.12
   7   4   4  218.31   16.50
   7   4   5  176.99   15.31
   7   4   6   35.78    7.20
   7   5 -14  456.52   26.10
   7   5 -13  107.23   12.12
   7   5 -12  118.94   12.60
   7   5 -11  152.24   13.68
   7   5 -10  224.41   16.05
   7   5  -9  155.23   12.98
   7   5  -8  420.09   20.19
   7   5  -7  127.01   10.13
   7   5  -6   17.12    3.55
   7   5  -6   19.52    3.78
   7   5  -5   13.30    3.00
   7   5  -5   15.44    4.22
   7   5  -5   18.39    3.64
   7   5  -4   -1.72    2.12
   7   5  -4   -5.17    2.94
   7   5  -4    1.08    1.49
   7   5  -3  294.67   13.17
   7   5  -3  263.83   16.11
   7   5  -3  283.62   12.12
   7   5  -2  145.45    8.83
   7   5  -2  143.27   11.87
   7   5  -2  152.55    8.00
   7   5  -1  125.71    8.06
   7   5  -1  101.87   10.39
   7   5  -1  101.77    6.15
   7   5   0  192.17   14.36
   7   5   0  190.79    8.05
   7   5   1    6.67    4.52
   7   5   2  238.29   17.03
   7   5   3  506.74   25.78
   7   5   4  252.71   18.27
   7   5   5  579.41   28.96
   7   6 -13  210.51   17.44
   7   6 -12   74.05   10.29
   7   6 -11  142.74   13.59
   7   6 -10  302.54   19.61
   7   6  -9  132.43   11.04
   7   6  -9  119.71   12.03
   7   6  -8  347.92   17.55
   7   6  -7  258.44   14.21
   7   6  -7  262.53   14.81
   7   6  -6  145.16    9.93
   7   6  -6  129.67    9.79
   7   6  -5   52.65    5.59
   7   6  -5   53.19    6.11
   7   6  -4   23.70    3.76
   7   6  -4   16.72    4.95
   7   6  -4   21.63    3.78
   7   6  -3  145.71    8.45
   7   6  -3  125.66   11.61
   7   6  -3  136.58    8.85
   7   6  -2    7.40    2.01
   7   6  -2    6.12    4.36
   7   6  -2    4.29    1.68
   7   6  -1    7.16    3.74
   7   6  -1    6.62    1.95
   7   6   0   63.07    8.52
   7   6   1  387.67   22.06
   7   6   2  177.54   15.04
   7   6   3  447.51   24.82
   7   6   4  202.93   16.58
   7   7 -12  125.67   13.56
   7   7 -11   50.66    8.80
   7   7 -10  201.89   16.43
   7   7  -9   96.67    9.15
   7   7  -8  299.15   15.73
   7   7  -8  263.07   16.24
   7   7  -7  456.64   18.40
   7   7  -7  397.94   19.51
   7   7  -6  181.97   10.41
   7   7  -6  177.15   12.14
   7   7  -5  307.91   15.65
   7   7  -4   20.13    5.74
   7   7  -4   16.48    3.63
   7   7  -3  237.25   16.63
   7   7  -3  238.88   12.81
   7   7  -2  106.43   11.33
   7   7  -2  114.64    8.26
   7   7  -1    3.36    3.47
   7   7   0   56.27    8.57
   7   7   1    5.38    3.42
   7   7   2   10.63    5.17
   7   7   3    0.23    4.49
   7   8 -11   34.41    7.82
   7   8 -10    5.95    3.91
   7   8  -9  158.38   13.28
   7   8  -8  216.18   15.07
   7   8  -7  281.64   16.65
   7   8  -6  164.18   12.17
   7   8  -5  592.83   23.87
   7   8  -4   99.60    8.86
   7   8  -3  487.37   25.50
   7   8  -3  481.03   20.06
   7   8  -2  169.14   14.90
   7   8  -1   22.41    5.79
   7   8   0    4.90    3.92
   7   8   1  156.64   14.87
   7   9 -12   23.91    6.64
   7   9 -11    5.19    3.46
   7   9 -10   10.80    4.68
   7   9  -9    2.61    3.26
   7   9  -8   11.69    4.62
   7   9  -7   84.09    9.49
   7   9  -6   77.47    8.97
   7   9  -5  223.12   14.63
   7   9  -4  397.36   19.39
   7   9  -3  387.79   23.31
   7   9  -2  322.69   21.32
   7   9  -1   69.16   10.36
   7  10 -10  125.61   13.19
   7  10  -9   79.16   10.59
   7  10  -8   56.97    8.61
   7  10  -7    3.14    3.87
   7  10  -6    3.82    3.48
   7  11  -9  181.27   15.86
   7  11  -8   47.21    8.14
   8 -11  -3  164.98   15.47
   8 -11  -2  323.12   21.63
   8 -11  -1  108.16   12.38
   8 -11   0   19.99    5.93
   8 -11   1   30.53    7.08
   8 -11   2   30.55    7.18
   8 -10  -5  102.18   12.34
   8 -10  -4  243.29   18.98
   8 -10  -3  269.07   19.61
   8 -10  -2  200.25   16.62
   8 -10  -1  482.37   26.21
   8 -10   0  242.77   18.09
   8 -10   1   58.47    9.17
   8 -10   2  223.82   17.79
   8 -10   3   -3.94    3.47
   8  -9  -6   30.62    7.06
   8  -9  -5    6.67    4.47
   8  -9  -4  171.43   15.46
   8  -9  -3  589.30   29.20
   8  -9  -2  172.63   15.33
   8  -9  -1  117.16   12.51
   8  -9   0  331.85   21.06
   8  -9   1  288.18   19.66
   8  -9   2  242.37   18.02
   8  -9   3  515.50   27.30
   8  -8  -7  110.64   12.89
   8  -8  -6   93.64   11.86
   8  -8  -5   34.39    7.18
   8  -8  -4    8.70    5.82
   8  -8  -3  158.84   14.47
   8  -8  -2  379.63   22.40
   8  -8  -1    2.46    3.47
   8  -8   0  244.23   17.76
   8  -8   1  623.68   29.32
   8  -8   2  194.14   15.95
   8  -8   3  234.72   17.59
   8  -7  -8   92.54   12.03
   8  -7  -7    0.80    3.49
   8  -7  -6  117.49   12.66
   8  -7  -5  113.14   12.30
   8  -7  -4   15.81    5.72
   8  -7  -3   10.66    4.91
   8  -7  -2    1.88    3.39
   8  -7  -1  276.89   18.54
   8  -7   0   88.93   10.44
   8  -7   1  293.46   19.26
   8  -7   2  227.28   16.99
   8  -7   3  190.79   15.67
   8  -6  -9  282.00   20.71
   8  -6  -8  107.01   12.33
   8  -6  -7  411.80   24.28
   8  -6  -6  125.19   13.06
   8  -6  -5  200.14   16.05
   8  -6  -4  302.97   19.62
   8  -6  -3    3.37    3.50
   8  -6  -2  260.39   17.68
   8  -6  -2  280.63   13.97
   8  -6  -1   62.52    8.87
   8  -6  -1   70.39    6.53
   8  -6   0   69.89    9.28
   8  -6   1   24.02    5.85
   8  -6   2   71.25    9.37
   8  -6   3  136.71   13.28
   8  -5 -10   45.37    8.81
   8  -5  -9   40.22    8.09
   8  -5  -8   21.84    6.68
   8  -5  -7  251.29   18.53
   8  -5  -6  688.50   30.92
   8  -5  -5  267.54   18.21
   8  -5  -4  596.76   27.20
   8  -5  -4  524.31   20.73
   8  -5  -3  853.13   33.57
   8  -5  -3  884.49   27.07
   8  -5  -2  102.29   10.84
   8  -5  -2  110.52    7.85
   8  -5  -1  684.64   29.29
   8  -5  -1  694.31   20.96
   8  -5   0  100.53   10.57
   8  -5   1  175.20   14.06
   8  -5   2   25.72    6.04
   8  -5   3  170.66   14.30
   8  -4 -10   15.11    5.82
   8  -4  -9   11.15    5.32
   8  -4  -8   -2.74    4.43
   8  -4  -7   37.11    7.74
   8  -4  -6  138.82   13.36
   8  -4  -5  437.26   23.11
   8  -4  -5  415.84   17.89
   8  -4  -4  266.57   17.38
   8  -4  -4  262.83   13.06
   8  -4  -3  708.37   29.46
   8  -4  -3  721.34   22.27
   8  -4  -2  526.98   24.43
   8  -4  -2  407.80   14.82
   8  -4  -1   86.15    9.54
   8  -4  -1  102.50    6.09
   8  -4   0 1059.97   36.97
   8  -4   0 1056.02   33.01
   8  -4   1  288.00   17.91
   8  -4   1  264.12   15.46
   8  -4   2  409.75   21.70
   8  -4   2  441.68   20.95
   8  -4   3  218.65   15.94
   8  -4   3  221.80   15.09
   8  -4   4  365.10   20.41
   8  -4   5   38.77    7.44
   8  -4   6   22.65    5.63
   8  -3 -11   71.36   10.81
   8  -3 -10   64.74   10.17
   8  -3  -9   91.92   11.62
   8  -3  -8    7.49    3.82
   8  -3  -7    1.52    3.11
   8  -3  -7   -0.53    1.11
   8  -3  -6   12.77    4.73
   8  -3  -6    7.77    3.02
   8  -3  -5  134.56   12.58
   8  -3  -5  176.01   10.50
   8  -3  -4  276.65   17.39
   8  -3  -4  268.52   12.43
   8  -3  -3  196.58   14.43
   8  -3  -3  200.00   11.08
   8  -3  -3  195.33    9.53
   8  -3  -2  467.55   22.40
   8  -3  -2  444.77   14.01
   8  -3  -2  471.12   18.61
   8  -3  -1  219.17   15.11
   8  -3  -1  235.87   13.43
   8  -3   0  839.46   31.49
   8  -3   0  820.40   28.35
   8  -3   1  798.52   30.56
   8  -3   1  745.74   27.66
   8  -3   2  448.60   22.38
   8  -3   2  397.93   20.08
   8  -3   3  127.39   11.66
   8  -3   3  123.36   11.22
   8  -3   4  297.96   18.29
   8  -3   5  493.21   24.64
   8  -3   6  304.98   19.83
   8  -3   7  304.65   20.44
   8  -3   8  213.25   17.42
   8  -2 -11  130.50   14.25
   8  -2 -10   10.09    5.09
   8  -2 -10   -1.99    2.47
   8  -2  -9   54.94    9.05
   8  -2  -9   46.13    5.38
   8  -2  -8   45.31    8.39
   8  -2  -8   53.68    5.40
   8  -2  -7    8.73    4.76
   8  -2  -7    1.81    1.41
   8  -2  -6   12.04    4.63
   8  -2  -6   16.29    2.56
   8  -2  -6   21.84    4.14
   8  -2  -5  179.46   14.13
   8  -2  -5  188.81   10.39
   8  -2  -5  182.99    9.48
   8  -2  -5  180.21   11.08
   8  -2  -4  171.48   13.46
   8  -2  -4  191.44   10.34
   8  -2  -4  183.39    9.35
   8  -2  -4  185.75   10.60
   8  -2  -3   77.47    8.82
   8  -2  -3   72.43    6.67
   8  -2  -3   72.49    5.07
   8  -2  -3   65.77    5.71
   8  -2  -2  131.22   11.27
   8  -2  -2  133.94    9.65
   8  -2  -2  134.32    5.70
   8  -2  -2  137.60    7.78
   8  -2  -1  519.69   23.72
   8  -2  -1  542.91   21.52
   8  -2  -1  584.76   16.63
   8  -2   0  747.12   28.83
   8  -2   0  729.33   26.54
   8  -2   0  746.77   18.27
   8  -2   1   57.90    7.63
   8  -2   1   56.71    7.28
   8  -2   2  684.96   27.97
   8  -2   2  690.52   27.30
   8  -2   3  121.12   11.12
   8  -2   4  352.42   20.01
   8  -2   5  700.87   30.32
   8  -2   6  141.94   13.48
   8  -2   7  143.39   13.95
   8  -1 -12   78.98    8.65
   8  -1 -11   93.91   11.92
   8  -1 -11   98.37    9.12
   8  -1 -10  700.59   32.81
   8  -1 -10  717.91   25.36
   8  -1  -9   41.95    7.96
   8  -1  -9   33.28    4.95
   8  -1  -8  613.49   28.44
   8  -1  -8  635.61   21.62
   8  -1  -7  420.52   22.31
   8  -1  -7  390.70   15.39
   8  -1  -7  393.71   17.35
   8  -1  -7  394.62   13.00
   8  -1  -6   76.17    9.35
   8  -1  -6   69.43    6.48
   8  -1  -6   60.53    5.20
   8  -1  -5   97.04   10.13
   8  -1  -5   89.56    6.82
   8  -1  -5   90.29    6.76
   8  -1  -5   85.16    7.66
   8  -1  -4  198.85   14.19
   8  -1  -4  218.28   11.48
   8  -1  -4  215.51    9.58
   8  -1  -4  219.08   11.82
   8  -1  -3   28.05    5.84
   8  -1  -3   19.73    3.69
   8  -1  -3   22.20    3.61
   8  -1  -3   18.36    2.34
   8  -1  -2   76.03    8.52
   8  -1  -2   68.95    7.06
   8  -1  -2   84.31    6.34
   8  -1  -1    8.60    3.28
   8  -1  -1    4.09    2.25
   8  -1  -1    6.27    1.87
   8  -1   0  292.03   16.76
   8  -1   0  283.70   15.77
   8  -1   0  301.38   11.06
   8  -1   1    1.97    2.38
   8  -1   1    4.10    2.99
   8  -1   1    2.90    0.92
   8  -1   2   64.31    7.93
   8  -1   2   57.71    7.66
   8  -1   3  449.63   22.37
   8  -1   4  135.86   12.27
   8  -1   5  691.94   30.18
   8  -1   6  383.13   22.49
   8  -1   7  245.13   18.41
   8   0 -13   33.88    6.16
   8   0 -12  179.23   13.34
   8   0 -11    1.71    2.64
   8   0 -10  272.52   19.57
   8   0 -10  254.73   14.73
   8   0  -9   15.15    4.92
   8   0  -9    7.41    3.00
   8   0  -8  250.16   17.19
   8   0  -8  254.88   13.47
   8   0  -8  261.69   10.17
   8   0  -7 1047.79   37.29
   8   0  -7 1053.64   26.97
   8   0  -7 1011.84   30.55
   8   0  -6 1094.09   37.75
   8   0  -6 1114.54   29.67
   8   0  -6 1140.02   30.86
   8   0  -5  525.88   23.81
   8   0  -5  492.45   18.41
   8   0  -5  509.70   17.09
   8   0  -5  530.83   20.78
   8   0  -4  849.00   31.29
   8   0  -4  901.24   27.68
   8   0  -4  942.61   23.12
   8   0  -4  896.20   27.83
   8   0  -3  911.06   32.21
   8   0  -3  948.55   29.58
   8   0  -3  981.55   21.01
   8   0  -3  939.54   27.77
   8   0  -2  154.93   10.93
   8   0  -2  161.99    9.38
   8   0  -2  142.27   11.42
   8   0  -1  419.97   19.37
   8   0  -1  433.07   15.68
   8   0  -1  426.84   20.20
   8   0   0  146.70   11.53
   8   0   0  178.74   12.70
   8   0   0  165.79    8.76
   8   0   1    8.00    3.54
   8   0   1    8.25    3.93
   8   0   1    6.73    1.73
   8   0   2  148.32   11.84
   8   0   2  137.32   11.73
   8   0   3  220.11   15.43
   8   0   4   21.34    5.49
   8   0   5   47.72    7.81
   8   0   6   87.47   10.90
   8   0   7  204.44   16.95
   8   1 -14   20.58    5.76
   8   1 -13   38.68    6.98
   8   1 -12    6.93    3.05
   8   1 -11   22.04    4.86
   8   1 -10    3.11    3.26
   8   1 -10    8.67    3.40
   8   1  -9   13.85    5.56
   8   1  -9   17.90    4.23
   8   1  -8  194.59   14.74
   8   1  -8  181.81   11.82
   8   1  -8  176.70    9.28
   8   1  -7  211.40   15.16
   8   1  -7  218.18   10.96
   8   1  -7  197.32   11.51
   8   1  -6  109.65   10.60
   8   1  -6  106.49    7.97
   8   1  -6   93.74    7.29
   8   1  -5  466.89   21.92
   8   1  -5  489.70   18.98
   8   1  -5  479.81   16.20
   8   1  -4  119.82    9.26
   8   1  -4  131.50   10.96
   8   1  -4  121.39    9.18
   8   1  -4  122.80    6.47
   8   1  -3  845.74   28.51
   8   1  -3  869.33   30.48
   8   1  -3  866.15   27.31
   8   1  -3  898.84   19.05
   8   1  -3  899.80   19.00
   8   1  -2  831.46   28.82
   8   1  -2  844.43   26.08
   8   1  -2  882.75   30.11
   8   1  -1  488.80   21.43
   8   1  -1  483.56   17.85
   8   1  -1  480.79   21.21
   8   1   0  405.07   19.91
   8   1   0  395.53   15.46
   8   1   0  372.98   18.39
   8   1   1  347.53   18.89
   8   1   1  326.63   13.63
   8   1   1  337.17   17.54
   8   1   2   36.83    6.43
   8   1   3   74.78    9.29
   8   1   4  122.99   12.25
   8   1   5   39.93    7.57
   8   1   6   43.67    7.56
   8   2 -14  102.97   11.68
   8   2 -13   90.42   10.46
   8   2 -12   78.51    9.55
   8   2 -11    2.86    2.51
   8   2 -10    5.13    4.70
   8   2 -10    8.42    3.40
   8   2  -9    1.94    3.64
   8   2  -9    0.01    1.32
   8   2  -9    6.67    3.71
   8   2  -8   57.88    8.29
   8   2  -8   66.62    7.60
   8   2  -8   71.02    6.28
   8   2  -7   60.10    8.04
   8   2  -7   62.19    6.37
   8   2  -7   45.09    5.54
   8   2  -6   11.51    3.91
   8   2  -6   15.28    3.62
   8   2  -6    7.88    2.26
   8   2  -5  397.62   19.69
   8   2  -5  391.56   17.59
   8   2  -5  414.82   14.65
   8   2  -4  321.72   17.04
   8   2  -4  319.29   16.23
   8   2  -4  349.34   11.78
   8   2  -3  390.72   18.67
   8   2  -3  408.30   19.13
   8   2  -3  394.77   17.69
   8   2  -3  426.76   11.04
   8   2  -3  415.54   10.84
   8   2  -2  732.26   27.35
   8   2  -2  725.34   24.65
   8   2  -2  741.34   26.67
   8   2  -1  291.05   16.66
   8   2  -1  288.24   14.11
   8   2  -1  292.06   15.63
   8   2   0  147.61   12.13
   8   2   0  165.14   10.24
   8   2   0  145.32   10.89
   8   2   1  798.66   30.87
   8   2   1  788.96   25.02
   8   2   2  216.99   15.70
   8   2   3   55.23    8.44
   8   2   4  285.40   19.11
   8   2   5  223.33   17.25
   8   2   6   17.21    5.64
   8   3 -14  175.15   15.38
   8   3 -13  150.25   13.90
   8   3 -12  168.04   14.09
   8   3 -11  141.94   12.52
   8   3 -10   34.18    7.08
   8   3 -10   42.39    6.68
   8   3  -9   34.14    6.78
   8   3  -9   36.55    5.07
   8   3  -9   39.65    6.60
   8   3  -8  185.66   14.04
   8   3  -8  161.48   10.64
   8   3  -7    7.80    3.44
   8   3  -7   20.39    4.17
   8   3  -6    4.16    3.11
   8   3  -6    1.72    2.18
   8   3  -5   -0.10    2.26
   8   3  -5   -3.05    3.22
   8   3  -4  220.72   13.61
   8   3  -4  208.84   13.44
   8   3  -4  212.15    9.26
   8   3  -3  244.79   14.03
   8   3  -3  235.40   14.62
   8   3  -3  242.04    8.42
   8   3  -2  363.46   17.13
   8   3  -2  322.38   17.88
   8   3  -1  389.26   17.64
   8   3  -1  358.79   19.37
   8   3   0  130.51   10.02
   8   3   0  129.97   11.75
   8   3   1  658.16   28.45
   8   3   2  135.62   12.75
   8   3   3  332.13   20.53
   8   3   4  518.75   26.78
   8   3   5  183.26   15.84
   8   4 -14  121.44   13.02
   8   4 -13  225.19   17.41
   8   4 -12  119.81   12.51
   8   4 -11  195.44   15.28
   8   4 -10  144.16   13.51
   8   4 -10  147.55   12.93
   8   4  -9  420.27   22.14
   8   4  -9  419.49   18.49
   8   4  -9  398.21   21.17
   8   4  -8  243.04   16.03
   8   4  -8  274.39   14.89
   8   4  -7  242.86   15.27
   8   4  -7  252.70   14.66
   8   4  -6   22.34    4.59
   8   4  -6    6.22    3.26
   8   4  -5  160.71   11.48
   8   4  -5  148.77   11.72
   8   4  -5  157.37    9.15
   8   4  -4   49.27    6.20
   8   4  -4   44.13    7.20
   8   4  -4   46.24    4.42
   8   4  -3   22.97    4.30
   8   4  -3   19.12    4.67
   8   4  -2   -1.67    2.27
   8   4  -2   -3.47    3.80
   8   4  -1   70.20    6.94
   8   4  -1   63.55    8.33
   8   4   0  120.87   11.71
   8   4   1  131.86   12.69
   8   4   2  130.46   12.97
   8   4   3  372.50   22.33
   8   4   4  483.68   26.27
   8   5 -13   68.74   10.07
   8   5 -12  190.46   16.01
   8   5 -11   99.78   11.43
   8   5 -10   52.72    7.82
   8   5 -10   69.49    7.58
   8   5 -10   63.84    9.16
   8   5  -9  467.63   23.13
   8   5  -9  512.17   22.07
   8   5  -8  399.84   20.02
   8   5  -8  355.97   18.43
   8   5  -7  390.38   19.20
   8   5  -7  355.92   18.74
   8   5  -6  959.82   31.18
   8   5  -6  917.65   32.67
   8   5  -6  937.23   28.67
   8   5  -5  268.56   14.43
   8   5  -5  262.38   16.37
   8   5  -5  271.71   12.94
   8   5  -4  609.72   22.42
   8   5  -4  600.87   26.21
   8   5  -4  601.50   19.44
   8   5  -3  540.12   20.27
   8   5  -3  512.43   24.38
   8   5  -2   72.06    6.80
   8   5  -2   59.07    8.24
   8   5  -1   76.86    9.77
   8   5   0   12.02    4.42
   8   5   1   -2.66    3.38
   8   5   2   18.69    5.59
   8   5   3    0.35    3.11
   8   6 -12   15.30    5.81
   8   6 -11   77.97   10.43
   8   6 -11   89.17   11.10
   8   6 -10   25.79    5.40
   8   6  -9  105.65   10.33
   8   6  -8  227.60   14.46
   8   6  -8  203.63   14.50
   8   6  -8  207.67   13.68
   8   6  -7  101.68    9.09
   8   6  -7   80.34    9.41
   8   6  -7   93.21    8.66
   8   6  -6   94.95    8.46
   8   6  -6   83.91    9.52
   8   6  -6   92.32    8.21
   8   6  -5  292.01   14.26
   8   6  -5  261.96   17.24
   8   6  -4  154.90   13.30
   8   6  -3  683.69   29.78
   8   6  -2  338.55   20.59
   8   6  -1  203.88   16.18
   8   6   0   53.53    8.45
   8   6   1  115.00   12.60
   8   6   2   12.23    5.33
   8   7  -9   22.74    5.15
   8   7  -8   35.05    6.14
   8   7  -7  124.11   12.28
   8   7  -7  149.94   11.42
   8   7  -6  200.58   15.50
   8   7  -5  163.28   14.26
   8   7  -4  731.76   31.68
   8   7  -3  181.04   15.25
   8   7  -2  169.03   15.10
   8   7  -1   33.40    7.22
   8   7   0   95.05   11.54
   8   8 -11  184.56   15.51
   8   8 -10    7.02    3.62
   8   8  -9   42.10    7.14
   8   8  -6   21.86    5.79
   8   8  -5   35.82    7.15
   8   8  -4  214.50   17.14
   8   8  -3  417.88   24.38
   8   8  -2  145.14   14.43
   8   9  -6   74.18   10.51
   9  -9  -2    2.95    4.07
   9  -9  -1    4.45    4.53
   9  -9   0   24.03    6.43
   9  -9   1   20.65    6.36
   9  -8  -5  234.31   18.87
   9  -8  -4   61.29    9.61
   9  -8  -3   26.17    6.65
   9  -8  -2   87.37   11.38
   9  -8  -1    2.18    3.33
   9  -8   0  130.59   13.69
   9  -8   1    2.56    3.07
   9  -8   2   81.58   11.15
   9  -8   3  142.10   14.59
   9  -7  -6  102.37   12.51
   9  -7  -5  204.65   17.29
   9  -7  -4  558.08   28.88
   9  -7  -3  209.19   17.10
   9  -7  -2  198.76   16.43
   9  -7  -1  239.75   18.22
   9  -7   0   -0.22    2.97
   9  -7   1   24.96    6.71
   9  -7   2    4.09    3.24
   9  -7   3   11.17    4.24
   9  -6  -7   87.72   11.52
   9  -6  -6  154.92   15.04
   9  -6  -5    8.59    4.07
   9  -6  -4  142.17   14.24
   9  -6  -3  173.75   15.31
   9  -6  -2   74.43   10.11
   9  -6  -1  355.45   21.87
   9  -6   0  312.13   20.55
   9  -6   1   95.24   11.37
   9  -6   2   68.66   10.03
   9  -6   3  122.54   13.02
   9  -5  -8   -2.59    3.64
   9  -5  -7   92.04   11.52
   9  -5  -6    1.04    4.15
   9  -5  -5   27.75    6.53
   9  -5  -4  160.23   14.68
   9  -5  -3   12.31    5.35
   9  -5  -2  194.88   15.85
   9  -5  -1  306.58   20.00
   9  -5   0  303.34   19.73
   9  -5   1  722.32   31.78
   9  -5   2  204.78   16.39
   9  -5   3   52.36    8.57
   9  -4  -9   84.38   11.70
   9  -4  -8  178.55   16.25
   9  -4  -7   16.88    5.61
   9  -4  -6  127.93   13.32
   9  -4  -5   65.87    9.70
   9  -4  -4   41.83    7.59
   9  -4  -3   28.46    6.85
   9  -4  -2    9.60    4.68
   9  -4  -1  149.59   13.62
   9  -4   0   62.19    8.81
   9  -4   0   61.72    7.77
   9  -4   1  321.39   20.08
   9  -4   1  276.99   16.80
   9  -4   2   39.80    7.70
   9  -4   2   75.23    9.09
   9  -4   3   77.28    9.84
   9  -4   4  188.20   15.29
   9  -4   5  531.81   27.18
   9  -3  -9  150.71   15.50
   9  -3  -8  230.28   18.36
   9  -3  -7  131.51   13.50
   9  -3  -6   64.60    9.86
   9  -3  -5  198.75   15.93
   9  -3  -4   68.37    9.30
   9  -3  -3    1.06    3.00
   9  -3  -3    5.74    2.62
   9  -3  -2   14.22    4.66
   9  -3  -2   17.66    3.83
   9  -3  -1  135.72   12.64
   9  -3  -1  155.59   11.57
   9  -3   0   41.75    7.21
   9  -3   0   38.25    6.24
   9  -3   1  445.93   23.64
   9  -3   1  492.00   22.94
   9  -3   2    1.42    3.60
   9  -3   2   -0.66    3.46
   9  -3   3  280.10   18.11
   9  -3   4  288.62   19.13
   9  -3   5   54.52    8.83
   9  -3   6  240.81   18.47
   9  -2 -10  209.07   18.11
   9  -2  -9  270.60   19.78
   9  -2  -8  125.54   13.66
   9  -2  -7  215.05   16.98
   9  -2  -6  288.34   19.30
   9  -2  -5  103.61   11.44
   9  -2  -5  106.67    7.91
   9  -2  -4  462.03   23.81
   9  -2  -4  450.62   18.28
   9  -2  -3  142.25   12.84
   9  -2  -3  151.79   10.60
   9  -2  -2   70.44    9.03
   9  -2  -2   87.05    8.39
   9  -2  -1   52.70    7.69
   9  -2  -1   44.26    6.50
   9  -2   0    6.34    3.85
   9  -2   0    4.59    2.79
   9  -2   1   24.08    6.17
   9  -2   1   19.48    4.98
   9  -2   2    3.49    3.03
   9  -2   2    0.89    3.20
   9  -2   3   36.76    6.91
   9  -2   4  604.65   28.64
   9  -2   5  182.86   15.79
   9  -2   6  163.64   15.28
   9  -1 -10  104.99   12.65
   9  -1  -9  174.65   15.91
   9  -1  -8   40.68    8.02
   9  -1  -7   74.40   10.22
   9  -1  -6  141.36   13.38
   9  -1  -6  176.14    9.88
   9  -1  -5   48.96    7.80
   9  -1  -5   42.47    5.24
   9  -1  -4    9.56    4.24
   9  -1  -4    8.63    2.91
   9  -1  -3  322.40   18.91
   9  -1  -3  287.62   15.31
   9  -1  -2  157.58   13.06
   9  -1  -2  143.97   11.03
   9  -1  -1  344.05   19.57
   9  -1  -1  384.36   19.09
   9  -1   0   91.12    9.98
   9  -1   0   85.90    9.09
   9  -1   1   58.88    8.26
   9  -1   1   68.96    8.73
   9  -1   2   23.18    5.93
   9  -1   2    6.99    3.42
   9  -1   3   21.17    5.03
   9  -1   4    7.52    4.67
   9  -1   5   15.05    4.88
   9   0 -11   -0.71    3.70
   9   0 -10   92.94   11.79
   9   0  -9    9.32    4.72
   9   0  -8    0.56    3.46
   9   0  -7    9.91    4.35
   9   0  -6   -6.45    4.25
   9   0  -6   -0.74    1.87
   9   0  -5  201.16   15.09
   9   0  -5  213.87   12.30
   9   0  -4  213.15   15.05
   9   0  -4  192.35   12.24
   9   0  -3  123.39   11.52
   9   0  -3  141.09   10.79
   9   0  -2  719.80   29.10
   9   0  -2  723.56   27.38
   9   0  -1  362.69   19.71
   9   0  -1  352.33   18.74
   9   0   0   48.53    7.05
   9   0   0   45.91    7.10
   9   0   1  448.18   22.42
   9   0   1  449.72   22.78
   9   0   2   81.98    9.69
   9   0   3   75.68    9.73
   9   0   4  241.91   17.83
   9   0   5  102.93   12.03
   9   1 -11  306.18   21.60
   9   1 -10   12.49    5.47
   9   1 -10   13.22    3.93
   9   1  -9   62.13    9.21
   9   1  -8   26.39    6.53
   9   1  -7    0.63    2.90
   9   1  -7   -1.14    1.93
   9   1  -6    9.17    4.54
   9   1  -6    5.01    2.53
   9   1  -5    3.00    2.95
   9   1  -5    5.50    2.56
   9   1  -4   86.99    9.75
   9   1  -4   95.31    8.81
   9   1  -3   53.49    7.53
   9   1  -3   46.16    6.42
   9   1  -2  120.69   11.04
   9   1  -2  122.18   10.78
   9   1  -1  462.37   22.04
   9   1  -1  452.96   22.08
   9   1   0  373.01   19.70
   9   1   0  400.45   21.15
   9   1   1  468.36   22.47
   9   1   1  452.21   23.43
   9   1   2  382.36   21.84
   9   1   3  123.14   12.51
   9   1   4  364.73   22.50
   9   2 -12   38.62    9.40
   9   2 -11  371.48   23.70
   9   2 -11  384.41   20.61
   9   2 -10   35.86    8.34
   9   2 -10   33.95    5.86
   9   2  -9  282.19   19.52
   9   2  -8  210.82   16.00
   9   2  -7   21.67    5.47
   9   2  -7   25.62    4.48
   9   2  -6   15.52    4.82
   9   2  -6   26.17    4.66
   9   2  -5   35.77    6.35
   9   2  -5   43.01    6.03
   9   2  -4    3.85    2.81
   9   2  -4   11.48    3.70
   9   2  -3   37.14    6.24
   9   2  -3   36.73    6.05
   9   2  -2   27.25    5.73
   9   2  -2   11.31    3.73
   9   2  -1    8.78    3.20
   9   2  -1    5.75    3.25
   9   2   0  279.55   16.51
   9   2   0  277.21   17.99
   9   2   1  151.23   13.48
   9   2   2   37.79    7.17
   9   2   3  549.84   27.75
   9   2   4  317.35   21.37
   9   3 -13  112.55   12.35
   9   3 -12   65.60    9.85
   9   3 -12   66.99    9.29
   9   3 -11   63.88    9.89
   9   3 -11   72.01    9.45
   9   3 -10  174.77   15.30
   9   3  -9  417.00   23.39
   9   3  -8  164.82   13.90
   9   3  -8  199.08   12.39
   9   3  -7   52.62    8.01
   9   3  -7   50.77    6.62
   9   3  -6  204.52   14.47
   9   3  -6  178.76   12.66
   9   3  -5   69.83    8.58
   9   3  -5   67.77    8.02
   9   3  -4  218.88   14.26
   9   3  -4  208.20   14.41
   9   3  -3   70.35    8.12
   9   3  -3   70.97    8.76
   9   3  -2   -1.65    2.76
   9   3  -2    0.31    3.33
   9   3  -1    2.30    2.09
   9   3  -1   -5.29    3.71
   9   3   0    1.68    2.85
   9   3   1   64.26    9.08
   9   3   2   65.28    9.43
   9   3   3  178.47   15.78
   9   4 -13   18.90    5.64
   9   4 -12   19.75    6.18
   9   4 -12   18.82    5.40
   9   4 -11   -0.65    4.01
   9   4 -11    8.87    4.46
   9   4 -10   18.55    5.54
   9   4  -9  259.04   17.56
   9   4  -8   98.17   10.51
   9   4  -8   73.24    8.00
   9   4  -7   37.85    6.53
   9   4  -7   36.32    5.98
   9   4  -6  282.53   16.71
   9   4  -6  250.19   15.79
   9   4  -5   47.95    6.63
   9   4  -5   42.38    6.94
   9   4  -4  345.20   17.75
   9   4  -4  303.62   18.30
   9   4  -3  258.13   14.91
   9   4  -3  248.24   16.79
   9   4  -2  114.86    9.69
   9   4  -2  134.94   12.85
   9   4  -1  104.02    9.27
   9   4  -1  131.51   12.72
   9   4   0   32.31    7.01
   9   4   1   14.32    5.17
   9   4   2   -0.23    3.49
   9   5 -12   17.07    5.51
   9   5 -12   30.93    7.09
   9   5 -11    3.32    3.57
   9   5 -10    3.36    3.51
   9   5  -9    0.90    3.19
   9   5  -8   26.14    5.63
   9   5  -8   30.08    6.03
   9   5  -7    3.40    2.20
   9   5  -7    3.18    3.38
   9   5  -6  110.06    9.82
   9   5  -6  100.43   10.44
   9   5  -5  205.53   13.37
   9   5  -5  225.32   15.86
   9   5  -4  350.20   20.54
   9   5  -3  269.11   18.03
   9   5  -2  331.76   20.62
   9   5  -1  112.03   12.11
   9   5   0  290.72   20.33
   9   5   1   22.46    6.34
   9   6  -9    1.78    2.66
   9   6  -8    2.36    3.14
   9   6  -7   22.82    5.90
   9   6  -6    4.57    3.99
   9   6  -5   44.95    7.90
   9   6  -4  130.94   12.76
   9   6  -3  130.82   13.24
   9   6  -2  157.07   14.43
   9   6  -1  384.67   23.42
   9   7  -9   76.35    9.73
   9   7  -8   67.69    9.22
   9   7  -7   65.91    9.28
   9   7  -6    1.41    3.56
   9   7  -5   -0.68    3.99
   9   7  -4   24.37    6.46
   9   7  -3   17.03    5.56
   9   8  -9  142.13   14.14
   9   8  -8   47.87    8.38
   9   8  -7   45.20    8.38
   9   8  -6   88.72   11.50
  10  -6  -3   17.24    5.90
  10  -6  -2   82.49   11.13
  10  -6  -1  264.50   19.79
  10  -6   0   47.98    8.46
  10  -6   1  511.37   28.21
  10  -5  -5  108.61   12.74
  10  -5  -4   64.73   10.13
  10  -5  -3   12.49    5.71
  10  -5  -2   52.31    9.22
  10  -5  -1   10.74    4.67
  10  -5   0   71.71   10.11
  10  -5   1   51.84    8.83
  10  -5   2  130.48   13.81
  10  -4  -6  265.86   19.91
  10  -4  -5  143.04   14.54
  10  -4  -4  266.94   19.43
  10  -4  -3   59.77    9.42
  10  -4  -2   25.98    6.41
  10  -4  -1   98.02   11.84
  10  -4   0   -1.99    3.03
  10  -4   1    4.63    3.73
  10  -4   1   -0.21    2.82
  10  -4   2   51.96    8.73
  10  -4   2   44.02    7.75
  10  -4   3  213.58   16.75
  10  -4   4  203.84   16.76
  10  -3  -7  142.17   14.64
  10  -3  -6  187.65   16.39
  10  -3  -5  322.59   21.43
  10  -3  -4   72.24   10.35
  10  -3  -3  488.22   26.40
  10  -3  -3  529.96   21.90
  10  -3  -2  345.54   21.67
  10  -3  -2  322.45   17.52
  10  -3  -1  327.02   21.05
  10  -3  -1  307.48   17.84
  10  -3   0  204.18   16.78
  10  -3   0  239.34   16.06
  10  -3   1  116.60   12.57
  10  -3   1   98.08   10.76
  10  -3   2   -2.76    3.50
  10  -3   2    2.17    3.52
  10  -3   3   31.23    6.78
  10  -3   4   17.49    5.32
  10  -2  -8  101.07   12.38
  10  -2  -7   97.13   11.85
  10  -2  -6   90.82   11.23
  10  -2  -5  185.98   15.91
  10  -2  -4   66.88    9.62
  10  -2  -4   61.00    6.91
  10  -2  -3   61.35    9.05
  10  -2  -3   60.63    7.35
  10  -2  -2  661.80   30.46
  10  -2  -2  643.15   26.16
  10  -2  -1  139.02   13.35
  10  -2  -1  146.71   12.36
  10  -2   0  253.26   18.03
  10  -2   0  246.00   16.52
  10  -2   1  138.75   13.39
  10  -2   1  166.87   14.01
  10  -2   2  216.35   17.08
  10  -2   2  256.89   17.99
  10  -2   3   57.40    8.91
  10  -1  -9   64.81    9.99
  10  -1  -8   44.09    8.23
  10  -1  -7   20.63    6.35
  10  -1  -6   11.35    4.79
  10  -1  -5   46.59    8.38
  10  -1  -5   45.53    5.85
  10  -1  -4   46.65    7.95
  10  -1  -4   33.02    5.50
  10  -1  -3   52.70    8.34
  10  -1  -3   47.34    6.66
  10  -1  -2  329.77   20.49
  10  -1  -2  320.79   18.05
  10  -1  -1  155.17   14.00
  10  -1  -1  159.34   12.91
  10  -1   0  411.13   22.97
  10  -1   0  436.54   22.60
  10  -1   1   96.56   11.69
  10  -1   1   95.73   10.69
  10  -1   2  404.30   23.13
  10  -1   3  256.38   18.69
  10   0  -9  182.69   16.71
  10   0  -8  386.66   23.71
  10   0  -7  342.25   21.98
  10   0  -6   55.44    8.78
  10   0  -5  193.94   15.67
  10   0  -5  209.04   13.08
  10   0  -4   17.24    5.28
  10   0  -4   12.58    3.92
  10   0  -3   -1.41    2.94
  10   0  -3   -2.64    2.66
  10   0  -2    2.73    3.75
  10   0  -2    2.39    2.98
  10   0  -1   -2.00    3.88
  10   0  -1   -3.25    3.51
  10   0   0  236.34   16.95
  10   0   0  250.48   17.20
  10   0   1   52.73    8.20
  10   0   1   45.77    7.88
  10   0   2  163.01   14.70
  10   0   3  596.20   29.72
  10   1 -10  526.62   29.16
  10   1  -9  279.08   20.33
  10   1  -8   71.89   10.37
  10   1  -7   93.81   11.01
  10   1  -6   59.78    8.97
  10   1  -6  102.48    9.02
  10   1  -5   22.70    5.44
  10   1  -5   20.73    4.44
  10   1  -4  267.55   17.87
  10   1  -4  257.90   15.88
  10   1  -3   54.01    8.02
  10   1  -3   68.62    8.63
  10   1  -2   17.76    5.30
  10   1  -2    2.74    2.76
  10   1  -1   67.33    8.79
  10   1  -1   53.38    8.13
  10   1   0    9.93    4.09
  10   1   0   21.07    5.48
  10   1   1   27.67    6.74
  10   1   2   77.15   10.12
  10   2 -10  244.91   19.29
  10   2  -9  264.44   19.47
  10   2  -8  190.86   16.16
  10   2  -7   67.24    9.45
  10   2  -6  274.04   18.31
  10   2  -6  270.44   15.82
  10   2  -5  201.72   15.24
  10   2  -5  175.09   13.04
  10   2  -4   99.41   10.73
  10   2  -4  112.19   10.74
  10   2  -3  252.44   16.68
  10   2  -3  232.48   16.03
  10   2  -2   55.07    8.10
  10   2  -2   38.68    6.99
  10   2  -1   21.19    5.47
  10   2  -1   30.76    6.32
  10   2   0  151.49   12.82
  10   2   0  150.79   14.00
  10   2   1   -6.33    5.02
  10   3 -10    8.54    3.88
  10   3  -9   87.76   10.99
  10   3  -8   59.44    9.06
  10   3  -7  257.08   17.69
  10   3  -6   17.33    4.88
  10   3  -6   27.59    5.62
  10   3  -5  419.85   21.91
  10   3  -5  435.17   22.01
  10   3  -4  164.97   13.47
  10   3  -4  177.48   14.04
  10   3  -3  100.83   10.29
  10   3  -3   98.17   10.79
  10   3  -2  275.79   16.90
  10   3  -2  298.31   19.27
  10   3  -1  221.37   15.15
  10   3  -1  246.39   17.75
  10   3   0   61.04    9.46
  10   4 -10   52.86    8.98
  10   4  -9    0.37    5.79
  10   4  -8    1.92    3.26
  10   4  -7   15.13    4.83
  10   4  -7   13.50    4.50
  10   4  -6   88.96    9.81
  10   4  -6   71.27    8.92
  10   4  -5   45.28    7.24
  10   4  -5   45.73    7.31
  10   4  -4  200.38   15.48
  10   4  -3   89.72   10.65
  10   4  -2  132.45   13.11
  10   4  -1  541.59   27.94
  10   5  -7  102.25   10.76
  10   5  -6   20.69    4.93
  10   5  -5   -1.32    3.17
  10   5  -4    3.92    3.82
  10   5  -3    3.68    3.49
  10   5  -2   15.68    5.78
  10   6  -7   16.82    5.12
  10   6  -6    8.75    3.85
  10   6  -5   36.37    7.05
  11  -3  -2  247.33   16.12
  11  -3  -1  361.02   20.57
  11  -3   0   13.18    4.92
  11  -3   1  226.41   17.25
  11  -3   2  164.27   15.11
  11  -2  -4   38.78    7.95
  11  -2  -3   43.13    8.51
  11  -2  -2    7.17    4.32
  11  -2  -2    1.02    2.72
  11  -2  -1   94.55   11.54
  11  -2  -1   71.66    9.25
  11  -2   0   17.90    6.29
  11  -2   0   14.13    4.91
  11  -2   1   76.85   10.18
  11  -1  -6  149.98   14.96
  11  -1  -5   10.54    4.04
  11  -1  -4  133.50   13.79
  11  -1  -3    5.36    4.44
  11  -1  -3    1.67    2.84
  11  -1  -2   30.43    7.29
  11  -1  -2   21.00    5.51
  11  -1  -1    3.28    3.38
  11  -1  -1    2.33    3.66
  11  -1   0   21.20    5.65
  11  -1   0   13.04    4.50
  11  -1   1   83.19   10.99
  11  -1   1   95.05   11.57
  11   0  -6  300.67   20.93
  11   0  -5  171.45   15.31
  11   0  -4  202.33   16.68
  11   0  -3  183.46   15.71
  11   0  -3  185.01   14.30
  11   0  -2   27.22    6.36
  11   0  -2   35.34    6.84
  11   0  -1   56.43    8.89
  11   0  -1   66.58    9.12
  11   0   0   85.04   10.59
  11   0   0   71.83    9.82
  11   1  -7   65.29    9.91
  11   1  -6  117.54   12.68
  11   1  -5  238.83   17.97
  11   1  -4  100.68   11.74
  11   1  -4  134.54   12.11
  11   1  -3  247.76   17.90
  11   1  -3  251.55   17.10
  11   1  -2   44.45    7.82
  11   1  -2   45.46    7.51
  11   1  -1  317.76   20.18
  11   1  -1  296.19   19.74
  11   1   0   35.66    7.25
  11   1   0   37.34    7.59
  11   2  -8    7.64    4.37
  11   2  -7   52.97    8.33
  11   2  -6   22.79    6.18
  11   2  -5  111.30   12.06
  11   2  -4  167.90   14.44
  11   2  -4  148.95   13.26
  11   2  -3   27.85    7.75
  11   2  -3   32.13    6.73
  11   2  -2  116.17   11.82
  11   2  -2   92.32   10.96
  11   2  -1  172.31   15.42
  11   3  -7    0.42    3.41
  11   3  -5    0.27    2.72
  11   3  -4   18.21    5.49
  11   3  -3   45.64    8.32
  11   4  -5   29.10    6.74
  11   4  -4   38.66    7.62
   0   0   0    0.00    0.00


TITL pvl713_auto in P1
REM P1 (#1 in standard setting)
CELL 0.71073   8.774598  11.591486  12.867858 102.0111 100.6690  96.5037
ZERR    4.00   0.000205   0.000241   0.000385   0.0021   0.0022   0.0018
LATT -1
SFAC C H N O S Cd
UNIT 40.00 40.00 16.00 16.00 4.00 4.00
REM  CrysAlisPro recorded range (K): Min=170.0; max=170.0; aver:170.0
TEMP -103
TREF
HKLF 4
END
_computing_structure_solution     'SHELXT 2014/5 (Sheldrick, 2014)'
;
_shelx_hkl_checksum   13224

